#------------------------------------------------------------------------------
#$Date: 2022-06-06 04:37:00 +0300 (Mon, 06 Jun 2022) $
#$Revision: 275776 $
#$URL: file:///home/coder/svn-repositories/cod/cif/1/56/67/1566769.cif $
#------------------------------------------------------------------------------
#
# This file is available in the Crystallography Open Database (COD),
# http://www.crystallography.net/
#
# All data on this site have been placed in the public domain by the
# contributors.
#
data_1566769
loop_
_publ_author_name
'Xie, Dale'
'Wang, Sheng'
'Li, Shihao'
'Yang, Wenqing'
'Feng, Yi-Si'
_publ_section_title
;
 A two-dimensional Bi-based porphyrin metal--organic framework
 photocatalyst for white light-driven selective oxidation of sulfides
;
_journal_issue                   10
_journal_name_full               'Catalysis Science &amp; Technology'
_journal_page_first              3254
_journal_page_last               3260
_journal_paper_doi               10.1039/D2CY00387B
_journal_volume                  12
_journal_year                    2022
_chemical_formula_moiety         'C48 H28 Bi N4 O9'
_chemical_formula_sum            'C48 H28 Bi N4 O9'
_chemical_formula_weight         1013.72
_space_group_crystal_system      orthorhombic
_space_group_IT_number           19
_space_group_name_Hall           'P 2ac 2ab'
_space_group_name_H-M_alt        'P 21 21 21'
_atom_sites_solution_hydrogens   mixed
_atom_sites_solution_primary     dual
_audit_creation_date             2021-04-07
_audit_creation_method
;
Olex2 1.3
(compiled 2020.02.04 svn.rd84adfe8 for OlexSys, GUI svn.r6032)
;
_audit_update_record
;
2021-04-08 deposited with the CCDC.	2022-03-28 downloaded from the CCDC.
;
_cell_angle_alpha                90
_cell_angle_beta                 90
_cell_angle_gamma                90
_cell_formula_units_Z            4
_cell_length_a                   17.300(3)
_cell_length_b                   17.400
_cell_length_c                   18.975(3)
_cell_measurement_reflns_used    5423
_cell_measurement_temperature    296.15
_cell_measurement_theta_max      21.956
_cell_measurement_theta_min      2.354
_cell_volume                     5711.9(13)
_computing_cell_refinement       'SAINT v8.34A (Bruker, 2013)'
_computing_data_reduction        'SAINT v8.34A (Bruker, 2013)'
_computing_molecular_graphics    'Olex2 1.3 (Dolomanov et al., 2009)'
_computing_publication_material  'Olex2 1.3 (Dolomanov et al., 2009)'
_computing_structure_refinement  'SHELXL 2018/3 (Sheldrick, 2015)'
_computing_structure_solution    'SHELXT 2018/2 (Sheldrick, 2018)'
_diffrn_ambient_temperature      296.15
_diffrn_detector                 'Bruker APEX2 area detector'
_diffrn_detector_area_resol_mean 7.9
_diffrn_detector_type            'CCD area detector'
_diffrn_measured_fraction_theta_full 0.861
_diffrn_measured_fraction_theta_max 0.874
_diffrn_measurement_device       'three-circle diffractometer'
_diffrn_measurement_device_type  'Bruker SMART APEX2 area detector'
_diffrn_measurement_method       '\w and \f scans'
_diffrn_radiation_monochromator  'mirror optics'
_diffrn_radiation_probe          x-ray
_diffrn_radiation_type           MoK\a
_diffrn_radiation_wavelength     0.71073
_diffrn_reflns_av_R_equivalents  0.0842
_diffrn_reflns_av_unetI/netI     0.1955
_diffrn_reflns_Laue_measured_fraction_full 0.861
_diffrn_reflns_Laue_measured_fraction_max 0.874
_diffrn_reflns_limit_h_max       22
_diffrn_reflns_limit_h_min       -17
_diffrn_reflns_limit_k_max       22
_diffrn_reflns_limit_k_min       -22
_diffrn_reflns_limit_l_max       24
_diffrn_reflns_limit_l_min       -23
_diffrn_reflns_number            31822
_diffrn_reflns_point_group_measured_fraction_full 0.865
_diffrn_reflns_point_group_measured_fraction_max 0.877
_diffrn_reflns_theta_full        25.242
_diffrn_reflns_theta_max         27.238
_diffrn_reflns_theta_min         1.588
_diffrn_source                   'microfocus sealed X-ray tube'
_diffrn_source_current           25.0
_diffrn_source_power             1.125
_diffrn_source_type              'Incoatec I\ms'
_diffrn_source_voltage           45.0
_exptl_absorpt_coefficient_mu    3.133
_exptl_absorpt_correction_T_max  0.5
_exptl_absorpt_correction_T_min  0.3
_exptl_absorpt_correction_type   multi-scan
_exptl_crystal_colour            'clear light white'
_exptl_crystal_colour_lustre     clear
_exptl_crystal_colour_modifier   light
_exptl_crystal_colour_primary    white
_exptl_crystal_density_diffrn    1.179
_exptl_crystal_description       block
_exptl_crystal_F_000             1996
_exptl_crystal_size_max          0.5
_exptl_crystal_size_mid          0.4
_exptl_crystal_size_min          0.3
_refine_diff_density_max         1.210
_refine_diff_density_min         -0.703
_refine_diff_density_rms         0.097
_refine_ls_abs_structure_details
;
 Refined as an inversion twin.
;
_refine_ls_abs_structure_Flack   0.196(11)
_refine_ls_extinction_method     none
_refine_ls_goodness_of_fit_ref   0.719
_refine_ls_hydrogen_treatment    constr
_refine_ls_matrix_type           full
_refine_ls_number_parameters     561
_refine_ls_number_reflns         11196
_refine_ls_number_restraints     341
_refine_ls_restrained_S_all      0.727
_refine_ls_R_factor_all          0.0786
_refine_ls_R_factor_gt           0.0474
_refine_ls_shift/su_max          0.002
_refine_ls_shift/su_mean         0.000
_refine_ls_structure_factor_coef Fsqd
_refine_ls_weighting_details     'w=1/[\s^2^(Fo^2^)] where P=(Fo^2^+2Fc^2^)/3'
_refine_ls_weighting_scheme      calc
_refine_ls_wR_factor_gt          0.0899
_refine_ls_wR_factor_ref         0.0964
_reflns_Friedel_coverage         0.831
_reflns_Friedel_fraction_full    0.871
_reflns_Friedel_fraction_max     0.880
_reflns_number_gt                6597
_reflns_number_total             11196
_reflns_threshold_expression     'I > 2\s(I)'
_cod_data_source_file            d2cy00387b2.cif
_cod_data_source_block           1
_cod_depositor_comments          'Adding full bibliography for 1566769.cif.'
_cod_original_cell_volume        5712.0(14)
_cod_database_code               1566769
_shelx_shelxl_version_number     2018/3
_shelx_space_group_comment
;
The symmetry employed for this shelxl refinement is uniquely defined
by the following loop, which should always be used as a source of
symmetry information in preference to the above space-group names.
They are only intended as comments.
;
_shelx_estimated_absorpt_t_max   0.453
_shelx_estimated_absorpt_t_min   0.303
_olex2_refinement_description
;
1. Twinned data refinement
 Scales: 0.804(11)
 0.196(11)
2. Fixed Uiso
 At 1.2 times of:
  All C(H) groups, All N(H) groups
 At 1.5 times of:
  All O(H,H) groups
3. Restrained distances
 C00J-C00M
 1.35 with sigma of 0.01
 C01A-C01F
 1.32 with sigma of 0.01
 C00X-C014
 1.35 with sigma of 0.01
 C00B-C00C
 1.32 with sigma of 0.01
 C00F-C00Q
 1.35 with sigma of 0.01
4. Uiso/Uaniso restraints and constraints
Uanis(C006) \\sim Ueq, Uanis(C008) \\sim Ueq, Uanis(C009) \\sim Ueq,
Uanis(C00B) \\sim Ueq, Uanis(C00C) \\sim Ueq, Uanis(C00D) \\sim Ueq,
Uanis(C00E) \\sim Ueq, Uanis(C00F) \\sim Ueq, Uanis(C00H) \\sim Ueq,
Uanis(C00J) \\sim Ueq, Uanis(C00K) \\sim Ueq, Uanis(C00L) \\sim Ueq,
Uanis(C00M) \\sim Ueq, Uanis(C00N) \\sim Ueq, Uanis(C00Q) \\sim Ueq,
Uanis(C00R) \\sim Ueq, Uanis(C00S) \\sim Ueq, Uanis(C00T) \\sim Ueq,
Uanis(C00V) \\sim Ueq, Uanis(C00W) \\sim Ueq, Uanis(C00X) \\sim Ueq,
Uanis(C00Y) \\sim Ueq, Uanis(C010) \\sim Ueq, Uanis(C011) \\sim Ueq,
Uanis(C012) \\sim Ueq, Uanis(C013) \\sim Ueq, Uanis(C014) \\sim Ueq,
Uanis(C015) \\sim Ueq, Uanis(C017) \\sim Ueq, Uanis(C018) \\sim Ueq,
Uanis(C019) \\sim Ueq, Uanis(C01A) \\sim Ueq, Uanis(C01B) \\sim Ueq,
Uanis(C01C) \\sim Ueq, Uanis(C01D) \\sim Ueq, Uanis(C01E) \\sim Ueq,
Uanis(C01F) \\sim Ueq, Uanis(C01G) \\sim Ueq, Uanis(C01H) \\sim Ueq,
Uanis(C01J) \\sim Ueq, Uanis(C01K) \\sim Ueq, Uanis(C01L) \\sim Ueq,
Uanis(C01N) \\sim Ueq, Uanis(C01O) \\sim Ueq, Uanis(C01Q) \\sim Ueq,
Uanis(C01R) \\sim Ueq, Uanis(C01T) \\sim Ueq, Uanis(C01V) \\sim Ueq,
Uanis(N004) \\sim Ueq, Uanis(N007) \\sim Ueq, Uanis(N1) \\sim Ueq, Uanis(N00Z)
\\sim Ueq, Uanis(C01J) \\sim Ueq: with sigma of 0.01 and sigma for terminal
atoms of 0.02
Uanis(O1) \\sim Ueq, Uanis(O2) \\sim Ueq, Uanis(C01J) \\sim Ueq, Uanis(O016)
\\sim Ueq, Uanis(O00I) \\sim Ueq: with sigma of 0.001 and sigma for terminal
atoms of 0.002
5.a Rotating group:
 O1(H1A,H1B)
5.b Aromatic/amide H refined with riding coordinates:
 C006(H006), N1(H1), C00E(H00E), C00F(H00F), C00H(H00H), C00K(H00K),
 C00N(H00N), C00Q(H00Q), C00S(H00S), C00V(H00V), C00Y(H00Y), N00Z(H00Z),
 C012(H012), C013(H013), C015(H015), C017(H017), C01C(H01C), C01D(H01D),
 C01F(H01F), C01G(H01G), C01L(H01L), C01N(H01N), C01O(H01O), C01R(H01R),
 C01T(H01T), C01V(H01V)
;
_smtbx_masks_void_probe_radius   1.2
_smtbx_masks_void_truncation_radius 1.2
_shelx_res_file
;
TITL 1_a.res in P2(1)2(1)2(1)
    1.res
    created by SHELXL-2018/3 at 17:12:10 on 07-Apr-2021
REM Old TITL 1_a.res in P2(1)2(1)2(1)
REM SHELXT solution in P2(1)2(1)2(1): R1 0.159, Rweak 0.023, Alpha 0.019
REM <I/s> 0.151 for 34 systematic absences, Orientation as input
REM Flack x = 0.195 ( 0.008 ) from 2143 Parsons' quotients
REM Formula found by SHELXT: C50 N15 O8 Bi
CELL 0.71073 17.3002 17.4002 18.975 90 90 90
ZERR 4 0.0029 0 0.0034 0 0 0
LATT -1
SYMM 0.5-X,-Y,0.5+Z
SYMM -X,0.5+Y,0.5-Z
SYMM 0.5+X,0.5-Y,-Z
SFAC C H N O Bi
UNIT 192 112 16 36 4
ISOR 0.01 0.02 $C $N C01J
ISOR 0.001 0.002 O1 O2 C01J O016 O00I
DFIX 1.35 0.01 C00J C00M
DFIX 1.32 0.01 C01A C01F
DFIX 1.35 0.01 C00X C014
DFIX 1.32 0.01 C00B C00C
DFIX 1.35 0.01 C00F C00Q

L.S. 10
PLAN  28
SIZE 0.5 0.4 0.3
TEMP 23
CONF
BOND
list 4
MORE -1
ABIN
BOND $H
fmap 2
acta
TWIN -1 0 0 0 -1 0 0 0 -1 2
OMIT 2 0 3
OMIT 2 0 1
OMIT 0 2 1
OMIT 1 2 0
OMIT 1 1 0
OMIT 1 0 2
OMIT 1 1 1
OMIT -1 1 1
OMIT -2 4 1
OMIT -1 1 2
OMIT -4 2 1
REM <olex2.extras>
REM <HklSrc "%.\\1.hkl">
REM </olex2.extras>

WGHT    0.000000
BASF   0.19632
FVAR       0.13050
BI01  5    1.099070    0.876392    0.650861    11.00000    0.01864    0.02236 =
         0.04848    0.00022   -0.00056    0.00046
O1    4    1.116525    0.878174    0.540625    11.00000    0.02086    0.02351 =
         0.03662   -0.00209    0.00073    0.00183
AFIX   7
H1A   2    1.083110    0.909014    0.520715    11.00000   -1.50000
H1B   2    1.160985    0.899109    0.530480    11.00000   -1.50000
AFIX   0
O2    4    1.013025   -0.032971    0.616275    11.00000    0.05210    0.05287 =
         0.05265    0.00043   -0.00052    0.00087
N004  3    0.495646    0.377173    0.613323    11.00000    0.03075    0.03508 =
         0.04367   -0.01727   -0.00651    0.01559
O005  4    0.202529    0.772815    0.644743    11.00000    0.10330    0.09354 =
         0.06795    0.03245    0.04606    0.07543
C006  1    0.846657    0.595311    0.721068    11.00000    0.02976    0.04395 =
         0.05260    0.01811    0.00227   -0.00618
AFIX  43
H006  2    0.833638    0.568933    0.762009    11.00000   -1.20000
AFIX   0
N007  3    0.730212    0.374400    0.646723    11.00000    0.03667    0.02347 =
         0.04125    0.01046   -0.00784   -0.01195
C008  1    0.774801    0.437094    0.651005    11.00000    0.02403    0.02826 =
         0.02798   -0.01077   -0.00016   -0.00756
C009  1    0.299756    0.064120    0.595798    11.00000    0.04123    0.03038 =
         0.05019   -0.00354    0.01266   -0.00714
N1    3    0.611547    0.256134    0.632510    11.00000    0.02911    0.01935 =
         0.03128   -0.00200   -0.00997    0.00203
AFIX  43
H1    2    0.611717    0.305247    0.637590    11.00000   -1.20000
AFIX   0
C00B  1    0.981960   -0.000109    0.674182    11.00000    0.05093    0.05312 =
         0.03911    0.01746   -0.01165   -0.01956
C00C  1    0.928372    0.057514    0.665951    11.00000    0.01837    0.02886 =
         0.03796   -0.00774    0.00079    0.01551
C00D  1    0.230650    0.009148    0.585617    11.00000    0.03499    0.03390 =
         0.03444   -0.01740    0.01257    0.00756
C00E  1    0.856923    0.414291    0.659085    11.00000    0.03703    0.02000 =
         0.04528    0.00860    0.00643   -0.01243
AFIX  43
H00E  2    0.899488    0.446910    0.660260    11.00000   -1.20000
AFIX   0
C00F  1    0.837918    0.616633    0.592361    11.00000    0.04188    0.06336 =
         0.05418   -0.01298    0.02417    0.00421
AFIX  43
H00F  2    0.819381    0.603825    0.547880    11.00000   -1.20000
AFIX   0
O3    4    0.202301   -0.020835    0.639399    11.00000    0.03498    0.04343 =
         0.02872    0.01363    0.00223    0.00261
C00H  1    0.895590    0.074287    0.599788    11.00000    0.04270    0.02708 =
         0.06276   -0.01910    0.00706    0.00833
AFIX  43
H00H  2    0.912673    0.048905    0.559566    11.00000   -1.20000
AFIX   0
O00I  4    1.004177   -0.023536    0.733436    11.00000    0.05522    0.05497 =
         0.05595    0.00121   -0.00522    0.00817
C00J  1    0.814150    0.176018    0.648874    11.00000    0.03846    0.02056 =
         0.05618   -0.01484   -0.00097    0.00984
C00K  1    0.901018    0.657551    0.721716    11.00000    0.04271    0.04273 =
         0.02667   -0.00370   -0.00542   -0.00614
AFIX  43
H00K  2    0.921030    0.674192    0.764569    11.00000   -1.20000
AFIX   0
C00L  1    0.989234    0.756315    0.665316    11.00000    0.03771    0.00910 =
         0.03131    0.00998   -0.00786   -0.00890
C00M  1    0.757873    0.235452    0.642720    11.00000    0.02945    0.02401 =
         0.03831    0.00744   -0.02070   -0.00105
C00N  1    0.857861    0.332902    0.664678    11.00000    0.03116    0.03405 =
         0.03929   -0.00354   -0.00904   -0.00679
AFIX  43
H00N  2    0.899570    0.300656    0.673715    11.00000   -1.20000
AFIX   0
O00O  4    0.210863   -0.007513    0.527301    11.00000    0.07680    0.09158 =
         0.05514   -0.02457    0.01133   -0.06033
O00P  4    1.008090    0.785842    0.613916    11.00000    0.02981    0.06325 =
         0.07481   -0.00199   -0.01594   -0.03158
C00Q  1    0.890527    0.676114    0.601904    11.00000    0.06185    0.05073 =
         0.02779   -0.00268    0.00660   -0.00106
AFIX  43
H00Q  2    0.902109    0.705957    0.562639    11.00000   -1.20000
AFIX   0
C00R  1    0.777889    0.312645    0.652838    11.00000    0.01610    0.03680 =
         0.04855   -0.01711   -0.00087    0.00242
C00S  1    0.833115    0.133249    0.594889    11.00000    0.03545    0.03392 =
         0.03343    0.00688   -0.02131    0.00822
AFIX  43
H00S  2    0.807060    0.139720    0.552431    11.00000   -1.20000
AFIX   0
C00T  1    0.447308    0.321103    0.610341    11.00000    0.01024    0.02483 =
         0.02881    0.01562   -0.00783   -0.00419
O00U  4    1.011648    0.780172    0.719248    11.00000    0.04824    0.05118 =
         0.07380   -0.00851    0.02377   -0.02338
C00V  1    0.572874    0.136342    0.629640    11.00000    0.02835    0.01343 =
         0.05985    0.00143    0.00604   -0.00636
AFIX  43
H00V  2    0.540023    0.094178    0.632818    11.00000   -1.20000
AFIX   0
C00W  1    0.924666    0.693780    0.659793    11.00000    0.02014    0.03790 =
         0.05988    0.00866   -0.00258   -0.00566
C00X  1    0.813433    0.575776    0.654377    11.00000    0.01709    0.03745 =
         0.05391   -0.00192   -0.00639   -0.00286
C00Y  1    0.381529    0.157316    0.542919    11.00000    0.03486    0.05118 =
         0.03363   -0.00146    0.00617   -0.02199
AFIX  43
H00Y  2    0.399174    0.180692    0.501884    11.00000   -1.20000
AFIX   0
N00Z  3    0.615119    0.497437    0.630508    11.00000    0.03885    0.02149 =
         0.05646   -0.00821    0.02222    0.01228
AFIX  43
H00Z  2    0.614253    0.448023    0.631020    11.00000   -1.20000
AFIX   0
C010  1    0.411916    0.178721    0.605871    11.00000    0.00934    0.02598 =
         0.04654   -0.01318    0.00343    0.00626
C011  1    0.673703    0.214283    0.634290    11.00000    0.02863    0.03731 =
         0.04269   -0.01051    0.01910    0.00285
C012  1    0.397756    0.613311    0.538604    11.00000    0.04391    0.04128 =
         0.06201   -0.00835    0.00896    0.00260
AFIX  43
H012  2    0.427526    0.597081    0.500605    11.00000   -1.20000
AFIX   0
C013  1    0.313034    0.659495    0.650343    11.00000    0.05153    0.05634 =
         0.04093   -0.00359    0.00070    0.01247
AFIX  43
H013  2    0.286733    0.676373    0.690188    11.00000   -1.20000
AFIX   0
C014  1    0.753147    0.520129    0.653684    11.00000    0.02667    0.02561 =
         0.03325    0.01809    0.01884    0.01099
C015  1    0.369934    0.424186    0.601870    11.00000    0.01782    0.03658 =
         0.06095   -0.00201   -0.00211    0.01085
AFIX  43
H015  2    0.326133    0.455138    0.603176    11.00000   -1.20000
AFIX   0
O016  4    0.207919    0.767223    0.519036    11.00000    0.07209    0.07085 =
         0.07139   -0.00011    0.00124    0.00801
C017  1    0.852121    0.161215    0.713275    11.00000    0.01997    0.02748 =
         0.04865   -0.00915   -0.00043   -0.00931
AFIX  43
H017  2    0.838284    0.189159    0.753105    11.00000   -1.20000
AFIX   0
C018  1    0.545709    0.214012    0.621711    11.00000    0.04123    0.02233 =
         0.04877   -0.00481    0.02380    0.00104
C019  1    0.450422    0.447068    0.608777    11.00000    0.04035    0.04212 =
         0.05282    0.00964   -0.01861    0.00694
C01A  1    0.679177    0.542542    0.637474    11.00000    0.01134    0.02545 =
         0.03739   -0.01340   -0.00699   -0.00858
C01B  1    0.473447    0.236733    0.610054    11.00000    0.01780    0.02633 =
         0.05428   -0.00160   -0.00245   -0.00041
C01C  1    0.323513    0.085962    0.661420    11.00000    0.03000    0.03793 =
         0.02808    0.01223    0.00129   -0.01366
AFIX  43
H01C  2    0.302554    0.062949    0.701316    11.00000   -1.20000
AFIX   0
C01D  1    0.649392    0.130661    0.631983    11.00000    0.05445    0.07076 =
         0.07309   -0.00328   -0.01648   -0.00429
AFIX  43
H01D  2    0.680070    0.086772    0.632162    11.00000   -1.20000
AFIX   0
C01E  1    0.469918    0.517419    0.612286    11.00000    0.02207    0.02834 =
         0.04374   -0.00400   -0.00672    0.01511
C01F  1    0.651818    0.615901    0.632820    11.00000    0.03302    0.01441 =
         0.04897   -0.00501   -0.00112   -0.00198
AFIX  43
H01F  2    0.685910    0.657219    0.633472    11.00000   -1.20000
AFIX   0
C01G  1    0.372623    0.603532    0.659889    11.00000    0.05295    0.05610 =
         0.02548    0.01937    0.00348    0.00656
AFIX  43
H01G  2    0.382133    0.583289    0.704413    11.00000   -1.20000
AFIX   0
C01H  1    0.293113    0.688331    0.590121    11.00000    0.02059    0.03593 =
         0.03914   -0.00165    0.00622    0.01110
C01J  1    0.413451    0.581003    0.606312    11.00000    0.03083    0.03108 =
         0.03187    0.00031    0.00084    0.00080
C01K  1    0.236318    0.752945    0.585585    11.00000    0.06224    0.05760 =
         0.06297    0.01664    0.00869    0.03884
C01L  1    0.574145    0.628366    0.627201    11.00000    0.04065    0.03935 =
         0.05958    0.00957   -0.00064   -0.01138
AFIX  43
H01L  2    0.545756    0.673749    0.626706    11.00000   -1.20000
AFIX   0
C01N  1    0.911736    0.103900    0.718735    11.00000    0.02912    0.02366 =
         0.05170   -0.00569   -0.01720    0.00258
AFIX  43
H01N  2    0.939279    0.099451    0.760627    11.00000   -1.20000
AFIX   0
C01O  1    0.324634    0.101226    0.538520    11.00000    0.03599    0.02520 =
         0.05377   -0.00779    0.00307   -0.02080
AFIX  43
H01O  2    0.303442    0.089270    0.494832    11.00000   -1.20000
AFIX   0
C01Q  1    0.549172    0.547194    0.622142    11.00000    0.02217    0.03577 =
         0.05006    0.00610   -0.01505    0.00591
C01R  1    0.374263    0.341574    0.592459    11.00000    0.04183    0.03572 =
         0.06052    0.00374   -0.01488    0.00184
AFIX  43
H01R  2    0.334895    0.309185    0.577235    11.00000   -1.20000
AFIX   0
C01T  1    0.378052    0.141626    0.667832    11.00000    0.04926    0.05349 =
         0.03311   -0.02311   -0.01101    0.00019
AFIX  43
H01T  2    0.394234    0.156499    0.712536    11.00000   -1.20000
AFIX   0
C01V  1    0.340809    0.667315    0.526474    11.00000    0.05799    0.04538 =
         0.05535    0.00642   -0.01403    0.00834
AFIX  43
H01V  2    0.332499    0.689089    0.482360    11.00000   -1.20000
AFIX   0
HKLF 4




REM  1_a.res in P2(1)2(1)2(1)
REM wR2 = 0.0964, GooF = S = 0.719, Restrained GooF = 0.727 for all data
REM R1 = 0.0474 for 6597 Fo > 4sig(Fo) and 0.0786 for all 11196 data
REM 561 parameters refined using 341 restraints

END

WGHT      0.0000      0.0000

REM Highest difference peak  1.210,  deepest hole -0.703,  1-sigma level  0.097
Q1    1   1.1229  0.8735  0.5901  11.00000  0.05    1.21
Q2    1   1.1262  0.8745  0.7115  11.00000  0.05    0.81
Q3    1   1.0644  0.8782  0.7084  11.00000  0.05    0.71
Q4    1   0.1579  0.8231  0.6183  11.00000  0.05    0.48
Q5    1   0.1594  0.8253  0.6771  11.00000  0.05    0.47
Q6    1   0.6562  0.1232  0.6510  11.00000  0.05    0.47
Q7    1   1.0392  0.8277  0.6682  11.00000  0.05    0.47
Q8    1   1.1061  0.8811  0.5217  11.00000  0.05    0.46
Q9    1   1.0349 -0.0806  0.6612  11.00000  0.05    0.46
Q10   1   0.3976  0.5780  0.5776  11.00000  0.05    0.45
Q11   1   0.1643 -0.0808  0.6665  11.00000  0.05    0.44
Q12   1   0.3807  0.1182  0.6020  11.00000  0.05    0.43
Q13   1   0.9051  0.0599  0.6506  11.00000  0.05    0.43
Q14   1   0.4951  0.2586  0.6582  11.00000  0.05    0.43
Q15   1   0.3993  0.1204  0.6616  11.00000  0.05    0.42
Q16   1   0.6921  0.2617  0.6523  11.00000  0.05    0.40
Q17   1   0.8004  0.5797  0.5776  11.00000  0.05    0.40
Q18   1   0.2365  0.7865  0.5388  11.00000  0.05    0.39
Q19   1   0.9022  0.3801  0.6350  11.00000  0.05    0.39
Q20   1   0.9968 -0.0391  0.6777  11.00000  0.05    0.39
Q21   1   0.9785 -0.0409  0.7442  11.00000  0.05    0.39
Q22   1   0.9394  0.0991  0.6755  11.00000  0.05    0.37
Q23   1   0.4235  0.6186  0.6132  11.00000  0.05    0.37
Q24   1   0.6201  0.6210  0.5778  11.00000  0.05    0.36
Q25   1   0.8048  0.5218  0.6558  11.00000  0.05    0.36
Q26   1   0.4603  0.1148  0.5115  11.00000  0.05    0.36
Q27   1   0.5948  0.0999  0.4358  11.00000  0.05    0.36
Q28   1   0.6569  0.5152  0.6548  11.00000  0.05    0.35
;
_shelx_res_checksum              52760
_shelx_fab_file
;
-22 -3 -1 0.7093 0.8288
-22 -2 -2 4.5085 1.3520
-22 -2 -1 -5.8205 3.1438
-22 -1 -3 5.1012 -5.0305
-22 -1 -2 6.5042 3.2689
-22 -1 -1 0.7903 -5.7931
-21 -7 -2 -3.5903 3.5168
-21 -7 -1 -2.8578 1.8719
-21 -6 -4 -0.4165 -0.6099
-21 -6 -3 -0.4378 -1.8172
-21 -6 -2 -2.5235 -4.6156
-21 -6 -1 3.3190 0.4944
-21 -5 -5 -4.2705 1.6325
-21 -5 -4 0.2686 2.6977
-21 -5 -3 -3.2590 5.2999
-21 -5 -2 -2.8342 -1.5259
-21 -5 -1 4.3383 2.8951
-21 -4 -6 0.5838 -0.2715
-21 -4 -5 -1.4614 -2.1051
-21 -4 -4 4.9879 1.6846
-21 -4 -3 1.3003 5.1473
-21 -4 -2 5.5188 3.7810
-21 -4 -1 7.1692 0.6359
-21 -3 -7 -1.7413 -1.2048
-21 -3 -6 -9.6948 0.9476
-21 -3 -5 2.9766 3.0929
-21 -3 -4 2.4808 -0.4440
-21 -3 -3 -1.5927 -3.3234
-21 -3 -2 -0.3287 -3.2266
-21 -3 -1 -2.0912 -6.3920
-21 -2 -7 0.7454 1.3743
-21 -2 -6 1.5427 2.9771
-21 -2 -5 -0.4208 13.5321
-21 -2 -4 -1.3395 1.9397
-21 -2 -3 -2.6581 -0.1901
-21 -2 -2 4.9499 -4.8535
-21 -2 -1 4.2669 5.6043
-21 -1 -8 -1.9467 -6.1864
-21 -1 -7 -1.4858 5.5079
-21 -1 -6 2.8861 4.7605
-21 -1 -5 -7.7504 3.7935
-21 -1 -4 1.7161 -0.4834
-21 -1 -3 3.0777 -7.9654
-21 -1 -2 -1.3624 -3.1926
-21 -1 -1 2.0248 3.6658
-20 -9 -4 -8.5279 -1.7153
-20 -9 -3 2.3669 -3.3112
-20 -9 -2 0.7903 -1.1675
-20 -9 -1 -0.4451 -2.6457
-20 -8 -6 7.4171 -3.8676
-20 -8 -5 -0.3252 1.2953
-20 -8 -4 5.7459 -2.0729
-20 -8 -3 1.3604 -2.5372
-20 -8 -2 1.9792 4.5184
-20 -8 -1 -3.7546 0.5846
-20 -7 -7 0.3146 0.8367
-20 -7 -6 3.4424 -1.4672
-20 -7 -5 -4.0841 -2.4720
-20 -7 -4 2.1042 -2.6661
-20 -7 -3 2.3361 -2.5868
-20 -7 -2 -5.3053 -2.1057
-20 -7 -1 -1.1897 -10.6617
-20 -6 -8 3.8555 1.3644
-20 -6 -7 -4.4038 -3.1180
-20 -6 -6 -1.4858 0.1222
-20 -6 -5 -2.6914 1.2101
-20 -6 -4 -6.5358 1.9927
-20 -6 -3 -4.7463 3.2762
-20 -6 -2 -4.6577 6.7979
-20 -6 -1 -3.0392 5.2805
-20 -5 -9 -0.0625 -1.7639
-20 -5 -8 1.8983 4.5020
-20 -5 -7 -2.1693 -1.3289
-20 -5 -6 -2.8627 0.5368
-20 -5 -5 -4.1655 0.9645
-20 -5 -4 -6.7184 -1.3036
-20 -5 -3 4.1821 1.7694
-20 -5 -2 1.6585 -3.2006
-20 -5 -1 3.4524 0.2522
-20 -4 -9 -5.1340 4.0260
-20 -4 -8 0.0130 -2.2068
-20 -4 -7 -10.9966 -1.7031
-20 -4 -6 -4.0619 4.9000
-20 -4 -5 -0.5261 9.7904
-20 -4 -4 -1.7124 1.2399
-20 -4 -3 -0.1823 -0.6187
-20 -4 -2 4.2628 3.3137
-20 -4 -1 2.9289 -5.5077
-20 -3 -10 0.1538 5.8792
-20 -3 -9 4.9303 3.5799
-20 -3 -8 -4.4611 -0.2970
-20 -3 -7 3.1420 6.6396
-20 -3 -6 -0.6086 -1.3084
-20 -3 -5 7.7432 3.7973
-20 -3 -4 5.6451 10.4479
-20 -3 -3 0.3552 0.3868
-20 -3 -2 2.1648 4.6995
-20 -3 -1 3.8317 2.5516
-20 -2 -10 -2.5781 4.3790
-20 -2 -9 1.1271 3.8103
-20 -2 -8 -6.7500 0.4155
-20 -2 -7 -1.7413 2.6987
-20 -2 -6 3.3875 7.7462
-20 -2 -5 6.5349 -2.4186
-20 -2 -4 -1.4553 0.9163
-20 -2 -3 1.5381 -2.4122
-20 -2 -2 0.7389 -2.9161
-20 -2 -1 1.0314 8.8399
-20 -1 -10 -1.2765 -3.2175
-20 -1 -9 6.3522 -3.1048
-20 -1 -8 -7.4404 -2.1056
-20 -1 -7 -4.6211 0.6552
-20 -1 -6 9.0956 0.8395
-20 -1 -5 3.0625 2.0454
-20 -1 -4 -1.1017 0.1430
-20 -1 -3 15.9853 -7.1666
-20 -1 -2 -7.4991 0.5241
-20 -1 -1 7.5862 -2.4619
-19 -11 -3 1.9727 -0.6674
-19 -11 -2 -9.5594 -2.8249
-19 -11 -1 -0.0272 2.0941
-19 -10 -6 -3.0191 0.7146
-19 -10 -5 -5.6249 1.8877
-19 -10 -4 0.2532 3.2339
-19 -10 -3 -5.9933 -0.1505
-19 -10 -2 -3.9443 -0.9036
-19 -10 -1 1.5674 0.9156
-19 -9 -8 1.0391 8.9092
-19 -9 -7 -3.3856 1.4755
-19 -9 -6 -0.0442 -2.1005
-19 -9 -5 3.7413 3.8560
-19 -9 -4 1.4424 -6.0164
-19 -9 -3 -2.6866 -2.6280
-19 -9 -2 -1.0706 4.4464
-19 -9 -1 2.6667 8.8989
-19 -8 -9 -5.2775 -8.5022
-19 -8 -8 -0.5280 -3.9930
-19 -8 -7 0.2428 1.6031
-19 -8 -6 -2.3133 2.2154
-19 -8 -5 -0.7418 5.0184
-19 -8 -4 1.7060 1.4747
-19 -8 -3 -6.2660 -3.8274
-19 -8 -2 4.3384 -5.0855
-19 -8 -1 0.9602 0.1683
-19 -7 -10 -2.4642 -2.0570
-19 -7 -9 -0.4549 1.2914
-19 -7 -8 1.1497 -2.8517
-19 -7 -7 -3.4936 -0.2434
-19 -7 -6 6.0185 -2.2306
-19 -7 -5 -2.7364 -3.2543
-19 -7 -4 -2.0914 4.6286
-19 -7 -3 -3.7215 -2.4718
-19 -7 -2 -1.6378 7.6728
-19 -7 -1 1.4821 0.6421
-19 -6 -10 5.1185 -5.7935
-19 -6 -9 3.8996 0.8745
-19 -6 -8 5.4038 5.5448
-19 -6 -7 3.6751 1.8800
-19 -6 -6 -4.5296 2.7436
-19 -6 -5 4.0712 -5.0255
-19 -6 -4 -0.7203 9.0074
-19 -6 -3 -7.3921 -0.5328
-19 -6 -2 1.5173 -3.6020
-19 -6 -1 2.5717 -2.7131
-19 -5 -11 1.4163 -2.2062
-19 -5 -10 -0.0516 -2.5889
-19 -5 -9 4.9731 -5.1607
-19 -5 -8 -7.5709 -4.3768
-19 -5 -7 1.5234 -1.1673
-19 -5 -6 -4.9722 0.0083
-19 -5 -5 -0.5665 2.7797
-19 -5 -4 1.5592 5.4668
-19 -5 -3 -4.0926 3.3517
-19 -5 -2 7.4326 -0.4507
-19 -5 -1 -2.5151 1.7383
-19 -4 -11 -3.4272 0.4441
-19 -4 -10 5.9835 4.0825
-19 -4 -9 4.6630 -3.3129
-19 -4 -8 0.4971 2.5530
-19 -4 -7 1.2162 0.8479
-19 -4 -6 -2.0780 2.0140
-19 -4 -5 -2.5018 6.9997
-19 -4 -4 -2.2253 1.5214
-19 -4 -3 1.5032 -5.0132
-19 -4 -2 6.6448 0.3455
-19 -4 -1 6.0383 -1.9587
-19 -3 -12 4.8251 -2.5020
-19 -3 -11 -1.2591 4.8752
-19 -3 -10 -2.4454 2.5465
-19 -3 -9 4.7476 3.6736
-19 -3 -8 -4.8143 4.2464
-19 -3 -7 0.2153 14.0917
-19 -3 -6 -2.1519 3.0040
-19 -3 -5 -5.7336 5.1719
-19 -3 -4 1.9467 1.5158
-19 -3 -3 2.4897 0.6496
-19 -3 -2 4.6434 -5.2972
-19 -3 -1 -0.0021 1.9364
-19 -2 -12 -0.0493 5.0412
-19 -2 -11 0.9165 7.2664
-19 -2 -10 3.8489 -3.7194
-19 -2 -9 1.5147 -1.4432
-19 -2 -8 2.3447 5.7140
-19 -2 -7 -0.1794 -4.9357
-19 -2 -6 1.3971 -0.1195
-19 -2 -5 -0.0140 -2.4097
-19 -2 -4 3.1013 -2.0882
-19 -2 -3 -1.3542 4.0017
-19 -2 -2 2.7708 -2.1831
-19 -2 -1 5.5408 2.3181
-19 -1 -12 0.8379 6.6706
-19 -1 -11 2.7335 -4.9711
-19 -1 -10 -1.6379 1.1761
-19 -1 -9 -4.6679 -4.6220
-19 -1 -8 -0.5952 -0.3106
-19 -1 -7 -5.6255 11.2275
-19 -1 -6 6.7842 0.2288
-19 -1 -5 8.6264 1.3032
-19 -1 -4 -4.5276 0.6664
-19 -1 -3 0.7053 -11.6820
-19 -1 -2 -10.2205 -4.5188
-19 -1 -1 -2.1551 5.8169
-18 -13 -1 3.3999 -0.7878
-18 -12 -5 6.4434 1.6796
-18 -12 -4 4.1155 3.6061
-18 -12 -3 -2.5132 -1.7214
-18 -12 -1 -5.8535 -3.3362
-18 -11 -7 -5.6865 -0.6872
-18 -11 -6 3.6270 -2.6726
-18 -11 -5 3.5880 5.9691
-18 -11 -4 -1.3652 4.7672
-18 -11 -3 -10.2428 2.3612
-18 -11 -2 -1.8216 -1.9757
-18 -11 -1 4.8137 -1.9484
-18 -10 -9 -1.8621 9.8009
-18 -10 -8 -2.0433 1.0957
-18 -10 -7 8.8665 7.6146
-18 -10 -6 2.0899 5.9561
-18 -10 -5 7.2161 -1.2595
-18 -10 -4 -6.8072 -5.9206
-18 -10 -3 -3.2813 -1.7713
-18 -10 -2 -2.5224 -0.4441
-18 -10 -1 7.6546 0.3935
-18 -9 -10 -0.4626 -4.6166
-18 -9 -9 5.2410 -4.4142
-18 -9 -8 -3.0127 -0.5291
-18 -9 -7 -4.3939 5.3334
-18 -9 -6 2.5350 0.4387
-18 -9 -5 -1.1151 6.0199
-18 -9 -4 -3.1402 -3.0253
-18 -9 -3 -4.1445 3.0727
-18 -9 -2 3.9567 3.1792
-18 -9 -1 -0.3473 -8.4898
-18 -8 -11 -3.4693 -10.4079
-18 -8 -10 4.6644 -5.3347
-18 -8 -9 -3.1136 0.8434
-18 -8 -8 -2.3239 -6.5746
-18 -8 -7 0.2543 -0.1281
-18 -8 -6 -8.4120 -9.7612
-18 -8 -5 -10.1135 -8.3340
-18 -8 -4 6.5018 -7.6881
-18 -8 -3 3.2553 1.2394
-18 -8 -1 -2.5550 -0.1440
-18 -7 -12 -1.0249 2.1496
-18 -7 -11 -1.7149 -8.1557
-18 -7 -10 -6.6799 -4.6337
-18 -7 -9 1.6235 7.3672
-18 -7 -8 -1.0268 4.4335
-18 -7 -7 -3.4268 0.5963
-18 -7 -6 1.9560 -0.0041
-18 -7 -5 -4.6290 1.0232
-18 -7 -4 -1.0700 1.7492
-18 -7 -2 -1.4114 -1.7949
-18 -7 -1 1.8597 -3.8308
-18 -6 -12 0.5635 0.8020
-18 -6 -11 1.1937 -1.3263
-18 -6 -10 -2.5416 0.6860
-18 -6 -9 -3.8666 -4.9462
-18 -6 -8 -7.5339 3.1473
-18 -6 -7 -4.1433 -1.9012
-18 -6 -6 -10.4885 0.6606
-18 -6 -5 3.4113 4.7765
-18 -6 -4 3.9676 1.6892
-18 -6 -3 0.1307 8.8050
-18 -6 -2 -2.6901 -3.4240
-18 -6 -1 5.4325 5.5411
-18 -5 -13 2.2354 -5.0351
-18 -5 -12 -1.9408 -6.0786
-18 -5 -11 -1.3933 -2.2310
-18 -5 -10 3.2534 4.4103
-18 -5 -9 10.0784 -1.3924
-18 -5 -8 -2.0896 0.3162
-18 -5 -7 1.4960 -7.4566
-18 -5 -6 2.4820 9.0385
-18 -5 -5 2.3244 5.6256
-18 -5 -4 0.2833 -0.3938
-18 -5 -3 4.2309 5.5463
-18 -5 -2 0.0057 -5.6555
-18 -5 -1 5.8099 -1.6169
-18 -4 -13 0.2198 -0.9963
-18 -4 -12 4.5608 0.5917
-18 -4 -11 6.1468 -2.3918
-18 -4 -10 0.2874 -2.0766
-18 -4 -9 -2.9936 0.4897
-18 -4 -8 3.9516 -0.7494
-18 -4 -7 -2.5016 4.2788
-18 -4 -6 -1.5535 1.9286
-18 -4 -5 5.4722 8.9646
-18 -4 -4 -0.0121 6.8476
-18 -4 -3 5.4285 -5.4835
-18 -4 -2 1.5966 0.8434
-18 -4 -1 3.9248 -2.3776
-18 -3 -14 1.8171 -6.9441
-18 -3 -13 -5.8395 -6.5977
-18 -3 -12 -4.8001 -4.5771
-18 -3 -11 7.5985 0.0705
-18 -3 -10 4.8702 0.6734
-18 -3 -9 1.0128 -0.2748
-18 -3 -8 7.5394 -16.0699
-18 -3 -6 3.8464 3.0265
-18 -3 -5 3.1670 -2.6805
-18 -3 -4 -3.5874 0.9166
-18 -3 -3 5.9204 -4.5689
-18 -3 -2 -5.6626 6.0419
-18 -3 -1 2.1561 -3.7197
-18 -2 -14 -2.2213 -6.4288
-18 -2 -13 -5.2319 -0.2858
-18 -2 -12 -2.5399 0.0631
-18 -2 -11 -5.2061 4.2698
-18 -2 -10 1.2411 1.8351
-18 -2 -9 4.1913 0.2756
-18 -2 -8 -0.0375 6.7903
-18 -2 -7 -0.5855 8.3005
-18 -2 -6 -6.1398 0.2580
-18 -2 -5 0.6726 0.6548
-18 -2 -4 1.5802 -7.6633
-18 -2 -3 2.3528 -6.5048
-18 -2 -2 1.2540 -1.2041
-18 -2 -1 2.4885 6.3811
-18 -1 -14 -0.8417 5.0701
-18 -1 -13 -0.0183 -0.6138
-18 -1 -12 12.1891 -0.7680
-18 -1 -11 -1.2879 -10.2459
-18 -1 -10 -2.8253 -9.5233
-18 -1 -9 -0.4075 1.8916
-18 -1 -8 -4.2572 4.1075
-18 -1 -7 -5.2576 6.3033
-18 -1 -6 2.3182 5.6141
-18 -1 -5 -8.6826 -20.6850
-18 -1 -4 1.0466 -0.6194
-18 -1 -3 -0.5058 0.2247
-18 -1 -2 -2.5463 0.5272
-18 -1 -1 4.9444 8.3956
-17 -14 -3 -4.2237 -0.7944
-17 -14 -2 5.5289 6.3502
-17 -14 -1 -0.7758 -2.4077
-17 -13 -6 0.5014 -0.5854
-17 -13 -5 0.7640 -5.7434
-17 -13 -4 6.5808 -6.3232
-17 -13 -3 0.5820 6.9885
-17 -13 -2 -4.6641 2.1701
-17 -13 -1 -0.6393 4.9454
-17 -12 -8 -0.9684 -1.0207
-17 -12 -7 -3.0478 1.3531
-17 -12 -6 -5.7947 -3.2419
-17 -12 -5 3.3733 -5.1559
-17 -12 -4 -1.3791 -1.2513
-17 -12 -3 -3.3728 7.6167
-17 -12 -2 -2.7233 2.4414
-17 -12 -1 -7.4328 -5.9803
-17 -11 -10 -3.4775 1.0609
-17 -11 -9 -2.0871 -0.4728
-17 -11 -8 -0.6310 5.0961
-17 -11 -7 2.7968 5.6687
-17 -11 -6 6.8740 -0.3417
-17 -11 -5 1.8369 -1.9577
-17 -11 -4 -1.5623 6.5995
-17 -11 -3 -10.3121 12.3421
-17 -11 -2 0.0330 -4.1965
-17 -11 -1 -2.5291 0.1499
-17 -10 -11 -5.2489 7.6389
-17 -10 -10 2.5820 0.1851
-17 -10 -9 -1.3008 -4.6704
-17 -10 -8 -2.2580 6.4394
-17 -10 -7 -1.1237 -1.5377
-17 -10 -6 7.3705 9.7323
-17 -10 -5 4.1801 7.7400
-17 -10 -4 -7.2489 4.3071
-17 -10 -3 -0.5690 1.9651
-17 -10 -1 0.2445 0.8634
-17 -9 -12 -4.5404 4.6680
-17 -9 -11 4.2369 -1.8078
-17 -9 -10 -4.2095 6.2017
-17 -9 -9 8.4459 -6.3575
-17 -9 -8 6.2692 10.2616
-17 -9 -7 4.4775 -7.7868
-17 -9 -6 -5.9166 1.3890
-17 -9 -5 -4.6102 2.2087
-17 -9 -4 -3.0010 -1.5977
-17 -9 -3 -1.9728 -6.0968
-17 -9 -2 7.3905 -5.5995
-17 -9 -1 -0.4555 2.5067
-17 -8 -13 -2.9295 6.9712
-17 -8 -12 -4.5794 -0.1108
-17 -8 -11 -4.7933 -7.3694
-17 -8 -10 1.3238 -1.0444
-17 -8 -9 -3.2232 -1.7174
-17 -8 -8 1.5911 5.4498
-17 -8 -7 11.6188 9.9116
-17 -8 -6 7.1203 3.3073
-17 -8 -5 -3.3808 0.7119
-17 -8 -4 3.4798 -2.8001
-17 -8 -3 0.5681 4.3488
-17 -8 -2 -0.2683 1.4977
-17 -8 -1 -7.4562 0.1776
-17 -7 -13 -4.5436 1.0663
-17 -7 -12 1.0563 -4.7353
-17 -7 -11 -2.3128 2.9016
-17 -7 -10 0.8390 -6.0184
-17 -7 -9 6.1447 -1.6998
-17 -7 -8 -1.9408 8.5127
-17 -7 -7 -9.7413 -3.4990
-17 -7 -6 -0.1330 8.3345
-17 -7 -5 1.7430 -6.6573
-17 -7 -4 -6.3645 2.3937
-17 -7 -3 6.1760 -6.2252
-17 -7 -2 -2.0111 3.4622
-17 -7 -1 2.3933 -2.9699
-17 -6 -14 0.9745 1.3447
-17 -6 -13 -1.1617 -3.3599
-17 -6 -12 -5.8995 -6.8980
-17 -6 -11 1.8365 -1.0594
-17 -6 -10 4.8935 -2.1189
-17 -6 -9 3.2659 -6.0456
-17 -6 -8 7.4836 -3.8682
-17 -6 -7 3.1183 3.6519
-17 -6 -6 -6.0102 -4.5638
-17 -6 -5 6.0792 -0.8146
-17 -6 -4 -0.7454 0.6247
-17 -6 -3 0.6215 -1.3053
-17 -6 -2 2.5784 0.2615
-17 -6 -1 -4.7054 -5.9813
-17 -5 -14 -5.1004 3.4251
-17 -5 -13 -1.5762 2.9209
-17 -5 -12 -0.4416 5.4819
-17 -5 -11 3.3964 1.8771
-17 -5 -10 -6.0364 0.0009
-17 -5 -9 -5.5846 2.4857
-17 -5 -8 -7.8582 3.7574
-17 -5 -7 -5.0375 -0.8867
-17 -5 -6 -2.9846 2.3986
-17 -5 -5 -3.3726 -2.4365
-17 -5 -4 -2.9631 -1.5318
-17 -5 -3 4.0646 -6.0563
-17 -5 -2 -2.5464 10.1290
-17 -5 -1 -6.1056 2.2933
-17 -4 -15 2.2369 2.7157
-17 -4 -14 3.7330 -0.0163
-17 -4 -13 -4.9943 -7.1358
-17 -4 -12 -0.9551 2.9847
-17 -4 -11 5.8564 -2.6934
-17 -4 -10 9.2340 -6.4406
-17 -4 -9 7.9836 -3.1089
-17 -4 -8 -3.5552 -3.0312
-17 -4 -7 3.5848 1.5309
-17 -4 -6 3.3622 5.0780
-17 -4 -5 7.3720 3.2124
-17 -4 -4 2.1083 1.9655
-17 -4 -3 0.1391 8.3999
-17 -4 -2 4.4634 -3.3024
-17 -4 -1 0.3108 1.5266
-17 -3 -15 3.7920 -2.8693
-17 -3 -14 1.1351 -2.8226
-17 -3 -13 -0.2626 -2.5959
-17 -3 -12 0.8506 0.4156
-17 -3 -11 -3.6322 -1.2449
-17 -3 -10 -1.0729 -6.5643
-17 -3 -9 -0.0607 0.9830
-17 -3 -8 4.3869 3.0993
-17 -3 -7 2.1061 2.4927
-17 -3 -6 2.7457 7.5137
-17 -3 -5 -6.0240 1.7484
-17 -3 -4 5.1013 -4.8505
-17 -3 -3 -1.8158 1.5699
-17 -3 -2 2.2292 -5.7770
-17 -3 -1 -0.0054 -6.5140
-17 -2 -15 3.2671 -0.3088
-17 -2 -14 -7.4015 -4.5339
-17 -2 -13 -1.0407 -1.2288
-17 -2 -12 -0.3467 2.8027
-17 -2 -11 6.4536 -0.1767
-17 -2 -10 4.8394 3.7888
-17 -2 -9 -6.0733 -1.2375
-17 -2 -8 -6.1294 2.1505
-17 -2 -7 -0.4942 -3.2235
-17 -2 -6 -5.5988 4.6425
-17 -2 -4 -4.7851 1.9384
-17 -2 -3 -1.8777 1.3207
-17 -2 -2 1.7554 -1.1462
-17 -2 -1 -0.8919 -0.6420
-17 -1 -15 -6.3604 1.0961
-17 -1 -14 6.3141 -0.9324
-17 -1 -13 -4.3432 -7.2841
-17 -1 -12 0.8035 -5.1006
-17 -1 -11 12.0541 -2.9651
-17 -1 -10 -14.7618 1.2529
-17 -1 -9 -3.1011 8.5161
-17 -1 -8 7.2362 2.7451
-17 -1 -7 -8.4798 -7.1091
-17 -1 -6 11.2488 -0.9996
-17 -1 -5 3.0268 0.6927
-17 -1 -4 -7.8417 -10.2888
-17 -1 -1 -3.4408 6.4280
-16 -15 -4 -0.2347 1.6078
-16 -15 -3 1.3004 1.0201
-16 -15 -2 -1.7908 -1.6499
-16 -15 -1 -4.9857 -4.9495
-16 -14 -7 2.4926 3.5179
-16 -14 -6 2.5061 -2.6504
-16 -14 -5 3.4136 1.7914
-16 -14 -4 -4.2913 -4.8019
-16 -14 -3 3.6598 -2.3951
-16 -14 -2 4.3573 2.8473
-16 -14 -1 2.5556 7.1699
-16 -13 -9 -3.5794 -2.1086
-16 -13 -8 -3.2088 0.9358
-16 -13 -7 0.8826 -0.2401
-16 -13 -6 2.6377 -0.4344
-16 -13 -5 2.2732 -5.5103
-16 -13 -4 -2.7331 -3.8930
-16 -13 -3 4.8251 0.5114
-16 -13 -2 -5.9120 -4.6292
-16 -13 -1 1.6294 3.7537
-16 -12 -10 2.3078 -0.9706
-16 -12 -9 -4.8324 2.6149
-16 -12 -8 6.6375 2.8448
-16 -12 -7 -1.9034 -4.5321
-16 -12 -6 5.4968 -0.9849
-16 -12 -5 -5.8091 -3.6753
-16 -12 -4 -2.5917 1.8218
-16 -12 -3 6.3939 4.4151
-16 -12 -2 -4.6627 5.7696
-16 -12 -1 -4.0141 2.3974
-16 -11 -11 7.3518 -4.5756
-16 -11 -10 2.6986 -3.5694
-16 -11 -9 -1.8070 0.6614
-16 -11 -8 6.3577 -3.8555
-16 -11 -7 -1.7627 -3.2717
-16 -11 -6 1.2539 -2.2021
-16 -11 -4 1.9494 2.1917
-16 -11 -3 0.5702 1.5067
-16 -11 -2 -3.5324 -0.8446
-16 -11 -1 2.3455 3.3036
-16 -10 -12 5.2895 2.9339
-16 -10 -11 0.2428 2.1415
-16 -10 -10 0.5490 -3.8065
-16 -10 -9 1.4472 4.6244
-16 -10 -8 2.8555 -3.0625
-16 -10 -7 1.7101 -3.7457
-16 -10 -6 -5.4632 -5.5261
-16 -10 -5 -1.8586 -0.7913
-16 -10 -4 -2.5048 -6.1952
-16 -10 -3 -2.0476 4.3731
-16 -10 -2 -2.9602 -1.8736
-16 -10 -1 -1.8610 3.7561
-16 -9 -13 -4.9473 6.7089
-16 -9 -12 1.4562 -0.1080
-16 -9 -11 4.6204 3.1910
-16 -9 -10 -9.5318 2.0619
-16 -9 -9 -1.1304 -6.0409
-16 -9 -8 2.2270 -1.3501
-16 -9 -7 0.8308 2.4695
-16 -9 -6 4.0255 -3.0922
-16 -9 -4 2.7875 5.1274
-16 -9 -3 0.1622 -3.1217
-16 -9 -2 1.9663 6.7477
-16 -9 -1 -0.9115 -2.8019
-16 -8 -14 -3.2261 1.7473
-16 -8 -13 2.7614 3.8880
-16 -8 -12 3.4719 5.4612
-16 -8 -11 -10.1579 -12.2717
-16 -8 -10 3.0406 5.2173
-16 -8 -9 -4.7532 4.3479
-16 -8 -8 -0.4919 -7.1640
-16 -8 -7 -3.5500 2.2884
-16 -8 -6 -3.3962 0.4987
-16 -8 -5 -3.5353 -2.4085
-16 -8 -4 -3.4598 2.5743
-16 -8 -3 -1.4173 -4.7317
-16 -8 -2 0.0945 -3.8601
-16 -8 -1 -0.0045 -2.9528
-16 -7 -15 0.8676 0.5485
-16 -7 -14 -4.2393 3.3047
-16 -7 -13 -2.0061 -2.9757
-16 -7 -12 1.6623 2.2883
-16 -7 -11 2.3459 0.1675
-16 -7 -10 -1.9236 -3.6160
-16 -7 -9 10.7490 6.3488
-16 -7 -8 7.1500 0.1854
-16 -7 -7 3.2034 -2.6447
-16 -7 -6 4.4680 6.3811
-16 -7 -5 4.5050 -1.7735
-16 -7 -4 -4.5714 6.1696
-16 -7 -3 0.9262 -2.9060
-16 -7 -2 -0.6663 -1.0431
-16 -7 -1 2.8588 1.3094
-16 -6 -15 -4.1902 0.9800
-16 -6 -14 2.4038 -0.2504
-16 -6 -13 -1.2880 3.9772
-16 -6 -12 -3.8824 -3.1986
-16 -6 -11 1.2957 -2.7536
-16 -6 -10 -1.3193 3.4325
-16 -6 -9 2.1161 2.2933
-16 -6 -8 -2.3599 3.4771
-16 -6 -7 -0.4543 4.4856
-16 -6 -6 -4.5845 0.5973
-16 -6 -5 0.3545 -1.8609
-16 -6 -4 -1.1450 -1.1269
-16 -6 -3 0.6295 -3.6493
-16 -6 -2 0.0127 -2.3130
-16 -6 -1 2.7134 7.4653
-16 -5 -16 -3.1592 -6.5025
-16 -5 -15 -3.9048 -0.8532
-16 -5 -14 -6.5346 -2.8396
-16 -5 -13 -0.3289 0.3917
-16 -5 -12 4.0547 3.2153
-16 -5 -11 -5.0238 -6.2274
-16 -5 -10 -3.0235 -0.7791
-16 -5 -9 -2.7161 -7.2026
-16 -5 -8 6.1198 -5.4261
-16 -5 -7 0.7826 6.0226
-16 -5 -6 5.7755 -0.4628
-16 -5 -5 1.2236 -2.9409
-16 -5 -4 -2.9169 -6.5490
-16 -5 -3 3.3098 1.6914
-16 -5 -2 4.6876 -1.4035
-16 -5 -1 -3.7858 3.7482
-16 -4 -16 -2.0870 -1.3397
-16 -4 -15 -1.0895 -1.8556
-16 -4 -14 -1.5306 2.8729
-16 -4 -13 -4.2129 2.1695
-16 -4 -12 0.1630 -1.9528
-16 -4 -11 7.7460 2.6430
-16 -4 -10 1.5048 -2.7915
-16 -4 -9 -3.0499 -2.5662
-16 -4 -8 6.3889 -5.1807
-16 -4 -7 -2.0731 -2.5170
-16 -4 -6 3.8795 5.8450
-16 -4 -5 1.3637 3.3869
-16 -4 -4 0.8076 -6.5380
-16 -4 -3 -0.8735 -1.8987
-16 -4 -2 -2.3489 0.4340
-16 -4 -1 -4.6226 -3.3836
-16 -3 -16 -0.3633 8.3537
-16 -3 -15 -5.3243 4.2228
-16 -3 -14 -0.7477 -2.6232
-16 -3 -13 -7.9150 2.0562
-16 -3 -12 -8.3293 -0.3041
-16 -3 -11 -7.1627 -2.2151
-16 -3 -10 2.7047 -0.8173
-16 -3 -9 8.2006 4.2576
-16 -3 -8 2.1506 6.0411
-16 -3 -7 -11.6350 3.8517
-16 -3 -6 1.8535 -6.3945
-16 -3 -5 -6.2611 -0.1043
-16 -3 -4 2.5404 -3.9071
-16 -3 -3 8.0418 5.3151
-16 -3 -1 -0.8526 5.5097
-16 -2 -16 -3.3963 1.2586
-16 -2 -15 1.2703 -1.5398
-16 -2 -14 -2.6399 3.6844
-16 -2 -13 1.8783 7.4560
-16 -2 -12 3.9905 6.0390
-16 -2 -11 0.9918 -0.2803
-16 -2 -10 1.3269 1.2349
-16 -2 -9 3.7874 -1.1408
-16 -2 -8 2.3258 -1.8590
-16 -2 -7 0.4251 9.3407
-16 -2 -6 -7.3608 0.1459
-16 -2 -4 -8.0245 1.9998
-16 -2 -2 6.6527 2.9659
-16 -2 -1 -3.8573 1.3524
-16 -1 -16 2.7693 -2.3345
-16 -1 -15 3.6602 -0.3437
-16 -1 -14 0.9234 2.4222
-16 -1 -13 11.0979 -0.5024
-16 -1 -12 -10.1454 4.2103
-16 -1 -11 -1.8558 -4.8940
-16 -1 -10 -2.2093 -2.7515
-16 -1 -9 -8.3523 3.9585
-16 -1 -8 0.0936 1.4894
-16 -1 -7 9.6127 -0.9382
-16 -1 -6 -8.4036 12.5373
-16 -1 -4 -4.2270 1.2347
-16 -1 -3 -15.4740 -1.8720
-16 -1 -2 8.7848 -2.3801
-16 -1 -1 2.5315 0.0684
-15 -16 -4 0.6646 -2.7787
-15 -16 -3 3.0246 -2.4963
-15 -16 -2 5.8654 2.1694
-15 -16 -1 -1.6222 0.7593
-15 -15 -7 -1.6713 0.4981
-15 -15 -6 -1.5069 2.7727
-15 -15 -5 -1.7079 -5.0928
-15 -15 -4 -2.9069 -5.8449
-15 -15 -3 -0.3041 1.3105
-15 -15 -2 0.3625 -5.7391
-15 -15 -1 1.3633 -1.5566
-15 -14 -9 -4.7084 7.5185
-15 -14 -8 -3.2367 -3.2868
-15 -14 -7 1.6403 1.8941
-15 -14 -6 2.2978 -2.3679
-15 -14 -5 -2.5411 -4.0850
-15 -14 -4 1.2580 -0.4667
-15 -14 -3 -2.3391 -7.1746
-15 -14 -2 -10.9027 3.1505
-15 -14 -1 0.8092 7.0296
-15 -13 -11 -2.8778 -4.6563
-15 -13 -10 -8.0072 1.1825
-15 -13 -9 1.5904 5.2109
-15 -13 -8 1.9534 -2.5495
-15 -13 -7 -3.6263 5.6670
-15 -13 -6 -0.5649 -6.1925
-15 -13 -5 -5.6007 -0.3406
-15 -13 -4 -4.5637 9.4311
-15 -13 -3 6.0632 2.1669
-15 -13 -2 0.0860 -2.9309
-15 -13 -1 1.3475 -0.2486
-15 -12 -12 -1.0918 6.3807
-15 -12 -11 -1.8975 -3.9860
-15 -12 -10 0.4924 -3.3624
-15 -12 -9 0.3831 1.7892
-15 -12 -8 1.0710 -3.5972
-15 -12 -7 -0.5067 -0.7409
-15 -12 -6 2.8853 -6.4295
-15 -12 -5 -2.6935 1.0851
-15 -12 -4 -1.7723 -2.6650
-15 -12 -3 -7.7889 4.6624
-15 -12 -2 1.2285 8.1859
-15 -12 -1 1.5798 -2.3974
-15 -11 -13 3.1507 0.8565
-15 -11 -12 0.8827 4.4274
-15 -11 -11 -1.2686 -1.4088
-15 -11 -10 5.3078 5.0368
-15 -11 -9 1.3206 -3.0397
-15 -11 -8 -3.3253 -0.9866
-15 -11 -7 -0.9390 -0.3738
-15 -11 -6 2.7831 0.2993
-15 -11 -5 0.1064 6.1629
-15 -11 -4 -0.5797 1.7159
-15 -11 -3 -1.4513 -6.2236
-15 -11 -2 -0.8639 -3.5324
-15 -11 -1 0.5843 6.9454
-15 -10 -14 -1.7536 -3.8015
-15 -10 -13 3.1273 1.2959
-15 -10 -12 1.1196 -0.8502
-15 -10 -11 -0.8643 -7.3337
-15 -10 -10 7.4676 6.6699
-15 -10 -9 7.4125 -1.3255
-15 -10 -8 -0.5107 0.8624
-15 -10 -7 4.2181 -6.5324
-15 -10 -6 -3.8635 4.2012
-15 -10 -5 -0.0001 4.1873
-15 -10 -4 1.0058 -0.5182
-15 -10 -3 -2.0644 5.3090
-15 -10 -2 -1.1008 -0.5711
-15 -10 -1 -1.2224 0.9392
-15 -9 -15 -4.8849 0.1519
-15 -9 -14 -2.0992 4.8647
-15 -9 -13 1.1080 8.5941
-15 -9 -12 -0.5639 -2.4179
-15 -9 -11 6.4906 -0.5275
-15 -9 -10 -0.4918 -1.9059
-15 -9 -9 3.2310 -2.0111
-15 -9 -8 -1.1760 -2.2356
-15 -9 -7 1.6098 2.9708
-15 -9 -6 3.2178 -1.7693
-15 -9 -4 8.1967 2.2443
-15 -9 -3 -3.1672 1.1589
-15 -9 -2 1.2644 1.0034
-15 -9 -1 -1.7502 -1.7497
-15 -8 -15 -1.8900 3.4663
-15 -8 -14 6.3265 1.2306
-15 -8 -13 0.1990 8.6803
-15 -8 -12 -0.3901 3.4237
-15 -8 -11 -0.7804 1.8577
-15 -8 -10 6.1847 5.5192
-15 -8 -9 0.2349 -7.1339
-15 -8 -8 3.0868 -3.3331
-15 -8 -7 0.3253 1.5732
-15 -8 -5 -3.7002 -11.8463
-15 -8 -4 0.9834 -0.7456
-15 -8 -3 -7.3499 -4.4539
-15 -8 -2 -1.4665 -1.1794
-15 -8 -1 -2.5299 -4.3283
-15 -7 -16 -3.1046 0.3126
-15 -7 -15 2.7616 4.8291
-15 -7 -14 1.8175 6.3146
-15 -7 -13 0.6689 -4.0681
-15 -7 -12 3.4495 0.6799
-15 -7 -11 1.1627 3.9780
-15 -7 -10 7.1787 -6.3038
-15 -7 -9 1.1748 2.6958
-15 -7 -8 2.1125 -2.6470
-15 -7 -7 -0.6655 -0.3859
-15 -7 -6 -5.1662 0.7006
-15 -7 -4 -11.3640 6.4074
-15 -7 -3 0.4132 0.3422
-15 -7 -2 -1.5077 -4.6083
-15 -7 -1 1.6490 1.9570
-15 -6 -16 -4.2269 2.4102
-15 -6 -15 0.7234 -1.1942
-15 -6 -14 -2.0491 2.3689
-15 -6 -13 2.1235 -2.5167
-15 -6 -12 2.1682 -5.3267
-15 -6 -11 1.0123 1.5078
-15 -6 -10 -2.9563 -6.9761
-15 -6 -9 1.3875 -0.6997
-15 -6 -8 -4.9856 1.8891
-15 -6 -7 -4.7279 -2.2314
-15 -6 -6 1.7393 -7.6779
-15 -6 -5 -2.7702 -3.6574
-15 -6 -4 -1.8367 -0.4460
-15 -6 -3 2.1642 3.1297
-15 -6 -2 -0.9094 -0.5316
-15 -6 -1 4.0230 5.3221
-15 -5 -17 -0.9451 -1.9524
-15 -5 -16 -2.5654 3.3786
-15 -5 -15 2.4655 5.5505
-15 -5 -14 -0.4366 0.0734
-15 -5 -13 -1.8589 -2.6427
-15 -5 -12 6.0869 7.4075
-15 -5 -11 1.4300 2.4391
-15 -5 -10 1.0180 5.0257
-15 -5 -9 4.0483 2.3596
-15 -5 -8 -0.4034 -1.9516
-15 -5 -7 -5.2283 1.8883
-15 -5 -6 0.9637 -0.3758
-15 -5 -5 3.2252 -7.2681
-15 -5 -4 -0.1435 1.1123
-15 -5 -3 11.6357 5.7110
-15 -5 -2 -3.2699 1.5431
-15 -5 -1 3.6236 3.0968
-15 -4 -17 -4.5997 -4.3263
-15 -4 -16 0.0589 -0.5799
-15 -4 -15 -3.2401 3.7804
-15 -4 -14 2.1939 0.8029
-15 -4 -13 4.1237 -3.6331
-15 -4 -12 -3.7496 -2.3797
-15 -4 -11 -4.3729 -2.3706
-15 -4 -10 -1.4682 -3.7861
-15 -4 -9 -6.8013 -1.5801
-15 -4 -8 -3.3248 -3.1668
-15 -4 -6 0.4980 -10.5966
-15 -4 -4 -3.2463 -1.2463
-15 -4 -3 3.7797 -6.4665
-15 -3 -17 -3.7341 -0.9482
-15 -3 -16 2.7461 0.9172
-15 -3 -15 -2.1549 -4.6701
-15 -3 -14 -4.0828 -5.2419
-15 -3 -13 5.6956 3.1508
-15 -3 -12 4.9753 10.2632
-15 -3 -11 4.6112 1.2860
-15 -3 -10 8.3522 4.5251
-15 -3 -9 -1.3177 -5.9118
-15 -3 -8 0.8276 -4.1732
-15 -3 -7 -1.6533 -5.3818
-15 -3 -6 10.9444 8.8248
-15 -3 -5 -4.7399 -6.2543
-15 -3 -4 -0.6821 12.2134
-15 -3 -3 0.7864 2.2573
-15 -3 -2 -7.5196 -1.8196
-15 -3 -1 -1.7207 -3.2548
-15 -2 -17 1.6699 1.4928
-15 -2 -16 4.8019 2.2488
-15 -2 -15 -2.5950 -4.9821
-15 -2 -14 -3.1212 -3.8435
-15 -2 -13 -1.6511 -1.1056
-15 -2 -12 3.6165 -2.1601
-15 -2 -11 5.3408 5.5479
-15 -2 -10 7.1879 -3.1214
-15 -2 -9 6.7070 6.3089
-15 -2 -8 -1.7957 7.4824
-15 -2 -7 5.9695 -0.0649
-15 -2 -6 -8.2324 5.7168
-15 -2 -4 3.1328 -4.5296
-15 -2 -2 -4.4123 -2.1099
-15 -1 -18 -3.6868 -5.4179
-15 -1 -17 -0.3980 2.7368
-15 -1 -16 -1.5828 4.9812
-15 -1 -15 -2.7552 -6.8403
-15 -1 -14 -2.3702 7.2808
-15 -1 -13 0.0438 -14.9702
-15 -1 -12 -4.6927 -7.3091
-15 -1 -11 0.7800 8.3792
-15 -1 -10 -3.8615 -9.1572
-15 -1 -9 -0.9758 -1.6275
-15 -1 -8 -0.5636 8.1804
-15 -1 -7 -3.6034 -9.2801
-15 -1 -6 8.4237 -11.0298
-15 -1 -4 12.3070 -5.0880
-15 -1 -3 -3.0082 11.2188
-15 -1 -2 5.1616 -1.1119
-15 -1 -1 2.7869 2.7993
-14 -17 -3 2.4402 -1.3326
-14 -17 -2 2.6072 -5.3604
-14 -17 -1 4.7993 -1.3123
-14 -16 -7 1.5041 -0.9865
-14 -16 -6 -0.9761 -3.1913
-14 -16 -5 -4.3345 4.9668
-14 -16 -4 -4.1353 1.7684
-14 -16 -3 2.8128 -5.5429
-14 -16 -2 -2.8009 2.7261
-14 -16 -1 -2.1894 1.5274
-14 -15 -9 -1.6827 -0.9652
-14 -15 -8 -2.7120 4.0251
-14 -15 -7 -1.4792 1.2927
-14 -15 -6 4.4651 -7.7759
-14 -15 -5 7.5169 -1.2183
-14 -15 -4 1.2795 -6.3793
-14 -15 -3 2.4441 -1.2974
-14 -15 -2 -3.4355 1.2208
-14 -15 -1 -2.4897 1.0301
-14 -14 -11 -5.4088 -1.4427
-14 -14 -10 -2.5840 4.1620
-14 -14 -9 1.2994 -0.9036
-14 -14 -8 3.0505 -1.1739
-14 -14 -7 -3.4122 -1.8755
-14 -14 -6 -0.8507 -4.3455
-14 -14 -5 -9.3555 -2.6839
-14 -14 -4 0.0923 -7.4388
-14 -14 -3 4.1635 -0.6711
-14 -14 -2 3.9160 -2.3373
-14 -14 -1 3.4029 -1.5745
-14 -13 -12 1.2057 0.1211
-14 -13 -11 4.4994 0.9002
-14 -13 -10 -1.8189 2.6303
-14 -13 -9 5.1640 -1.5977
-14 -13 -8 -4.3607 0.6893
-14 -13 -7 1.9529 -9.5263
-14 -13 -6 -5.0038 -3.0096
-14 -13 -5 -1.1362 -12.2937
-14 -13 -4 -1.0607 2.1598
-14 -13 -3 -5.1331 4.6078
-14 -13 -2 0.5708 3.8843
-14 -13 -1 -4.5583 4.4345
-14 -12 -13 4.0786 0.1832
-14 -12 -12 0.7733 -4.7101
-14 -12 -11 -1.9656 3.2847
-14 -12 -10 4.8273 -2.1334
-14 -12 -9 4.0001 -7.8138
-14 -12 -8 -1.9096 5.2903
-14 -12 -7 -0.2384 -5.5682
-14 -12 -6 -0.2875 2.6924
-14 -12 -5 9.1580 1.5532
-14 -12 -4 8.1509 4.2839
-14 -12 -3 -0.6758 5.8351
-14 -12 -2 -4.3844 0.5236
-14 -12 -1 -1.5520 -3.5833
-14 -11 -14 -2.4270 -1.2073
-14 -11 -13 -2.8986 -1.2619
-14 -11 -12 7.5815 -6.5903
-14 -11 -11 -8.7913 -2.3613
-14 -11 -10 -5.7555 -11.5403
-14 -11 -9 5.4716 -7.2711
-14 -11 -8 -4.8955 -7.7365
-14 -11 -7 -4.4863 -8.3697
-14 -11 -6 -6.7124 -4.7967
-14 -11 -5 -3.8478 0.6754
-14 -11 -4 -8.7647 2.1698
-14 -11 -3 -2.6708 4.1863
-14 -11 -2 0.0353 0.0095
-14 -11 -1 0.7180 3.5117
-14 -10 -15 -0.1847 -1.2095
-14 -10 -14 3.8350 2.1577
-14 -10 -13 -1.7116 3.3437
-14 -10 -12 1.6035 -2.5526
-14 -10 -11 0.0558 3.9691
-14 -10 -10 1.9519 1.3499
-14 -10 -9 -2.2505 4.6864
-14 -10 -8 -7.4262 2.7490
-14 -10 -7 -1.4948 9.7415
-14 -10 -6 1.6415 -3.2141
-14 -10 -5 -3.5556 4.4835
-14 -10 -4 -7.5698 5.8705
-14 -10 -3 -4.3534 -0.0377
-14 -10 -2 4.7152 1.3098
-14 -10 -1 2.2491 -4.5174
-14 -9 -16 1.1864 -2.3050
-14 -9 -15 -1.0902 -1.2084
-14 -9 -14 -4.1636 2.9294
-14 -9 -13 9.5393 -1.2763
-14 -9 -12 4.8496 3.2082
-14 -9 -11 -0.6492 -0.9057
-14 -9 -10 7.6100 -7.8150
-14 -9 -9 4.6461 1.5065
-14 -9 -8 -5.8787 -1.4850
-14 -9 -7 4.3953 5.4212
-14 -9 -6 4.8098 4.9197
-14 -9 -5 8.0721 3.4775
-14 -9 -4 -3.6759 5.0882
-14 -9 -3 6.1925 -1.2030
-14 -9 -2 -5.8029 -0.7922
-14 -9 -1 5.4316 -4.9802
-14 -8 -16 3.8305 1.0208
-14 -8 -15 -2.8366 -3.0240
-14 -8 -14 2.4663 6.8915
-14 -8 -13 -3.2233 -3.0501
-14 -8 -12 2.3077 3.9850
-14 -8 -11 2.5367 0.0215
-14 -8 -10 -2.2440 -4.8137
-14 -8 -9 3.8935 0.0029
-14 -8 -7 4.0185 1.9062
-14 -8 -6 -0.4314 -6.5612
-14 -8 -5 -6.0369 10.7937
-14 -8 -4 -0.4575 -1.6145
-14 -8 -3 -3.2636 -3.1901
-14 -8 -1 4.2982 -1.8709
-14 -7 -17 -0.9508 0.0102
-14 -7 -16 4.7904 1.9879
-14 -7 -15 -0.2884 2.8043
-14 -7 -14 1.5893 0.5698
-14 -7 -13 5.1915 3.6531
-14 -7 -12 -5.3878 -3.4335
-14 -7 -11 3.3268 -0.8215
-14 -7 -10 1.6184 1.1690
-14 -7 -9 0.2022 0.5331
-14 -7 -8 4.5715 -7.4514
-14 -7 -6 -5.7252 -0.2522
-14 -7 -5 -5.2352 2.0430
-14 -7 -4 -7.7883 -3.3460
-14 -7 -3 4.1155 -7.5304
-14 -7 -2 3.0889 4.0183
-14 -7 -1 4.7877 -0.1761
-14 -6 -17 -3.2576 0.4536
-14 -6 -16 -2.2261 -3.8408
-14 -6 -15 0.6231 6.1556
-14 -6 -14 -1.1547 1.6554
-14 -6 -13 1.4521 3.8973
-14 -6 -12 -1.7766 2.6834
-14 -6 -11 -2.8005 -3.2762
-14 -6 -10 -0.6970 2.0683
-14 -6 -9 5.0774 4.6990
-14 -6 -8 -3.9472 5.3198
-14 -6 -7 0.9325 4.9672
-14 -6 -6 -10.8562 -6.1471
-14 -6 -5 -5.6594 2.0609
-14 -6 -4 1.5386 -8.9178
-14 -6 -3 0.6556 -2.1675
-14 -6 -2 8.5634 1.8367
-14 -6 -1 1.2119 -0.9543
-14 -5 -18 -7.0800 4.7270
-14 -5 -17 2.9620 2.6926
-14 -5 -16 -4.0394 3.1288
-14 -5 -15 -2.5751 1.2811
-14 -5 -14 -2.0555 -2.2850
-14 -5 -13 -5.9293 -3.3127
-14 -5 -12 2.2476 -2.9164
-14 -5 -11 1.0602 3.8958
-14 -5 -10 -1.9131 -1.6274
-14 -5 -9 -3.2881 -4.2419
-14 -5 -8 5.4054 4.7050
-14 -5 -7 -5.2555 3.0758
-14 -5 -6 -1.0370 -2.0347
-14 -5 -5 -4.8998 -3.3771
-14 -5 -4 6.6820 0.9621
-14 -5 -3 -7.0497 -0.2854
-14 -5 -2 -1.7545 2.2270
-14 -5 -1 -9.7573 -3.4145
-14 -4 -18 -5.0679 -5.7014
-14 -4 -17 -3.3342 2.7083
-14 -4 -16 1.2768 5.7922
-14 -4 -15 -1.2531 6.3917
-14 -4 -14 -0.6481 4.3049
-14 -4 -13 4.7998 5.6649
-14 -4 -12 0.1037 -1.6688
-14 -4 -11 4.6276 2.2074
-14 -4 -10 3.8673 -7.6055
-14 -4 -9 7.1398 -5.2829
-14 -4 -7 5.5990 -13.8099
-14 -4 -6 -0.3343 -9.1764
-14 -4 -1 -1.7526 1.9407
-14 -3 -18 4.5710 2.7897
-14 -3 -17 1.4457 1.5496
-14 -3 -16 7.4531 -1.1565
-14 -3 -15 2.6342 1.9397
-14 -3 -14 -3.4303 3.7904
-14 -3 -13 1.5619 2.8809
-14 -3 -12 -4.0963 6.7434
-14 -3 -11 3.5210 -1.2857
-14 -3 -10 -2.8289 -3.1101
-14 -3 -9 1.3112 6.0139
-14 -3 -8 6.0807 0.4093
-14 -3 -7 -8.8077 0.8009
-14 -3 -5 -3.9007 5.5632
-14 -3 -4 -1.8264 -4.8927
-14 -2 -18 -0.0024 0.5904
-14 -2 -17 2.1254 6.5815
-14 -2 -16 1.8657 -2.4767
-14 -2 -15 1.3919 0.2375
-14 -2 -14 4.5149 -2.2556
-14 -2 -13 1.3182 2.7040
-14 -2 -12 6.2494 -4.3907
-14 -2 -11 5.0193 1.7174
-14 -2 -10 7.8601 -4.5491
-14 -2 -9 -5.7919 -6.0025
-14 -2 -8 -18.1779 -3.7662
-14 -2 -7 -1.0884 0.1218
-14 -2 -6 -3.3589 -2.5754
-14 -2 -5 1.1369 7.5361
-14 -2 -4 7.6130 3.0934
-14 -2 -3 -6.9597 1.0209
-14 -2 -2 3.7088 6.6803
-14 -2 -1 -5.6006 -15.2097
-14 -1 -18 -1.9580 0.9318
-14 -1 -17 -0.6405 -0.3605
-14 -1 -16 6.6012 0.1955
-14 -1 -15 -1.8991 -2.9734
-14 -1 -14 2.6668 -11.0710
-14 -1 -13 9.0767 5.2739
-14 -1 -12 -1.7121 -8.7718
-14 -1 -11 -5.6708 6.1424
-14 -1 -10 -2.9118 13.1429
-14 -1 -9 -3.6691 1.4304
-14 -1 -8 8.4944 -2.1512
-14 -1 -7 9.3771 6.6595
-14 -1 -6 -6.5890 -3.8340
-14 -1 -5 2.4674 8.5780
-14 -1 -4 -6.6695 7.4460
-14 -1 -3 -13.5938 -5.2583
-14 -1 -2 1.6309 6.1399
-14 -1 -1 3.8942 -17.2721
-13 -18 -1 4.4351 -5.0563
-13 -17 -6 -5.8733 -1.0727
-13 -17 -5 0.5193 -2.5636
-13 -17 -4 -0.2400 -2.6547
-13 -17 -3 4.4356 -5.3292
-13 -17 -2 -6.5434 1.4243
-13 -17 -1 0.2810 2.0892
-13 -16 -9 -1.3248 -2.8551
-13 -16 -8 -2.7816 -1.8773
-13 -16 -7 -6.6835 4.6785
-13 -16 -6 1.0324 7.5327
-13 -16 -5 1.8313 1.0483
-13 -16 -4 -0.0192 -4.3199
-13 -16 -3 1.1792 -6.1772
-13 -16 -2 -2.5742 -2.5567
-13 -16 -1 -0.4754 6.0014
-13 -15 -10 -1.7530 4.1037
-13 -15 -9 1.5783 5.6220
-13 -15 -8 1.9192 -0.3902
-13 -15 -7 0.1614 1.2804
-13 -15 -6 -4.6261 0.6675
-13 -15 -5 -5.7583 1.7228
-13 -15 -4 -2.9395 2.5623
-13 -15 -3 -7.3068 -3.8782
-13 -15 -2 -0.5189 -0.8391
-13 -15 -1 2.2341 -1.4053
-13 -14 -12 0.8794 3.1929
-13 -14 -11 1.6750 -1.8159
-13 -14 -10 4.1849 0.9657
-13 -14 -9 -7.6352 2.0214
-13 -14 -8 -0.0914 0.8513
-13 -14 -7 -1.4619 -4.8651
-13 -14 -6 -2.0713 -12.0747
-13 -14 -5 -4.3803 -7.1933
-13 -14 -4 1.9716 -2.7399
-13 -14 -3 4.8094 5.2501
-13 -14 -2 -5.9872 4.2137
-13 -14 -1 -0.2471 -1.6346
-13 -13 -13 -3.4403 -1.3439
-13 -13 -12 0.0775 0.4834
-13 -13 -11 4.2717 0.7893
-13 -13 -10 1.8930 1.7678
-13 -13 -9 -8.1539 -2.8343
-13 -13 -8 -0.0786 -0.4229
-13 -13 -7 1.3408 1.6078
-13 -13 -6 1.7169 1.8144
-13 -13 -5 7.0166 6.5294
-13 -13 -4 2.5859 1.9664
-13 -13 -3 1.2148 3.8771
-13 -13 -2 -1.6741 -0.4832
-13 -13 -1 -0.9389 -2.4393
-13 -12 -14 -1.3519 -3.2032
-13 -12 -13 3.5694 1.8694
-13 -12 -12 -4.1704 4.5148
-13 -12 -11 1.8114 -1.4091
-13 -12 -10 1.7108 1.2228
-13 -12 -9 -1.6647 -9.4408
-13 -12 -8 2.2752 -0.8353
-13 -12 -7 -1.1933 -9.4132
-13 -12 -6 -5.2780 -0.6673
-13 -12 -5 0.1816 -0.7087
-13 -12 -4 8.7747 7.8976
-13 -12 -3 -10.4678 0.0115
-13 -12 -2 2.1145 -2.8451
-13 -12 -1 2.0181 -3.5601
-13 -11 -15 6.9130 8.2884
-13 -11 -14 -0.0663 -5.0821
-13 -11 -13 2.5220 -4.0218
-13 -11 -12 3.0732 -1.4367
-13 -11 -11 4.3544 0.9481
-13 -11 -10 -4.3289 4.8287
-13 -11 -9 2.0612 2.0828
-13 -11 -8 4.7484 5.4784
-13 -11 -7 5.7142 2.2671
-13 -11 -6 0.8415 -2.5815
-13 -11 -5 0.5902 -1.6247
-13 -11 -4 -10.5442 6.2218
-13 -11 -3 0.9203 5.0813
-13 -11 -2 -4.7126 -1.2113
-13 -11 -1 -9.7461 -3.0488
-13 -10 -16 -4.0819 -7.0229
-13 -10 -15 -6.1822 -2.6327
-13 -10 -14 9.0574 3.8633
-13 -10 -13 -5.2730 4.8501
-13 -10 -11 10.0886 0.2199
-13 -10 -10 -4.2932 -7.4472
-13 -10 -9 -4.3106 -7.2998
-13 -10 -7 -1.1394 -0.4382
-13 -10 -6 4.6896 -0.8958
-13 -10 -5 3.8097 5.4898
-13 -10 -4 2.4554 10.4897
-13 -10 -3 -1.1318 1.9750
-13 -10 -1 2.9296 3.8884
-13 -9 -17 4.2524 -4.4348
-13 -9 -16 -0.0497 -1.6248
-13 -9 -15 3.7746 0.7908
-13 -9 -14 6.5949 -3.8156
-13 -9 -13 3.5416 2.9036
-13 -9 -12 1.0243 6.2089
-13 -9 -11 4.5899 1.5418
-13 -9 -10 3.8087 -1.1317
-13 -9 -9 -7.6623 -2.4304
-13 -9 -8 -3.7679 6.8726
-13 -9 -7 0.8243 -4.0570
-13 -9 -6 -4.3400 -0.8398
-13 -9 -5 0.5038 -2.6697
-13 -9 -4 4.1025 6.3987
-13 -9 -3 -3.6570 -6.7292
-13 -9 -2 0.6953 -0.7280
-13 -9 -1 -5.5982 -2.2606
-13 -8 -17 -1.7125 -5.0356
-13 -8 -16 -1.9341 1.9794
-13 -8 -15 4.3759 1.8502
-13 -8 -14 0.8053 6.5248
-13 -8 -13 2.4483 -6.3499
-13 -8 -12 6.9488 -0.6282
-13 -8 -11 2.0966 -2.0128
-13 -8 -9 7.8136 -0.7290
-13 -8 -8 -2.7750 7.6849
-13 -8 -7 0.9615 0.7638
-13 -8 -6 -2.5283 1.8209
-13 -8 -5 -0.5779 6.7964
-13 -8 -4 -10.3845 5.6256
-13 -8 -3 -6.3292 -3.0392
-13 -8 -2 1.0340 1.2454
-13 -8 -1 3.4680 -2.7222
-13 -7 -18 7.0453 1.4784
-13 -7 -17 0.4998 -9.2859
-13 -7 -16 1.4664 6.2677
-13 -7 -15 3.0037 1.5260
-13 -7 -14 -3.4275 -1.0612
-13 -7 -13 1.5225 3.0879
-13 -7 -12 -0.8410 -0.3338
-13 -7 -11 1.7768 1.2907
-13 -7 -10 2.0097 -9.6603
-13 -7 -9 -2.5691 -1.7364
-13 -7 -8 7.2285 -1.0450
-13 -7 -7 5.4878 -2.8168
-13 -7 -6 -4.6320 1.7068
-13 -7 -5 5.6111 2.5778
-13 -7 -4 -2.2737 2.1215
-13 -7 -3 3.4904 3.4564
-13 -7 -2 9.7426 -2.0404
-13 -7 -1 2.0767 5.3473
-13 -6 -18 1.7499 3.3948
-13 -6 -17 3.8513 3.4940
-13 -6 -16 0.6002 -0.8948
-13 -6 -15 8.4202 -0.4319
-13 -6 -14 -2.7427 0.8882
-13 -6 -13 4.2789 -9.9101
-13 -6 -12 -4.9844 -2.1065
-13 -6 -11 1.2743 4.8597
-13 -6 -10 -2.5395 1.6035
-13 -6 -9 -3.2163 -4.9579
-13 -6 -8 -11.6918 4.6716
-13 -6 -3 4.7139 1.8194
-13 -6 -1 -1.3792 1.1025
-13 -5 -19 0.0759 0.1197
-13 -5 -18 -1.3748 -4.4246
-13 -5 -17 -5.9711 -3.3669
-13 -5 -16 -1.4406 -3.6341
-13 -5 -15 2.7306 -0.7452
-13 -5 -14 1.1455 -3.0798
-13 -5 -13 -1.1659 2.1518
-13 -5 -12 -2.0734 3.6467
-13 -5 -11 1.8581 0.0162
-13 -5 -10 1.1156 1.0103
-13 -5 -9 2.1746 -1.0442
-13 -5 -7 -5.7884 -9.4427
-13 -5 -6 -6.2705 -3.3314
-13 -5 -4 0.7710 -4.0037
-13 -5 -1 -0.4046 -1.2540
-13 -4 -19 0.2959 3.2582
-13 -4 -18 0.3401 -3.3860
-13 -4 -17 -0.8180 -0.8056
-13 -4 -16 3.1643 0.1325
-13 -4 -15 -4.4653 -4.2593
-13 -4 -14 -0.8795 2.6292
-13 -4 -13 -0.9545 1.2331
-13 -4 -12 -5.0824 -2.5597
-13 -4 -11 1.8163 4.7389
-13 -4 -10 -2.2007 -1.8416
-13 -4 -9 1.5078 3.0313
-13 -4 -8 1.3308 5.9968
-13 -4 -6 -3.0543 2.1935
-13 -4 -5 -3.6130 -4.5591
-13 -4 -4 4.9972 -1.9275
-13 -4 -2 -4.3084 2.4786
-13 -4 -1 4.0039 4.4091
-13 -3 -19 -1.4726 -1.5949
-13 -3 -18 -8.7211 -2.3103
-13 -3 -17 0.6278 0.1243
-13 -3 -16 3.6927 -0.0997
-13 -3 -15 0.5265 -3.9068
-13 -3 -14 -0.6617 -2.0829
-13 -3 -13 3.1722 -5.3696
-13 -3 -12 1.3440 -4.2595
-13 -3 -11 9.5572 -1.9824
-13 -3 -10 12.4201 -10.9701
-13 -3 -9 -2.4078 -7.4306
-13 -3 -8 -1.3715 -1.0627
-13 -3 -7 0.7501 -8.3827
-13 -3 -6 -2.3157 8.5328
-13 -3 -5 8.0453 -1.0832
-13 -3 -4 -4.3846 -5.5712
-13 -3 -3 8.4520 2.4166
-13 -3 -2 -0.1994 3.5337
-13 -3 -1 -13.9000 3.3705
-13 -2 -19 -1.5342 1.6375
-13 -2 -18 -0.0863 1.0988
-13 -2 -17 -2.5069 0.0762
-13 -2 -16 -2.0883 -2.8408
-13 -2 -15 -1.8721 -0.4158
-13 -2 -14 -5.8054 6.7065
-13 -2 -13 -3.8342 4.1561
-13 -2 -12 -1.8435 -5.8964
-13 -2 -11 2.0999 -5.8094
-13 -2 -10 -5.6857 -9.0399
-13 -2 -9 -0.0841 -5.2621
-13 -2 -8 2.5102 -0.6629
-13 -2 -7 0.4788 3.3647
-13 -2 -6 1.3276 -6.3176
-13 -2 -2 2.7398 8.6101
-13 -2 -1 -0.0794 -0.2197
-13 -1 -19 -6.4301 4.6295
-13 -1 -18 -1.0814 -0.0561
-13 -1 -17 3.3726 1.0229
-13 -1 -16 2.9348 0.0690
-13 -1 -15 9.4362 0.5112
-13 -1 -14 -10.7032 1.4882
-13 -1 -13 -7.1298 0.8400
-13 -1 -12 -2.1869 3.3670
-13 -1 -11 -10.1342 7.4379
-13 -1 -10 3.5642 0.0861
-13 -1 -9 -0.0979 3.6689
-13 -1 -8 -12.0919 3.5731
-13 -1 -7 -8.3730 -10.2489
-13 -1 -6 -16.1285 4.6253
-13 -1 -5 -14.2146 -11.3315
-13 -1 -4 13.1267 -1.6303
-13 -1 -3 3.0694 -1.8857
-13 -1 -2 -4.8294 7.2608
-13 -1 -1 3.9161 -7.2490
-12 -18 -5 2.6840 -2.9693
-12 -18 -4 4.7542 1.4922
-12 -18 -3 -7.3886 -8.9256
-12 -18 -2 -1.1227 -1.7091
-12 -18 -1 3.7809 -0.3084
-12 -17 -8 0.9370 -4.1545
-12 -17 -7 -2.2428 3.6601
-12 -17 -6 5.5559 -0.3358
-12 -17 -5 7.7900 2.7464
-12 -17 -4 0.6647 -4.1333
-12 -17 -3 3.6794 -2.3238
-12 -17 -2 -3.9237 -0.1795
-12 -17 -1 -1.6969 0.6610
-12 -16 -10 -2.2320 2.9877
-12 -16 -9 -0.1677 5.6782
-12 -16 -8 -0.7804 6.8222
-12 -16 -7 0.5451 0.9617
-12 -16 -6 1.6132 -1.7069
-12 -16 -5 -4.5320 0.1650
-12 -16 -4 -0.9878 -1.5170
-12 -16 -3 -3.2014 2.6250
-12 -16 -2 5.2948 -8.8219
-12 -16 -1 -6.1980 2.5414
-12 -15 -12 4.8864 -4.3711
-12 -15 -11 0.3749 0.5004
-12 -15 -10 0.8511 0.4783
-12 -15 -9 1.3699 -2.0625
-12 -15 -8 -0.6204 3.0299
-12 -15 -7 -8.9904 -0.9813
-12 -15 -6 2.3294 -3.0953
-12 -15 -5 -4.0910 -6.4904
-12 -15 -4 1.9987 -7.0725
-12 -15 -3 -2.9659 -0.0863
-12 -15 -2 -1.7039 7.6179
-12 -15 -1 1.2689 -1.0810
-12 -14 -13 6.3092 2.6595
-12 -14 -12 -1.0562 0.3724
-12 -14 -11 6.5824 -3.1557
-12 -14 -10 5.9224 -0.3680
-12 -14 -9 -3.0135 -2.1298
-12 -14 -8 -1.0474 -1.0179
-12 -14 -6 -3.3719 7.1521
-12 -14 -5 -2.2208 3.3312
-12 -14 -4 3.6616 4.0667
-12 -14 -2 2.8755 0.8811
-12 -14 -1 -8.0115 4.3273
-12 -13 -14 3.4525 -5.5669
-12 -13 -13 3.7711 -0.5249
-12 -13 -12 -0.1036 -9.5300
-12 -13 -11 0.8290 3.4446
-12 -13 -10 2.4572 -5.1383
-12 -13 -9 3.5580 7.0327
-12 -13 -8 -8.3049 -8.5790
-12 -13 -7 -2.2916 -2.2784
-12 -13 -6 -1.4197 0.4146
-12 -13 -5 5.7901 -5.4408
-12 -13 -4 -2.8365 4.2634
-12 -13 -3 7.5768 6.4499
-12 -13 -1 -3.1669 0.2869
-12 -12 -15 -2.4190 -7.0371
-12 -12 -14 4.2340 -2.1532
-12 -12 -13 -1.8182 0.9916
-12 -12 -12 4.6834 -7.3632
-12 -12 -11 -1.7455 -3.8375
-12 -12 -10 -4.3573 1.7805
-12 -12 -9 3.9869 6.7951
-12 -12 -8 2.6650 -0.2718
-12 -12 -7 -3.6221 -2.0660
-12 -12 -6 7.0510 4.1809
-12 -12 -5 -1.2931 4.2535
-12 -12 -4 3.7356 4.0404
-12 -12 -3 -1.0478 3.9927
-12 -12 -2 -7.8777 -2.1897
-12 -12 -1 3.6816 2.8025
-12 -11 -16 -4.3475 4.2755
-12 -11 -15 -5.0110 -1.1046
-12 -11 -14 -0.9633 -2.9707
-12 -11 -13 -4.7520 -6.4827
-12 -11 -12 5.0881 3.8596
-12 -11 -11 2.5342 -3.9028
-12 -11 -10 0.4364 2.3164
-12 -11 -9 -4.9362 1.8815
-12 -11 -8 -0.0781 -0.7613
-12 -11 -7 -0.5046 3.9020
-12 -11 -6 -0.4488 5.4890
-12 -11 -5 -8.2566 3.8128
-12 -11 -4 -1.8094 9.8007
-12 -11 -3 -9.1640 -0.1638
-12 -11 -2 -1.1558 -4.9984
-12 -11 -1 4.5926 3.0846
-12 -10 -17 -6.5032 0.6208
-12 -10 -16 4.4415 -3.2351
-12 -10 -15 5.6472 -7.2982
-12 -10 -14 -6.7383 3.0837
-12 -10 -13 3.5245 -1.4314
-12 -10 -12 0.3338 -1.4571
-12 -10 -11 7.1914 0.0889
-12 -10 -9 1.9469 4.4218
-12 -10 -8 2.2866 2.5545
-12 -10 -7 1.7401 3.5650
-12 -10 -6 -4.5018 8.1335
-12 -10 -5 3.9591 5.2170
-12 -10 -4 4.7261 3.1009
-12 -10 -3 8.0409 2.7723
-12 -10 -2 4.1226 0.2254
-12 -10 -1 5.1313 -2.0969
-12 -9 -18 2.4961 -9.2884
-12 -9 -17 -10.9105 3.1983
-12 -9 -16 1.3326 -2.7230
-12 -9 -15 -0.6548 -5.1508
-12 -9 -14 3.6054 -1.5950
-12 -9 -13 4.0085 2.8632
-12 -9 -12 1.0128 -1.2672
-12 -9 -11 -3.8485 -5.6115
-12 -9 -10 -6.1977 3.8103
-12 -9 -9 -2.7200 -1.1320
-12 -9 -8 4.0366 -2.2168
-12 -9 -7 0.1317 -0.9498
-12 -9 -6 1.5993 -0.1641
-12 -9 -5 5.8849 5.2511
-12 -9 -4 2.9938 -8.8608
-12 -9 -3 -6.3526 0.0717
-12 -9 -2 0.4759 -7.3635
-12 -9 -1 2.8683 -7.5601
-12 -8 -18 -4.8851 -3.8331
-12 -8 -17 -4.6213 -2.1486
-12 -8 -16 3.7211 -4.3644
-12 -8 -15 -6.1439 -3.5758
-12 -8 -14 1.7286 7.1211
-12 -8 -13 4.2783 2.3318
-12 -8 -12 -3.5364 8.1767
-12 -8 -11 0.9713 -2.1451
-12 -8 -10 -6.6633 2.8661
-12 -8 -9 -4.7721 6.2949
-12 -8 -8 9.2044 3.0726
-12 -8 -7 -1.8665 -5.0777
-12 -8 -6 14.1981 -3.0223
-12 -8 -5 2.5982 3.1029
-12 -8 -4 0.9097 1.0420
-12 -8 -3 -4.7858 2.7752
-12 -8 -2 -3.3100 2.2546
-12 -8 -1 0.9320 2.6784
-12 -7 -19 -6.4484 -1.5359
-12 -7 -18 0.2863 -0.5716
-12 -7 -17 -0.2965 0.9134
-12 -7 -16 -0.6672 0.0798
-12 -7 -15 0.4324 8.2480
-12 -7 -14 -1.8182 4.4576
-12 -7 -13 6.0848 4.2366
-12 -7 -12 3.3302 4.7612
-12 -7 -11 5.8827 -3.1284
-12 -7 -10 7.8275 -1.5312
-12 -7 -9 1.9349 -1.6822
-12 -7 -7 -3.4368 0.8785
-12 -7 -6 -3.8596 5.1361
-12 -7 -5 5.1290 -3.8651
-12 -7 -4 1.6362 -2.2004
-12 -7 -3 -2.9491 5.4464
-12 -7 -1 -9.5287 5.3329
-12 -6 -19 -0.5863 1.2955
-12 -6 -18 -2.0771 -1.7327
-12 -6 -17 1.5298 3.7679
-12 -6 -16 1.6831 0.4638
-12 -6 -15 -3.1699 -5.9481
-12 -6 -14 -4.3137 -0.8046
-12 -6 -13 -5.7246 2.2363
-12 -6 -12 -0.4600 0.3487
-12 -6 -11 5.5622 2.5357
-12 -6 -9 6.0632 -4.3020
-12 -6 -7 0.3348 -3.5053
-12 -6 -5 -7.0059 6.5973
-12 -6 -4 3.6313 -4.3191
-12 -6 -3 -1.8224 5.1504
-12 -6 -1 -2.6663 -1.7528
-12 -5 -19 6.1324 -3.1934
-12 -5 -18 -1.3174 7.1316
-12 -5 -17 2.1154 2.2204
-12 -5 -16 -1.2748 4.6665
-12 -5 -15 -2.6865 1.9965
-12 -5 -14 5.0200 -1.0691
-12 -5 -13 -4.9646 2.2478
-12 -5 -12 -3.8365 -0.8796
-12 -5 -11 0.4965 -7.2404
-12 -5 -10 1.0496 4.2921
-12 -5 -9 -10.6922 -2.8058
-12 -5 -8 8.1429 -0.2992
-12 -5 -7 0.7080 -2.0195
-12 -5 -6 8.2658 -4.1626
-12 -5 -5 10.3862 8.1814
-12 -5 -4 -0.6972 6.1347
-12 -5 -2 -4.4268 5.9666
-12 -4 -20 -2.0353 0.3488
-12 -4 -19 4.0741 -4.8011
-12 -4 -18 -1.8367 3.8328
-12 -4 -17 -4.4773 2.6127
-12 -4 -16 -2.2222 -4.4135
-12 -4 -15 0.5724 -5.2750
-12 -4 -14 0.3519 1.2868
-12 -4 -13 6.8927 -0.4309
-12 -4 -12 -2.8569 4.8056
-12 -4 -11 1.6919 -5.5266
-12 -4 -9 -9.9267 2.2440
-12 -4 -8 -5.6544 -8.0190
-12 -4 -7 -5.1051 3.4231
-12 -4 -5 0.1297 -2.6814
-12 -4 -4 5.8037 0.2007
-12 -4 -2 3.8152 -1.2542
-12 -4 -1 -1.0853 6.7261
-12 -3 -20 2.3903 2.4001
-12 -3 -19 2.1685 2.1931
-12 -3 -18 3.3221 2.8683
-12 -3 -17 3.4875 0.9407
-12 -3 -16 2.4974 -0.7392
-12 -3 -15 2.4165 0.3780
-12 -3 -14 2.7201 3.5873
-12 -3 -13 1.4330 1.5421
-12 -3 -11 0.9721 3.1120
-12 -3 -10 1.9797 -2.2547
-12 -3 -9 -5.3486 3.7392
-12 -3 -7 2.0426 -0.6452
-12 -3 -6 -2.1935 14.3633
-12 -3 -5 0.1895 4.6825
-12 -3 -4 6.4983 -3.8056
-12 -3 -3 -7.1423 7.3112
-12 -2 -20 3.6751 -8.1412
-12 -2 -19 3.8734 2.4782
-12 -2 -18 4.9988 0.7934
-12 -2 -17 -3.4185 -8.2846
-12 -2 -16 1.5309 -3.8350
-12 -2 -15 0.1999 -0.4977
-12 -2 -14 -4.6995 -1.6751
-12 -2 -12 4.4190 -6.0298
-12 -2 -11 -5.6976 1.4616
-12 -2 -10 3.7554 8.6419
-12 -2 -9 -4.0796 1.1015
-12 -2 -8 -5.3287 9.0073
-12 -2 -6 -0.5725 1.5635
-12 -2 -5 8.0679 -1.9638
-12 -2 -4 6.3571 3.2113
-12 -1 -20 -2.2576 -0.2121
-12 -1 -19 -0.0564 10.5726
-12 -1 -18 1.6347 1.1653
-12 -1 -17 4.2413 -1.2163
-12 -1 -16 -0.1290 0.8135
-12 -1 -15 -3.0981 -6.6829
-12 -1 -14 -6.2416 -9.7389
-12 -1 -13 2.0403 1.1190
-12 -1 -12 7.7298 -3.3019
-12 -1 -11 -0.5550 0.2749
-12 -1 -10 3.4988 16.4113
-12 -1 -9 -3.1850 -17.1536
-12 -1 -8 8.2142 -6.4183
-12 -1 -7 -3.4218 7.8155
-12 -1 -6 12.6925 -10.2474
-12 -1 -5 7.8401 14.6884
-12 -1 -4 1.5182 10.3001
-12 -1 -3 8.9452 -0.0605
-12 -1 -2 -2.9198 -7.0156
-12 -1 -1 -14.2018 -12.6178
-11 -19 -3 -0.2868 0.7601
-11 -19 -2 -5.0975 0.3002
-11 -19 -1 -3.1077 0.1135
-11 -18 -7 5.9027 -0.3821
-11 -18 -6 3.5778 3.9916
-11 -18 -5 1.7868 -2.8719
-11 -18 -4 1.2513 -3.5539
-11 -18 -3 -6.0164 -1.7017
-11 -18 -2 -9.2375 -1.7661
-11 -18 -1 3.4833 0.2652
-11 -17 -10 -1.9240 0.1738
-11 -17 -9 -1.2913 2.8613
-11 -17 -8 -1.2085 4.0805
-11 -17 -7 -0.8131 6.2106
-11 -17 -6 -0.5415 6.3650
-11 -17 -5 5.2813 1.9420
-11 -17 -4 -1.8930 -5.9397
-11 -17 -3 5.1776 2.5725
-11 -17 -2 -4.0010 -2.8784
-11 -17 -1 -1.9237 -0.7572
-11 -16 -11 -0.5516 -3.4003
-11 -16 -10 10.7938 1.5816
-11 -16 -9 3.1085 2.1290
-11 -16 -8 -0.1705 -3.6138
-11 -16 -7 2.1117 -1.1038
-11 -16 -6 -0.4537 -6.8367
-11 -16 -5 9.9708 1.0967
-11 -16 -4 3.9986 -6.7023
-11 -16 -3 -7.1495 5.6710
-11 -16 -2 5.5724 3.1488
-11 -16 -1 -4.8162 -0.1213
-11 -15 -13 -1.6613 -3.2637
-11 -15 -12 1.0584 2.4932
-11 -15 -11 5.7670 2.0027
-11 -15 -10 -3.5196 -0.5703
-11 -15 -9 2.9280 2.9564
-11 -15 -8 4.6909 0.7831
-11 -15 -7 -6.2200 -2.5541
-11 -15 -6 1.0855 -0.4682
-11 -15 -5 -0.5086 -1.8902
-11 -15 -4 3.1965 0.1177
-11 -15 -3 -2.7593 -4.6313
-11 -15 -2 -8.9272 -3.8242
-11 -15 -1 8.9779 -10.9055
-11 -14 -14 -1.6536 -2.1733
-11 -14 -13 -2.5917 -3.2949
-11 -14 -12 -1.6655 -5.3703
-11 -14 -11 6.3583 -7.4993
-11 -14 -10 -0.1113 2.4052
-11 -14 -9 -5.2123 -4.7466
-11 -14 -8 -2.9644 2.6204
-11 -14 -7 -2.1117 0.3055
-11 -14 -6 3.1478 -1.8652
-11 -14 -5 -4.7731 -1.0099
-11 -14 -4 -5.8487 -1.0693
-11 -14 -3 0.7786 1.0992
-11 -14 -2 2.9997 -1.3902
-11 -14 -1 -1.6133 6.7336
-11 -13 -15 1.9443 9.5650
-11 -13 -14 -0.5324 -1.8735
-11 -13 -13 -1.2025 1.1891
-11 -13 -12 4.2806 1.2818
-11 -13 -11 -7.3124 -4.4748
-11 -13 -10 -3.0658 0.6665
-11 -13 -9 5.1241 6.6303
-11 -13 -8 -2.8221 -10.4295
-11 -13 -7 -1.5855 -1.3914
-11 -13 -6 5.4495 4.3380
-11 -13 -5 17.4544 3.5445
-11 -13 -4 8.2972 6.9288
-11 -13 -3 -1.3617 2.4310
-11 -13 -2 -2.5428 2.9896
-11 -13 -1 1.8559 5.5135
-11 -12 -16 4.6083 -0.9247
-11 -12 -15 4.6494 1.1750
-11 -12 -14 -3.6544 -3.4753
-11 -12 -13 6.2016 4.9301
-11 -12 -12 3.6779 0.0724
-11 -12 -11 7.3510 -0.5920
-11 -12 -9 4.3811 -1.4335
-11 -12 -8 0.4518 -3.6853
-11 -12 -7 6.4321 -3.7367
-11 -12 -6 -1.8284 -2.5828
-11 -12 -5 1.4286 0.6012
-11 -12 -4 -3.2075 2.3614
-11 -12 -3 0.3770 1.5965
-11 -12 -1 -4.3860 -6.6194
-11 -11 -17 3.4363 5.3572
-11 -11 -16 1.6450 -2.6530
-11 -11 -15 -4.6624 -6.1237
-11 -11 -14 1.5348 0.6697
-11 -11 -13 0.3976 -0.4014
-11 -11 -12 -2.3385 0.2402
-11 -11 -11 1.4883 -0.6338
-11 -11 -10 7.0676 -1.2494
-11 -11 -9 3.0563 -6.2751
-11 -11 -8 4.0291 -6.3407
-11 -11 -7 -6.8300 5.4515
-11 -11 -6 3.4200 -2.5522
-11 -11 -5 6.4231 9.8769
-11 -11 -4 -13.5320 -0.8330
-11 -11 -3 2.7787 0.0163
-11 -11 -2 2.1709 5.9333
-11 -11 -1 1.9775 1.6032
-11 -10 -18 -2.8718 1.5092
-11 -10 -17 6.6354 -3.1562
-11 -10 -16 0.4323 3.2718
-11 -10 -15 -2.2771 -1.0469
-11 -10 -14 0.9306 -0.3545
-11 -10 -13 1.9915 -8.8231
-11 -10 -12 2.2609 -7.3091
-11 -10 -11 -2.5161 3.7753
-11 -10 -9 -6.2634 6.6911
-11 -10 -8 -0.5881 -5.8093
-11 -10 -7 -3.9461 -3.3986
-11 -10 -6 -1.9762 3.2724
-11 -10 -5 -1.6071 3.7924
-11 -10 -4 7.4321 0.6501
-11 -10 -3 -0.0844 8.9837
-11 -10 -2 -0.7616 -5.9185
-11 -10 -1 -1.5106 -4.8179
-11 -9 -18 -2.0797 2.7802
-11 -9 -17 5.9828 -4.1275
-11 -9 -16 -13.1009 -4.3007
-11 -9 -15 -1.8451 0.3842
-11 -9 -14 -1.8639 3.7168
-11 -9 -13 2.2364 -12.2519
-11 -9 -12 10.2252 -2.0104
-11 -9 -11 -0.6155 -9.0449
-11 -9 -10 -7.1489 -0.1423
-11 -9 -9 1.6991 6.7876
-11 -9 -8 -2.0840 6.3295
-11 -9 -7 2.5336 4.2342
-11 -9 -6 4.0891 -1.8657
-11 -9 -5 6.8130 0.1949
-11 -9 -4 4.2457 0.6202
-11 -9 -3 7.3488 -1.6053
-11 -9 -2 -2.5110 4.4142
-11 -9 -1 2.0300 7.4461
-11 -8 -19 1.8126 0.5344
-11 -8 -18 -2.5511 -7.0615
-11 -8 -17 0.7037 -0.4976
-11 -8 -16 -0.8547 4.0530
-11 -8 -15 0.3866 0.5687
-11 -8 -14 -2.4032 0.7941
-11 -8 -13 1.9771 0.7317
-11 -8 -12 -2.1153 3.2970
-11 -8 -11 2.9871 -0.4020
-11 -8 -9 0.1497 0.7524
-11 -8 -8 2.4740 -0.1043
-11 -8 -7 4.4626 2.9476
-11 -8 -5 5.6240 2.0955
-11 -8 -3 -0.3827 2.2128
-11 -8 -2 -5.1034 -8.0159
-11 -8 -1 4.4362 -3.1319
-11 -7 -19 3.5017 -4.0803
-11 -7 -18 3.1996 -0.2645
-11 -7 -17 3.4349 -6.9008
-11 -7 -16 -3.4813 -0.6555
-11 -7 -15 2.4038 0.0965
-11 -7 -14 -1.1464 1.1844
-11 -7 -13 8.9428 2.1074
-11 -7 -12 -0.7344 3.2241
-11 -7 -11 -4.5165 1.4398
-11 -7 -10 3.2110 -5.6477
-11 -7 -9 2.7694 -2.4097
-11 -7 -8 3.4605 -5.4686
-11 -7 -7 -3.3240 -11.7489
-11 -7 -6 -5.1336 -4.4576
-11 -7 -4 -3.1609 -6.6458
-11 -7 -3 8.1312 -5.5911
-11 -7 -2 6.5502 1.9853
-11 -7 -1 3.4941 -8.7093
-11 -6 -20 2.4360 -2.9410
-11 -6 -19 -2.4155 0.6737
-11 -6 -18 -2.7304 -11.2622
-11 -6 -17 -0.0424 6.3684
-11 -6 -16 3.0829 0.4492
-11 -6 -15 -5.1058 1.1820
-11 -6 -14 -1.1636 -6.0783
-11 -6 -13 0.3275 0.2557
-11 -6 -12 1.9674 -4.9575
-11 -6 -11 2.4482 -5.2406
-11 -6 -10 2.2855 -0.7272
-11 -6 -9 8.5881 10.3087
-11 -6 -7 -0.0691 -2.2423
-11 -6 -4 9.2589 -2.8234
-11 -6 -3 -0.5937 7.9838
-11 -6 -1 12.1260 9.4013
-11 -5 -20 2.9500 2.4785
-11 -5 -19 -5.1979 -3.6387
-11 -5 -18 -0.6667 1.3718
-11 -5 -17 -2.3833 -0.5060
-11 -5 -16 -3.5255 -2.7276
-11 -5 -15 -10.1049 11.0026
-11 -5 -14 -3.0621 -1.5845
-11 -5 -13 -10.4349 5.8168
-11 -5 -12 4.3325 0.6929
-11 -5 -11 1.9359 -2.5848
-11 -5 -10 -0.6134 -3.3586
-11 -5 -9 4.9282 5.8757
-11 -5 -8 -7.7666 -5.4195
-11 -5 -7 -1.1412 2.7784
-11 -5 -6 3.7325 2.7228
-11 -5 -5 4.0046 -5.2963
-11 -5 -4 1.2440 1.9052
-11 -5 -3 -2.2412 -4.8439
-11 -5 -2 -2.2971 -6.0889
-11 -5 -1 -1.8374 -9.7536
-11 -4 -20 -3.5418 0.3320
-11 -4 -19 0.4425 -4.2896
-11 -4 -18 3.0494 -0.9701
-11 -4 -17 0.4281 6.6017
-11 -4 -16 2.1083 0.9454
-11 -4 -15 5.2442 -4.4733
-11 -4 -14 4.0904 6.0698
-11 -4 -13 0.2922 4.2365
-11 -4 -12 4.8342 -5.8176
-11 -4 -11 -0.9458 -0.1541
-11 -4 -10 7.6524 3.0476
-11 -4 -9 4.4266 3.6569
-11 -4 -8 3.7241 -5.7598
-11 -4 -6 1.1257 10.6460
-11 -4 -4 -9.4357 -6.0825
-11 -4 -2 3.8629 5.1770
-11 -4 -1 12.6218 -6.9992
-11 -3 -21 5.8497 -2.0618
-11 -3 -20 -5.1552 -2.3525
-11 -3 -19 2.2960 1.7778
-11 -3 -18 2.0940 -2.8491
-11 -3 -17 -3.8557 2.1787
-11 -3 -16 -2.3113 2.5310
-11 -3 -15 -8.2060 -8.1366
-11 -3 -14 -2.7949 3.6631
-11 -3 -13 -2.6393 -0.9747
-11 -3 -12 -2.1845 -7.1872
-11 -3 -11 -1.4471 -0.9670
-11 -3 -10 -1.0224 -0.9738
-11 -3 -9 -4.9106 -4.0748
-11 -3 -8 -0.4763 0.9843
-11 -3 -6 -3.6104 -7.1588
-11 -3 -4 -5.5845 -2.1560
-11 -3 -3 10.6774 4.0929
-11 -3 -1 -3.0771 3.9050
-11 -2 -21 6.5313 -0.5540
-11 -2 -20 5.6817 1.9020
-11 -2 -19 6.6349 1.2812
-11 -2 -18 -0.2222 7.9148
-11 -2 -17 2.7967 4.8073
-11 -2 -16 -1.4098 1.1310
-11 -2 -15 2.0556 1.8448
-11 -2 -14 3.7468 4.0421
-11 -2 -13 1.5981 -0.4171
-11 -2 -12 4.7148 -2.4767
-11 -2 -11 -10.0661 5.3924
-11 -2 -10 -8.0531 -0.3913
-11 -2 -9 -7.7813 -3.7240
-11 -2 -8 -11.6140 1.3219
-11 -2 -7 -2.7812 1.0232
-11 -2 -6 7.5368 -3.2216
-11 -2 -4 2.3287 1.7645
-11 -2 -3 7.4005 2.6331
-11 -2 -2 -15.5011 4.4582
-11 -1 -21 1.5268 2.5583
-11 -1 -20 -0.8143 2.5575
-11 -1 -19 -0.4704 1.3827
-11 -1 -18 0.2893 5.3191
-11 -1 -17 -0.2435 -3.1353
-11 -1 -16 4.6966 -11.8842
-11 -1 -15 0.7603 2.1980
-11 -1 -14 -4.2374 -5.0943
-11 -1 -13 -2.0206 -0.4313
-11 -1 -12 12.6519 20.2125
-11 -1 -11 -4.4086 -3.7374
-11 -1 -10 1.7473 -1.5963
-11 -1 -9 9.7806 -4.1411
-11 -1 -8 -14.0277 -4.6521
-11 -1 -7 5.0536 17.6870
-11 -1 -6 -6.1278 6.2215
-11 -1 -5 -1.6657 4.0411
-11 -1 -2 -14.6830 -2.9318
-11 -1 -1 14.3097 7.7385
-10 -19 -6 4.9820 0.4145
-10 -19 -5 1.4136 -4.4896
-10 -19 -4 -5.5447 -2.7953
-10 -19 -3 -1.0045 -2.3692
-10 -19 -2 -4.8710 -2.9859
-10 -19 -1 -4.7962 3.6196
-10 -18 -9 -1.7939 -0.7688
-10 -18 -7 -5.2704 2.4435
-10 -18 -6 3.6454 0.9789
-10 -18 -5 -0.2380 -1.5104
-10 -18 -4 -3.0755 -5.8022
-10 -18 -3 7.4406 -1.0273
-10 -18 -2 -2.1224 -1.0411
-10 -18 -1 -1.5346 10.6491
-10 -17 -11 4.4111 5.3802
-10 -17 -10 1.7077 -0.0425
-10 -17 -9 2.6537 -7.3093
-10 -17 -8 11.0981 -3.7096
-10 -17 -7 -0.9921 -3.3173
-10 -17 -6 1.1965 -5.8510
-10 -17 -5 -5.8543 -6.0362
-10 -17 -4 -2.4914 -6.4432
-10 -17 -3 -1.6270 3.4233
-10 -17 -2 4.8091 -0.5152
-10 -17 -1 -6.3591 1.8521
-10 -16 -12 -10.0009 1.8759
-10 -16 -11 -1.5438 -2.3657
-10 -16 -10 0.8870 1.8221
-10 -16 -9 1.4888 5.8054
-10 -16 -8 -11.0222 5.0839
-10 -16 -7 3.6338 7.8270
-10 -16 -6 5.9993 4.5923
-10 -16 -5 -8.8269 -3.4506
-10 -16 -4 4.7071 0.0402
-10 -16 -3 -14.9184 2.1494
-10 -16 -2 -2.2174 -0.3041
-10 -16 -1 -9.5979 -4.4179
-10 -15 -14 0.2379 2.4876
-10 -15 -13 -3.9658 -0.9328
-10 -15 -12 2.9809 1.5833
-10 -15 -11 2.9559 -0.3028
-10 -15 -9 0.5454 3.9207
-10 -15 -8 -4.6690 -0.6213
-10 -15 -7 -6.8019 2.9868
-10 -15 -6 0.2184 -2.4002
-10 -15 -5 -0.1429 -7.3128
-10 -15 -4 -0.8763 10.9652
-10 -15 -3 9.5434 -1.3411
-10 -15 -2 -3.5212 9.1612
-10 -15 -1 -1.6400 6.1674
-10 -14 -15 3.4785 -0.2150
-10 -14 -14 2.4074 1.5733
-10 -14 -13 4.0917 -4.8124
-10 -14 -12 -2.3273 -9.9598
-10 -14 -11 -1.5224 -2.9544
-10 -14 -10 -0.3110 6.7302
-10 -14 -9 -2.6591 -5.5406
-10 -14 -7 -1.9940 3.9133
-10 -14 -6 4.9078 -0.7896
-10 -14 -5 3.4352 -5.2290
-10 -14 -4 0.3536 3.7842
-10 -14 -3 -0.9577 -3.7189
-10 -14 -2 8.8413 -1.6978
-10 -14 -1 -0.6969 -1.0009
-10 -13 -16 5.8691 -2.3735
-10 -13 -15 -6.4762 -4.4746
-10 -13 -14 -4.6210 0.8721
-10 -13 -13 -0.0250 -3.6618
-10 -13 -12 7.4472 -3.7837
-10 -13 -11 -0.0159 1.1331
-10 -13 -10 2.2600 -3.3557
-10 -13 -9 1.3531 2.6257
-10 -13 -8 4.3270 2.0715
-10 -13 -7 -4.8778 3.0024
-10 -13 -6 0.4646 -1.4643
-10 -13 -5 1.6301 6.0094
-10 -13 -4 -9.4629 1.3735
-10 -13 -3 4.3154 0.4517
-10 -13 -2 -2.9687 -1.3515
-10 -13 -1 6.0615 -1.2357
-10 -12 -17 -2.2133 -6.3792
-10 -12 -16 5.0562 3.6502
-10 -12 -15 -0.2203 -2.5028
-10 -12 -14 2.8449 3.6993
-10 -12 -13 -1.3156 -9.6132
-10 -12 -11 3.3441 7.5461
-10 -12 -10 2.2673 1.7434
-10 -12 -9 2.6140 -6.7984
-10 -12 -8 -8.9229 5.1634
-10 -12 -7 6.1977 2.6887
-10 -12 -6 7.2604 5.5519
-10 -12 -5 -5.3943 -4.1276
-10 -12 -4 6.8540 4.1796
-10 -12 -3 -3.1035 2.5079
-10 -12 -1 -2.9313 0.8070
-10 -11 -18 8.5556 0.6429
-10 -11 -17 0.4683 -4.8773
-10 -11 -16 -4.2284 -1.9681
-10 -11 -15 -1.0146 1.5424
-10 -11 -14 -1.4011 7.4343
-10 -11 -13 0.9160 -7.7806
-10 -11 -12 -5.4388 -1.5937
-10 -11 -11 0.2239 -3.8337
-10 -11 -9 5.0913 3.6909
-10 -11 -8 -8.8063 -0.4343
-10 -11 -7 4.3706 0.6492
-10 -11 -5 3.9602 0.1811
-10 -11 -4 0.5924 8.3408
-10 -11 -3 1.6376 -1.4458
-10 -11 -2 -4.1751 8.2604
-10 -11 -1 -0.7994 3.7062
-10 -10 -18 2.1912 -1.3371
-10 -10 -17 -5.9415 -0.4540
-10 -10 -16 1.0221 4.7299
-10 -10 -15 -4.9201 1.2568
-10 -10 -14 -0.2019 -2.0816
-10 -10 -13 -7.6036 10.6373
-10 -10 -12 -0.1263 -2.2460
-10 -10 -11 -4.0022 -2.8666
-10 -10 -10 0.6518 -3.0859
-10 -10 -9 -2.2938 -11.4592
-10 -10 -8 2.1060 -2.5759
-10 -10 -7 0.0646 0.6886
-10 -10 -6 -5.1097 -1.3592
-10 -10 -5 3.0235 3.3662
-10 -10 -4 6.8825 -13.0607
-10 -10 -3 -0.6357 -3.3560
-10 -10 -2 -0.9106 -5.9415
-10 -10 -1 2.4491 -4.6029
-10 -9 -19 -3.6170 -9.4894
-10 -9 -18 -2.2094 -0.4976
-10 -9 -17 -10.8685 -5.9079
-10 -9 -16 8.4918 2.9167
-10 -9 -15 -4.5244 2.9266
-10 -9 -14 0.9980 -2.3704
-10 -9 -13 -3.6016 -3.2910
-10 -9 -12 -7.4525 1.6501
-10 -9 -11 2.9692 0.8507
-10 -9 -9 4.9525 2.8423
-10 -9 -8 6.2142 4.4105
-10 -9 -7 -0.9565 -3.9445
-10 -9 -5 2.7616 6.8594
-10 -9 -4 -14.9835 -0.0456
-10 -9 -3 -12.8611 1.4993
-10 -9 -2 -7.2390 4.6424
-10 -9 -1 -8.4355 -4.5583
-10 -8 -20 -2.4905 2.0680
-10 -8 -19 3.5239 -2.1642
-10 -8 -18 -0.2298 -0.7906
-10 -8 -17 1.6001 4.4970
-10 -8 -16 3.7857 2.2668
-10 -8 -15 -8.3591 6.6739
-10 -8 -14 -1.0803 5.9740
-10 -8 -13 3.6539 -2.1329
-10 -8 -11 1.5212 -0.2009
-10 -8 -9 7.3389 -12.2267
-10 -8 -7 2.1851 -5.4854
-10 -8 -5 1.6825 -9.4515
-10 -8 -4 6.7087 3.5085
-10 -8 -3 -6.1059 7.1038
-10 -8 -1 8.4261 1.6009
-10 -7 -20 -0.9279 -2.3584
-10 -7 -19 -1.1779 -9.9751
-10 -7 -18 1.2949 6.7768
-10 -7 -17 3.5167 0.3449
-10 -7 -16 -3.4639 0.6536
-10 -7 -15 8.3296 2.5814
-10 -7 -14 0.6526 -1.6114
-10 -7 -13 0.2774 0.8240
-10 -7 -12 12.6058 -8.6234
-10 -7 -11 -2.5808 -5.6468
-10 -7 -10 0.7940 -6.5908
-10 -7 -9 15.6652 2.3309
-10 -7 -7 0.3622 4.9040
-10 -7 -6 -0.1793 -0.1174
-10 -7 -5 -8.4375 1.6505
-10 -7 -4 -1.1207 1.9346
-10 -7 -3 -4.3522 5.1390
-10 -7 -2 8.4769 13.3276
-10 -7 -1 -4.1293 2.2538
-10 -6 -20 2.6214 -4.1990
-10 -6 -19 -2.8533 0.0021
-10 -6 -18 2.0879 1.0441
-10 -6 -17 -1.0824 -4.7657
-10 -6 -16 -4.8895 7.1943
-10 -6 -15 0.4898 -2.3174
-10 -6 -14 7.0905 1.7569
-10 -6 -13 0.7531 4.8536
-10 -6 -12 4.6635 -8.7341
-10 -6 -11 0.9757 -4.6705
-10 -6 -10 1.0384 -5.7122
-10 -6 -9 -3.6710 -12.7683
-10 -6 -7 -0.7950 4.1768
-10 -6 -6 2.6594 -4.2079
-10 -6 -5 1.4154 -0.1148
-10 -6 -3 0.1430 -8.2120
-10 -6 -1 -8.9348 -4.7374
-10 -5 -21 -1.7421 0.4581
-10 -5 -20 -0.9664 -1.4610
-10 -5 -19 5.5628 -1.0810
-10 -5 -18 -5.1682 2.2329
-10 -5 -17 8.7331 -3.0177
-10 -5 -16 1.9053 -4.8738
-10 -5 -15 -2.0581 2.4784
-10 -5 -14 -6.0070 0.3787
-10 -5 -13 5.9719 -1.8009
-10 -5 -12 0.4897 4.4658
-10 -5 -11 -3.2002 -0.4069
-10 -5 -9 -0.4120 -2.4665
-10 -5 -8 -5.6832 1.5678
-10 -5 -7 -7.7008 1.1514
-10 -5 -6 6.9308 -4.1172
-10 -5 -5 5.0167 3.7259
-10 -5 -1 1.5835 -7.8743
-10 -4 -21 1.6740 -0.4276
-10 -4 -20 -2.9109 -2.6021
-10 -4 -19 -2.4655 3.0160
-10 -4 -18 5.3801 -6.0321
-10 -4 -17 4.7560 0.3196
-10 -4 -16 -0.7064 2.3457
-10 -4 -15 2.3915 0.7415
-10 -4 -14 -3.4325 0.1135
-10 -4 -13 -2.3954 -11.5418
-10 -4 -12 1.6308 -1.8187
-10 -4 -10 -1.8213 5.3264
-10 -4 -7 3.9625 2.3755
-10 -3 -21 0.1084 -1.0085
-10 -3 -20 4.2359 -8.7345
-10 -3 -19 -2.6714 -4.3471
-10 -3 -18 6.0455 -1.5157
-10 -3 -17 0.0703 -4.1289
-10 -3 -16 0.1458 3.2416
-10 -3 -15 2.0167 1.6575
-10 -3 -14 0.9702 -3.6660
-10 -3 -13 5.0330 -2.0386
-10 -3 -12 -0.2139 -5.8710
-10 -3 -11 1.1596 2.1932
-10 -3 -10 1.2889 -0.2983
-10 -3 -9 -5.1029 -0.2041
-10 -3 -8 -2.3568 4.5172
-10 -3 -7 5.5573 1.6071
-10 -3 -6 3.3300 3.1156
-10 -3 -5 3.0938 -2.8912
-10 -3 -4 2.2998 6.1077
-10 -3 -3 2.8117 -10.1084
-10 -3 -1 8.7684 -3.1623
-10 -2 -21 -3.4434 -2.0497
-10 -2 -20 1.7466 -6.2681
-10 -2 -19 -0.3297 -4.4626
-10 -2 -18 0.4511 -4.7686
-10 -2 -17 -2.4907 -3.8196
-10 -2 -16 -4.1711 0.2882
-10 -2 -15 -1.5526 6.0364
-10 -2 -14 -3.3533 -8.8182
-10 -2 -13 -0.9635 10.0241
-10 -2 -11 -3.8209 -9.3931
-10 -2 -10 0.2704 8.1843
-10 -2 -9 2.9321 -2.2594
-10 -2 -7 5.1386 2.1883
-10 -2 -6 -10.5235 -6.8079
-10 -2 -3 0.4610 -4.7912
-10 -1 -21 -2.6901 -5.4430
-10 -1 -20 4.3765 2.9327
-10 -1 -19 -4.3972 8.3822
-10 -1 -18 10.5683 -1.0758
-10 -1 -17 5.7478 1.7392
-10 -1 -16 -5.9566 2.3424
-10 -1 -15 2.3544 4.0317
-10 -1 -14 -5.1750 -2.7751
-10 -1 -13 -11.0260 -2.7488
-10 -1 -12 7.8949 3.6287
-10 -1 -11 9.3887 -0.8095
-10 -1 -9 11.6407 -7.2595
-10 -1 -8 -9.8602 4.6051
-10 -1 -7 -14.1334 -4.1086
-10 -1 -6 16.3093 0.9935
-10 -1 -5 -1.6061 -7.4073
-10 -1 -1 -7.9351 0.4943
-9 -20 -3 -2.1805 -3.7935
-9 -20 -2 -4.3973 0.0408
-9 -20 -1 4.4107 3.7876
-9 -19 -7 1.7716 0.5082
-9 -19 -6 0.9792 -1.2496
-9 -19 -5 2.5832 -0.7066
-9 -19 -4 -3.1833 -0.1704
-9 -19 -3 0.5547 -3.8278
-9 -19 -2 1.1731 2.2013
-9 -19 -1 -2.0354 4.7380
-9 -18 -10 3.8929 -0.0723
-9 -18 -9 4.8419 4.2273
-9 -18 -8 -0.8451 0.4326
-9 -18 -7 2.0285 -4.4313
-9 -18 -6 -1.6068 -0.9189
-9 -18 -5 0.5478 5.4903
-9 -18 -4 -2.5818 0.3044
-9 -18 -3 2.6448 3.4663
-9 -18 -2 0.8493 -0.3326
-9 -18 -1 4.2664 2.3239
-9 -17 -12 6.9593 -0.0516
-9 -17 -11 -0.1014 0.4249
-9 -17 -10 -1.5821 0.0439
-9 -17 -9 0.6410 0.1098
-9 -17 -8 2.3337 4.2543
-9 -17 -7 5.0614 9.7060
-9 -17 -6 -5.8153 -7.8054
-9 -17 -5 4.6911 1.0930
-9 -17 -4 -5.2437 -7.9787
-9 -17 -3 0.1756 -0.3738
-9 -17 -2 -0.4165 5.1139
-9 -17 -1 -2.1752 2.1250
-9 -16 -13 -2.6953 3.4907
-9 -16 -12 -1.3182 1.1126
-9 -16 -11 4.6306 -4.7281
-9 -16 -10 1.5553 2.2874
-9 -16 -9 3.2125 0.5341
-9 -16 -8 -5.1217 -0.5790
-9 -16 -7 -1.8394 0.9837
-9 -16 -6 -0.4362 -3.6613
-9 -16 -5 -6.4270 -0.5133
-9 -16 -4 9.8406 -6.6600
-9 -16 -3 -4.0649 -2.8347
-9 -16 -2 -0.4595 2.4387
-9 -16 -1 -1.4702 1.4299
-9 -15 -14 -2.9878 1.8933
-9 -15 -13 -3.3956 2.4428
-9 -15 -12 -1.3783 0.5286
-9 -15 -11 -4.2585 2.7252
-9 -15 -10 -0.6019 -0.4901
-9 -15 -9 -0.7073 4.6148
-9 -15 -8 3.5430 5.7761
-9 -15 -7 -0.6285 -6.6332
-9 -15 -6 -3.3529 3.7968
-9 -15 -5 2.3928 0.2973
-9 -15 -4 -3.5171 3.3927
-9 -15 -3 4.7154 5.4535
-9 -15 -2 -12.1275 -2.0339
-9 -15 -1 2.9936 -1.9637
-9 -14 -16 1.9090 1.0862
-9 -14 -15 -6.3287 3.1939
-9 -14 -14 2.9038 5.7045
-9 -14 -13 -7.1511 2.3984
-9 -14 -12 5.5307 -3.5675
-9 -14 -11 1.6194 -4.5730
-9 -14 -10 -2.3308 0.4508
-9 -14 -9 1.2286 7.8952
-9 -14 -8 -2.2796 -0.8873
-9 -14 -7 6.2231 -1.3927
-9 -14 -6 0.1428 1.6229
-9 -14 -5 2.3321 -1.8454
-9 -14 -4 2.2911 6.0519
-9 -14 -3 -9.3007 0.4868
-9 -14 -2 -1.8421 -0.1588
-9 -14 -1 -1.0164 5.1224
-9 -13 -17 0.3425 1.6065
-9 -13 -16 5.6184 2.3283
-9 -13 -15 2.8771 -0.3222
-9 -13 -14 9.0998 -2.0114
-9 -13 -13 0.7158 -3.7838
-9 -13 -12 3.4156 4.8745
-9 -13 -11 1.2372 6.8653
-9 -13 -10 3.6837 -4.0169
-9 -13 -9 -6.3221 -3.7946
-9 -13 -8 -1.4945 3.4823
-9 -13 -7 -2.3608 6.0926
-9 -13 -6 0.0540 -7.4554
-9 -13 -5 7.2388 2.5324
-9 -13 -4 -0.6564 0.5522
-9 -13 -3 -1.9321 8.2477
-9 -13 -2 6.9430 -1.0534
-9 -13 -1 5.3135 1.7530
-9 -12 -17 3.8812 -2.7697
-9 -12 -16 -1.0426 -0.7432
-9 -12 -15 2.9519 3.3511
-9 -12 -14 -0.0091 -3.9050
-9 -12 -13 0.6397 -5.6770
-9 -12 -12 3.2073 -5.9813
-9 -12 -11 2.9239 -5.0925
-9 -12 -10 -2.2547 -7.0455
-9 -12 -9 2.4173 -7.3089
-9 -12 -8 1.8262 3.2972
-9 -12 -7 1.0342 6.5793
-9 -12 -6 -4.4502 -4.3905
-9 -12 -5 -1.3350 8.4305
-9 -12 -4 -11.4265 0.2394
-9 -12 -3 -8.1826 0.0161
-9 -12 -2 1.8049 7.9293
-9 -12 -1 -1.1741 3.8987
-9 -11 -18 -0.5851 -5.5622
-9 -11 -17 0.6180 3.3866
-9 -11 -16 1.2670 -3.1438
-9 -11 -15 7.5006 -0.5351
-9 -11 -14 -7.2858 0.5899
-9 -11 -13 0.4590 7.4093
-9 -11 -12 -0.6471 6.7344
-9 -11 -11 0.0025 0.4374
-9 -11 -10 -8.2489 -0.9856
-9 -11 -9 -10.6026 -0.0613
-9 -11 -8 2.1277 2.6932
-9 -11 -7 -3.2113 -2.4633
-9 -11 -6 3.9956 7.5347
-9 -11 -5 -0.7934 6.4462
-9 -11 -4 -5.5367 -2.4565
-9 -11 -3 7.0446 1.6936
-9 -11 -2 0.1128 -7.7774
-9 -11 -1 3.6716 -1.7117
-9 -10 -19 -3.5988 0.7159
-9 -10 -18 -9.7924 -8.9110
-9 -10 -17 3.6269 -0.3047
-9 -10 -16 -2.9422 -2.6218
-9 -10 -15 -3.1869 -0.1088
-9 -10 -14 1.3926 -1.1474
-9 -10 -13 0.3632 2.8032
-9 -10 -12 1.1880 3.3537
-9 -10 -11 -1.5141 -1.4393
-9 -10 -10 4.8056 3.0645
-9 -10 -9 1.2419 2.5973
-9 -10 -7 3.6983 -0.6690
-9 -10 -6 -3.0784 6.1510
-9 -10 -5 -2.0359 -10.2180
-9 -10 -4 4.9400 5.8280
-9 -10 -3 -0.6748 6.5491
-9 -10 -2 9.2538 -0.6947
-9 -10 -1 -0.9342 4.3853
-9 -9 -19 -5.7966 -4.1746
-9 -9 -18 -0.2973 3.0101
-9 -9 -17 6.9081 3.7857
-9 -9 -16 0.0297 -4.9052
-9 -9 -15 -4.5916 4.0986
-9 -9 -14 -6.6593 -1.1075
-9 -9 -13 -2.7021 -1.9023
-9 -9 -12 -9.0980 -6.3380
-9 -9 -11 -6.5230 -3.8281
-9 -9 -10 6.8757 -6.2155
-9 -9 -9 -2.6218 -1.6663
-9 -9 -8 -4.8884 0.8528
-9 -9 -7 5.0490 2.2345
-9 -9 -6 0.1856 -4.9877
-9 -9 -5 -5.7997 -1.3134
-9 -9 -4 -3.7382 -7.8327
-9 -9 -3 2.1643 1.5263
-9 -9 -2 9.7699 -2.3535
-9 -9 -1 2.7838 -7.5769
-9 -8 -20 -6.7807 -2.5138
-9 -8 -19 -7.0142 1.8273
-9 -8 -18 2.1579 -12.9234
-9 -8 -17 0.3895 1.9331
-9 -8 -16 -5.8761 0.5121
-9 -8 -15 1.8098 3.2425
-9 -8 -14 -1.8658 -1.7914
-9 -8 -13 2.5055 2.6047
-9 -8 -12 -8.3610 -6.6072
-9 -8 -11 -2.8790 -6.5978
-9 -8 -9 8.7557 -8.8175
-9 -8 -7 2.1041 7.3667
-9 -8 -6 -4.1495 -10.4764
-9 -8 -5 -3.8173 5.1207
-9 -8 -4 0.1087 10.1902
-9 -8 -3 -1.7126 -4.6490
-9 -8 -1 -0.6182 -1.6519
-9 -7 -21 -0.4931 -2.2791
-9 -7 -20 -1.1060 -5.1950
-9 -7 -19 -3.3935 -1.9586
-9 -7 -18 -2.2272 -2.2663
-9 -7 -17 3.2009 -3.5028
-9 -7 -16 -6.7046 2.3968
-9 -7 -15 1.2459 7.3066
-9 -7 -14 1.2648 -1.3575
-9 -7 -13 5.3443 -2.7523
-9 -7 -12 0.9592 -10.5349
-9 -7 -11 4.9975 -2.6430
-9 -7 -10 6.0982 -3.4364
-9 -7 -9 -12.3377 -4.4893
-9 -7 -8 -0.5692 3.7612
-9 -7 -7 -5.0141 5.1733
-9 -7 -6 -8.8658 -0.9218
-9 -7 -3 10.4219 3.2094
-9 -7 -2 -4.1909 -8.3875
-9 -7 -1 10.1060 -0.0023
-9 -6 -21 -3.8080 -3.1215
-9 -6 -20 0.4975 -2.4611
-9 -6 -19 -0.7513 2.4883
-9 -6 -18 4.4411 1.3375
-9 -6 -17 -5.2317 -0.4289
-9 -6 -16 2.9723 6.0324
-9 -6 -15 -3.5967 0.8852
-9 -6 -14 4.4934 4.3548
-9 -6 -13 -5.9914 6.0628
-9 -6 -12 -6.3048 -10.6461
-9 -6 -11 14.3365 6.0418
-9 -6 -9 7.9794 -4.7742
-9 -6 -8 4.8707 -3.0716
-9 -6 -7 -2.7748 0.5124
-9 -6 -6 1.2197 2.9453
-9 -6 -1 -1.7935 2.1754
-9 -5 -21 3.9149 -5.2025
-9 -5 -20 -3.9927 5.8791
-9 -5 -19 5.3199 5.1967
-9 -5 -18 -0.5286 -0.5102
-9 -5 -17 0.3259 -2.9603
-9 -5 -16 2.8727 -3.7489
-9 -5 -15 1.5409 2.4113
-9 -5 -14 8.4771 0.1307
-9 -5 -13 3.4561 2.2705
-9 -5 -12 0.7058 -2.3404
-9 -5 -11 2.8349 -10.4398
-9 -5 -10 -0.0642 -4.2126
-9 -5 -9 -3.4485 0.8589
-9 -5 -8 -1.9014 2.4135
-9 -5 -7 -2.8709 0.7418
-9 -5 -6 -0.3709 -1.9317
-9 -5 -5 -1.1037 -4.8554
-9 -5 -4 -1.2011 4.9202
-9 -5 -3 -13.4553 -0.7418
-9 -5 -2 -12.8635 -2.4405
-9 -5 -1 -6.7272 0.2317
-9 -4 -21 4.2666 -2.2126
-9 -4 -20 -5.1423 -2.5208
-9 -4 -19 -6.7498 4.8977
-9 -4 -18 -5.3067 -4.6307
-9 -4 -17 -1.2168 -0.0734
-9 -4 -16 2.0753 -0.9529
-9 -4 -15 -4.1110 -4.2398
-9 -4 -14 -3.2081 0.7874
-9 -4 -13 0.0350 -6.8132
-9 -4 -12 7.4707 -0.5265
-9 -4 -11 -1.5943 -1.4016
-9 -4 -10 0.3986 -7.9316
-9 -4 -9 6.1249 -6.7346
-9 -4 -8 -2.8253 -3.9360
-9 -4 -7 -2.4568 2.7935
-9 -4 -6 -2.0241 3.9445
-9 -4 -5 -2.9749 10.7834
-9 -4 -4 1.5008 10.1891
-9 -4 -2 0.0075 -1.9898
-9 -4 -1 6.8367 -1.3276
-9 -3 -22 -0.8672 3.4034
-9 -3 -21 -0.4092 5.1658
-9 -3 -20 -0.0610 0.2805
-9 -3 -19 -0.3952 -2.3182
-9 -3 -18 -7.3936 -4.7945
-9 -3 -17 -0.7017 -4.8801
-9 -3 -16 -3.0588 4.0217
-9 -3 -15 5.9788 -4.7317
-9 -3 -14 -5.8584 5.1924
-9 -3 -13 -1.5480 0.5914
-9 -3 -12 -1.7431 -4.1342
-9 -3 -11 -11.5406 7.8877
-9 -3 -9 -0.7071 -1.3230
-9 -3 -8 1.5984 3.2149
-9 -3 -7 -2.1750 -5.8217
-9 -3 -6 10.2749 -7.1275
-9 -3 -4 -7.3313 -0.5125
-9 -3 -3 1.6180 10.1203
-9 -3 -1 9.7642 -6.7582
-9 -2 -22 0.0859 -0.6754
-9 -2 -21 -2.6397 1.5161
-9 -2 -20 -5.2235 -1.4530
-9 -2 -19 4.0167 1.8541
-9 -2 -18 -1.5094 1.3582
-9 -2 -17 6.0799 3.2763
-9 -2 -16 0.4392 -7.3183
-9 -2 -15 2.6923 0.7731
-9 -2 -14 8.5550 -3.9823
-9 -2 -13 1.9971 3.9291
-9 -2 -12 5.5292 8.4940
-9 -2 -11 -6.5037 0.7784
-9 -2 -10 -3.3568 9.4558
-9 -2 -9 -4.9363 -1.8844
-9 -2 -8 2.1046 3.6694
-9 -2 -7 2.4840 4.2708
-9 -2 -6 9.6738 0.7034
-9 -2 -4 1.3215 -4.7659
-9 -2 -2 -2.3676 -4.4944
-9 -1 -22 0.0329 0.6806
-9 -1 -21 -2.8057 2.1232
-9 -1 -20 2.0617 -3.2154
-9 -1 -19 -1.6817 4.2678
-9 -1 -18 -4.1910 2.3250
-9 -1 -17 0.3487 -11.1012
-9 -1 -16 -2.7196 -3.9588
-9 -1 -15 -9.4064 0.6586
-9 -1 -14 5.4821 -4.3086
-9 -1 -13 5.2462 3.8338
-9 -1 -12 1.6030 1.9646
-9 -1 -11 2.5270 -12.3293
-9 -1 -10 -6.8424 -3.1142
-9 -1 -9 -4.5723 -0.6518
-9 -1 -8 3.4911 -18.2013
-9 -1 -7 1.9560 7.7227
-9 -1 -6 9.7521 7.1002
-9 -1 -5 0.5010 8.5284
-9 -1 -4 -13.3499 4.3116
-9 -1 -3 7.1918 -1.8519
-9 -1 -2 6.1349 -17.2955
-9 -1 -1 -12.0254 -0.0091
-8 -20 -5 1.8207 -6.8506
-8 -20 -4 3.3641 -2.0305
-8 -20 -3 0.2372 -4.2774
-8 -20 -2 -2.1616 -2.4300
-8 -20 -1 0.8962 0.1621
-8 -19 -9 6.3171 -1.2786
-8 -19 -8 -2.3472 -0.7701
-8 -19 -7 -0.2678 -1.1183
-8 -19 -6 1.1102 7.7293
-8 -19 -5 -4.4359 0.9499
-8 -19 -4 -2.5537 6.4697
-8 -19 -3 -2.6928 5.4253
-8 -19 -2 4.7237 -1.0215
-8 -19 -1 0.9613 -3.9099
-8 -18 -11 -3.4230 1.3161
-8 -18 -10 1.5655 -0.5440
-8 -18 -9 3.8580 -6.6692
-8 -18 -8 -0.7069 2.7284
-8 -18 -7 -1.5508 -3.0773
-8 -18 -6 -0.2602 -1.0022
-8 -18 -5 -6.0839 -3.8860
-8 -18 -4 -2.0481 -3.6995
-8 -18 -3 -8.7116 3.7748
-8 -18 -2 6.4775 -1.8787
-8 -18 -1 2.5714 7.4066
-8 -17 -12 -0.8922 0.6004
-8 -17 -11 2.7077 -0.2626
-8 -17 -10 2.8396 -1.2789
-8 -17 -9 -1.7761 -2.0143
-8 -17 -8 -3.7271 5.9968
-8 -17 -7 -2.6611 5.6222
-8 -17 -6 -1.9638 2.3931
-8 -17 -5 2.3196 -3.3293
-8 -17 -4 3.4993 4.0407
-8 -17 -3 -3.1972 -5.1997
-8 -17 -2 -3.3458 -2.0677
-8 -17 -1 -2.3373 0.5662
-8 -16 -14 0.1367 -2.0726
-8 -16 -13 -1.7560 4.1123
-8 -16 -12 -3.6089 -1.6549
-8 -16 -11 -0.8189 5.6507
-8 -16 -10 0.3359 4.2233
-8 -16 -9 3.4455 6.6174
-8 -16 -8 3.7943 1.8415
-8 -16 -7 4.2489 0.7156
-8 -16 -6 0.6902 3.8588
-8 -16 -5 -2.6124 -3.9589
-8 -16 -4 1.1611 12.1366
-8 -16 -3 1.3532 -1.4407
-8 -16 -2 5.7299 10.4989
-8 -16 -1 -2.1615 -2.1493
-8 -15 -15 -3.6441 0.4028
-8 -15 -14 1.8302 4.4958
-8 -15 -13 0.7080 -2.1955
-8 -15 -12 1.2920 0.1703
-8 -15 -11 4.3596 0.1193
-8 -15 -10 3.9551 2.6648
-8 -15 -9 -0.9582 -2.9235
-8 -15 -8 0.0191 8.2741
-8 -15 -7 -0.3590 3.7428
-8 -15 -6 -0.6533 -5.0550
-8 -15 -5 1.5213 2.1176
-8 -15 -4 -8.2408 -2.3696
-8 -15 -3 4.5185 -4.1273
-8 -15 -2 -1.3085 0.0295
-8 -15 -1 0.5131 0.3187
-8 -14 -16 -0.5935 -3.0990
-8 -14 -15 -4.5679 1.9631
-8 -14 -14 0.7942 0.9153
-8 -14 -13 -1.2137 -0.0136
-8 -14 -12 -3.6226 -0.1700
-8 -14 -11 4.0194 6.5081
-8 -14 -10 -3.3958 6.1440
-8 -14 -9 -0.6413 1.7751
-8 -14 -8 -2.1572 -2.4380
-8 -14 -6 -0.3584 3.7863
-8 -14 -5 3.4350 -3.0891
-8 -14 -4 2.1996 0.2133
-8 -14 -3 6.2762 3.2111
-8 -14 -2 -5.3278 0.4158
-8 -14 -1 4.2160 -0.9527
-8 -13 -17 -6.8317 -1.4258
-8 -13 -16 3.4322 5.9528
-8 -13 -15 10.3027 2.2258
-8 -13 -14 -1.7365 -7.7235
-8 -13 -13 2.2972 -6.6526
-8 -13 -12 -0.8479 -0.7875
-8 -13 -11 -2.1545 -5.1774
-8 -13 -10 2.9120 1.4566
-8 -13 -9 0.9541 -1.1723
-8 -13 -8 12.5486 4.9872
-8 -13 -7 7.6878 -2.5179
-8 -13 -6 -0.2164 -2.0951
-8 -13 -5 -0.3262 8.6036
-8 -13 -4 0.2255 1.1300
-8 -13 -3 -2.2579 9.6069
-8 -13 -2 -7.7473 -1.9686
-8 -13 -1 0.5631 -5.6746
-8 -12 -18 1.9170 6.3843
-8 -12 -17 -0.1955 -1.7776
-8 -12 -16 -2.9477 -4.6711
-8 -12 -15 -4.9886 -3.1090
-8 -12 -14 2.3620 1.3871
-8 -12 -13 8.6408 0.1119
-8 -12 -12 4.6022 -3.7889
-8 -12 -11 3.1814 3.3023
-8 -12 -10 -6.1813 -4.0409
-8 -12 -9 0.8768 4.7659
-8 -12 -8 3.4294 -3.2027
-8 -12 -7 4.9105 -1.2672
-8 -12 -6 8.6507 0.0251
-8 -12 -5 2.2016 1.6570
-8 -12 -4 3.8648 8.1513
-8 -12 -3 -4.9919 -5.1741
-8 -12 -2 -0.7461 -1.7625
-8 -12 -1 6.5980 -1.7402
-8 -11 -19 -2.5086 -4.1303
-8 -11 -18 -4.4977 5.2203
-8 -11 -17 0.4935 0.9457
-8 -11 -16 1.0405 3.0415
-8 -11 -15 -1.7758 4.8256
-8 -11 -14 -3.5248 -1.1196
-8 -11 -13 -6.2483 3.6049
-8 -11 -12 0.8375 -3.6206
-8 -11 -10 2.4068 -5.4162
-8 -11 -9 5.1038 -3.3214
-8 -11 -8 8.8407 -1.3960
-8 -11 -7 -0.8585 0.0164
-8 -11 -6 -0.4385 0.5262
-8 -11 -5 -1.6660 4.9462
-8 -11 -4 -5.1639 -2.9602
-8 -11 -3 -1.2652 5.0086
-8 -11 -2 1.1284 -0.7610
-8 -11 -1 2.6778 0.2126
-8 -10 -19 -2.5417 7.2554
-8 -10 -18 -0.4273 0.8339
-8 -10 -17 0.7021 -5.7976
-8 -10 -16 -3.8197 5.0270
-8 -10 -15 1.0999 4.6084
-8 -10 -14 0.1244 5.5024
-8 -10 -13 0.8596 -1.1466
-8 -10 -11 -6.7814 -3.8109
-8 -10 -9 0.4142 -8.5826
-8 -10 -7 6.0610 -2.5485
-8 -10 -5 -2.6067 15.6591
-8 -10 -4 -6.4810 -8.5370
-8 -10 -3 -10.0631 5.4305
-8 -10 -2 2.2420 -5.1317
-8 -10 -1 -10.6298 -5.3477
-8 -9 -20 -1.7507 9.3443
-8 -9 -19 1.3805 3.4008
-8 -9 -18 -4.8125 6.6914
-8 -9 -17 -3.1536 -10.7627
-8 -9 -16 5.0987 7.0321
-8 -9 -15 5.0678 0.4168
-8 -9 -14 -3.0405 -6.1729
-8 -9 -13 2.4029 5.1567
-8 -9 -11 -4.8979 2.1385
-8 -9 -10 6.0392 -4.8083
-8 -9 -9 3.2178 -4.0145
-8 -9 -7 10.9226 -3.4318
-8 -9 -6 -4.7308 8.8472
-8 -9 -5 -6.1273 13.1509
-8 -9 -4 9.7322 0.8989
-8 -9 -3 -1.5760 7.8062
-8 -9 -1 7.3660 -9.0541
-8 -8 -20 -10.8482 -0.5598
-8 -8 -19 4.7112 1.4404
-8 -8 -18 7.0214 -8.5368
-8 -8 -17 -6.2178 -0.2342
-8 -8 -16 4.8223 1.7295
-8 -8 -15 4.0468 -0.5275
-8 -8 -14 3.2058 -1.0187
-8 -8 -13 3.7516 -0.2001
-8 -8 -12 -2.8453 -1.6325
-8 -8 -11 0.2280 -4.7951
-8 -8 -10 -3.0358 -4.0206
-8 -8 -9 5.7558 7.8159
-8 -8 -8 -10.4197 1.7146
-8 -8 -7 -4.1356 4.0252
-8 -8 -6 -1.0759 9.0037
-8 -8 -5 -10.1640 0.7643
-8 -8 -4 -5.2111 0.8990
-8 -8 -3 10.1702 -3.1707
-8 -8 -2 10.2669 -3.3584
-8 -8 -1 2.6389 -6.3433
-8 -7 -21 -6.6598 -1.4413
-8 -7 -20 1.0970 5.6056
-8 -7 -19 0.0717 -5.0612
-8 -7 -18 -4.4610 -7.3022
-8 -7 -17 -1.9200 -0.6317
-8 -7 -16 1.3764 10.9486
-8 -7 -15 1.9518 -5.3959
-8 -7 -14 -1.9395 -0.9672
-8 -7 -13 -1.2441 -14.0617
-8 -7 -12 4.4229 3.0309
-8 -7 -11 -0.3902 -7.7796
-8 -7 -10 -2.4255 -7.7419
-8 -7 -9 -6.7866 6.9728
-8 -7 -7 9.6576 6.1517
-8 -7 -6 -7.8187 10.2331
-8 -7 -5 16.7905 0.3871
-8 -7 -4 8.4990 12.2933
-8 -7 -3 3.0905 -6.7371
-8 -7 -1 -2.8211 4.1378
-8 -6 -21 -9.6232 -1.5068
-8 -6 -20 -0.1919 0.2006
-8 -6 -19 7.6590 2.6075
-8 -6 -18 -4.1006 5.0073
-8 -6 -17 0.3607 -4.1801
-8 -6 -16 2.8633 -1.7408
-8 -6 -15 0.1855 0.9238
-8 -6 -14 -4.5146 -0.8561
-8 -6 -13 -0.2346 -5.4725
-8 -6 -12 0.9347 -2.9995
-8 -6 -11 -0.1584 -4.7215
-8 -6 -9 -16.3445 -0.2624
-8 -6 -5 8.1072 -0.6183
-8 -6 -3 19.5693 -2.4854
-8 -6 -1 -6.1151 -13.3371
-8 -5 -21 2.7245 -3.0166
-8 -5 -20 -0.0164 -1.0001
-8 -5 -19 2.4681 -12.4895
-8 -5 -18 -0.9936 -1.1057
-8 -5 -17 -5.4177 3.4696
-8 -5 -16 4.7097 -4.9520
-8 -5 -15 2.3720 6.5008
-8 -5 -14 -2.7187 4.3561
-8 -5 -13 4.8409 1.2906
-8 -5 -12 2.3337 9.5876
-8 -5 -11 -2.7775 -13.1103
-8 -5 -10 -1.0673 3.1087
-8 -5 -9 4.6795 -4.1811
-8 -5 -8 -1.4651 -5.9480
-8 -5 -7 -7.7056 7.3985
-8 -5 -6 -5.2228 -4.2799
-8 -5 -5 -3.6716 -2.6594
-8 -5 -3 -6.8599 -7.5492
-8 -5 -2 -1.6262 -4.0968
-8 -4 -22 -2.3085 -1.7562
-8 -4 -21 -1.8995 3.1421
-8 -4 -20 6.9110 3.8855
-8 -4 -19 -2.2880 -0.8213
-8 -4 -18 -7.1278 -0.7312
-8 -4 -17 2.2350 -3.9623
-8 -4 -16 -5.6729 4.0601
-8 -4 -15 -0.6724 1.7310
-8 -4 -14 -2.8773 -4.6272
-8 -4 -13 1.0319 -4.3365
-8 -4 -12 -5.4783 -2.9413
-8 -4 -11 6.9272 -3.3927
-8 -4 -9 -0.0870 4.1859
-8 -4 -8 3.5503 5.7618
-8 -4 -7 -4.4061 1.1449
-8 -4 -6 -1.4908 1.6181
-8 -4 -5 -8.7923 -5.9425
-8 -4 -2 -8.5278 -5.2697
-8 -4 -1 9.9680 1.1148
-8 -3 -22 1.8387 -6.1730
-8 -3 -21 1.0654 3.8798
-8 -3 -20 -0.8300 2.8770
-8 -3 -19 1.4937 4.3446
-8 -3 -18 0.9890 8.5397
-8 -3 -17 -3.8379 -3.4681
-8 -3 -16 -4.1861 2.9334
-8 -3 -15 -2.6626 8.8235
-8 -3 -14 -7.3269 -9.4193
-8 -3 -13 -0.4807 3.4724
-8 -3 -11 -0.4364 -0.8276
-8 -3 -10 5.8233 0.7500
-8 -3 -9 3.7365 3.4669
-8 -3 -7 4.5400 -0.3097
-8 -3 -6 -6.2642 -6.1697
-8 -3 -4 1.8815 -4.6340
-8 -2 -22 4.3804 1.7766
-8 -2 -21 3.8877 -1.6691
-8 -2 -20 -6.2870 0.4028
-8 -2 -19 -11.2310 1.3564
-8 -2 -18 -0.9512 0.5676
-8 -2 -16 1.9743 -2.1434
-8 -2 -15 3.7739 2.2876
-8 -2 -14 5.8536 -1.2197
-8 -2 -10 4.9863 1.4739
-8 -2 -9 4.7732 -1.8853
-8 -2 -8 -0.7326 -8.5574
-8 -2 -6 -6.5843 -4.6997
-8 -2 -5 -4.1891 -0.9553
-8 -2 -1 -12.9465 1.6269
-8 -1 -22 -1.0362 -0.0277
-8 -1 -21 -0.8552 2.9647
-8 -1 -20 2.5432 11.5722
-8 -1 -19 -3.0994 -0.8703
-8 -1 -18 -0.0799 -4.8487
-8 -1 -17 1.8071 -7.9787
-8 -1 -16 6.1709 -8.4429
-8 -1 -15 8.0453 7.2577
-8 -1 -14 5.7158 14.1758
-8 -1 -13 4.0507 3.9725
-8 -1 -12 -1.4525 4.6765
-8 -1 -11 0.4648 -6.5090
-8 -1 -10 -8.0380 -17.8283
-8 -1 -9 1.1473 4.7797
-8 -1 -7 15.9861 -6.1280
-8 -1 -4 0.5035 0.5240
-8 -1 -3 -1.9081 12.9986
-8 -1 -1 -2.4444 6.3893
-7 -21 -1 -3.3587 2.1341
-7 -20 -7 2.3339 2.9074
-7 -20 -6 0.1241 -3.1157
-7 -20 -5 -0.5529 5.7340
-7 -20 -4 -2.2092 -2.7620
-7 -20 -3 2.9456 6.7094
-7 -20 -2 -2.2922 -5.3420
-7 -20 -1 1.4723 -5.2967
-7 -19 -10 3.5870 -0.3772
-7 -19 -9 -3.1933 4.4234
-7 -19 -8 4.8591 -5.2937
-7 -19 -7 -5.8388 -2.1346
-7 -19 -6 0.7931 -6.3383
-7 -19 -5 -2.3546 -4.4905
-7 -19 -4 -0.2649 -3.6156
-7 -19 -3 -0.9368 -5.4768
-7 -19 -2 -1.0932 4.5652
-7 -19 -1 -3.1131 -1.0002
-7 -18 -12 7.2204 0.9648
-7 -18 -11 0.6113 0.8352
-7 -18 -10 -2.5157 0.1399
-7 -18 -9 -0.8501 -4.2779
-7 -18 -8 -1.1347 6.7282
-7 -18 -7 0.2776 -0.5196
-7 -18 -6 -2.1877 2.5989
-7 -18 -5 -0.8281 3.8024
-7 -18 -4 4.0828 0.7955
-7 -18 -3 1.0497 0.7432
-7 -18 -2 -5.8085 -6.7376
-7 -18 -1 -2.6663 -4.3145
-7 -17 -13 -0.8678 1.7697
-7 -17 -12 -5.0742 -0.8908
-7 -17 -11 3.7739 0.3079
-7 -17 -10 -1.8678 -0.0503
-7 -17 -9 -3.3920 0.0434
-7 -17 -8 0.7933 -3.0598
-7 -17 -7 -1.2400 3.4080
-7 -17 -6 0.2843 -2.3477
-7 -17 -5 2.4073 3.6509
-7 -17 -4 -2.6918 -0.2631
-7 -17 -3 -6.3310 4.2202
-7 -17 -2 -2.1353 3.5643
-7 -17 -1 -1.2212 -0.9399
-7 -16 -15 2.6902 3.4946
-7 -16 -14 -0.3542 -2.2116
-7 -16 -13 -2.5011 0.1043
-7 -16 -12 3.4477 4.7967
-7 -16 -11 1.5034 0.6331
-7 -16 -10 9.6935 0.9152
-7 -16 -9 2.2513 3.7395
-7 -16 -8 4.9587 -0.1454
-7 -16 -7 -1.6275 -4.0076
-7 -16 -6 -6.3835 3.2289
-7 -16 -5 -3.7558 -1.7393
-7 -16 -4 4.3861 0.7532
-7 -16 -3 -5.2818 -1.4756
-7 -16 -2 -3.8489 3.4467
-7 -16 -1 9.2341 -1.3632
-7 -15 -16 -5.1413 3.3670
-7 -15 -15 1.0480 2.5110
-7 -15 -14 -8.0026 3.0505
-7 -15 -13 -4.1652 3.2877
-7 -15 -12 3.7870 9.9389
-7 -15 -11 -0.1309 -3.5435
-7 -15 -10 6.1862 2.8002
-7 -15 -9 6.7667 -1.7038
-7 -15 -7 4.3093 -3.2431
-7 -15 -6 1.1130 -6.0261
-7 -15 -5 1.2326 2.6856
-7 -15 -4 -7.5431 -4.0495
-7 -15 -3 2.1415 -3.6288
-7 -15 -2 5.4946 -1.5980
-7 -15 -1 -0.1818 5.5633
-7 -14 -17 0.2445 -0.0179
-7 -14 -16 8.0956 12.8166
-7 -14 -15 3.8364 -5.9165
-7 -14 -14 4.5514 -3.9672
-7 -14 -13 -0.9394 -4.5251
-7 -14 -12 -3.3853 -1.0137
-7 -14 -11 3.3887 0.6359
-7 -14 -10 -5.2575 -4.6896
-7 -14 -9 -5.9459 -3.4381
-7 -14 -8 1.6910 3.4783
-7 -14 -7 -1.2667 0.7713
-7 -14 -6 4.8988 4.4853
-7 -14 -5 2.8149 0.4542
-7 -14 -4 -4.5519 4.0935
-7 -14 -3 -5.4155 1.6263
-7 -14 -2 -0.2883 1.2787
-7 -14 -1 -2.0817 3.3309
-7 -13 -18 -1.4963 2.6956
-7 -13 -17 7.4742 -3.9116
-7 -13 -16 -4.4311 -4.9887
-7 -13 -15 7.7018 1.0185
-7 -13 -14 -8.3606 -4.8517
-7 -13 -13 10.4940 -2.3612
-7 -13 -12 -1.1452 1.0548
-7 -13 -11 -0.0316 0.4615
-7 -13 -10 5.0067 3.7821
-7 -13 -9 -1.6073 -2.8666
-7 -13 -8 -5.4846 -1.3068
-7 -13 -7 2.9371 -3.3881
-7 -13 -6 -6.8232 -3.6365
-7 -13 -5 -4.5285 -2.5627
-7 -13 -4 4.2047 -0.4311
-7 -13 -3 5.0872 -2.2793
-7 -13 -2 8.5430 3.5436
-7 -13 -1 4.8722 -2.0999
-7 -12 -18 -0.7912 -8.3128
-7 -12 -17 5.7093 5.7269
-7 -12 -16 5.3919 -5.3219
-7 -12 -15 9.3868 -6.9465
-7 -12 -14 -8.8466 2.0296
-7 -12 -13 -9.9669 -2.3595
-7 -12 -12 -5.1811 -1.4003
-7 -12 -11 -4.4236 1.2858
-7 -12 -10 -1.4804 -8.6751
-7 -12 -9 -5.6900 -1.6031
-7 -12 -8 3.4543 2.2630
-7 -12 -7 6.2156 -1.1081
-7 -12 -6 1.1911 -1.2755
-7 -12 -5 -2.0689 1.6621
-7 -12 -4 -2.0088 -2.1219
-7 -12 -3 7.8674 -1.5330
-7 -12 -2 -1.2592 -2.9017
-7 -12 -1 -3.8271 2.6960
-7 -11 -19 4.2395 1.2265
-7 -11 -18 -0.6841 -2.0070
-7 -11 -17 -4.2759 -0.0160
-7 -11 -16 -5.7772 0.3486
-7 -11 -15 -6.0097 5.5664
-7 -11 -14 5.1149 -5.9899
-7 -11 -13 10.5468 0.2260
-7 -11 -12 -5.1694 -0.9724
-7 -11 -11 6.8333 -0.7762
-7 -11 -10 0.3074 3.2779
-7 -11 -9 -1.3229 -3.9625
-7 -11 -8 0.0860 2.5634
-7 -11 -7 2.4860 -14.2920
-7 -11 -6 -4.3551 -0.8858
-7 -11 -5 11.5617 -0.6646
-7 -11 -4 -3.3992 -0.2552
-7 -11 -3 7.0298 1.2776
-7 -11 -2 3.4518 -9.7705
-7 -11 -1 -6.0899 3.0188
-7 -10 -20 3.2427 4.5855
-7 -10 -19 0.5048 3.4502
-7 -10 -18 -1.1324 4.8853
-7 -10 -17 -3.1925 7.1567
-7 -10 -16 2.8114 -1.2248
-7 -10 -15 -3.1638 -7.1547
-7 -10 -14 -7.4615 -2.3042
-7 -10 -13 -1.6418 -2.4062
-7 -10 -12 2.2943 -4.5968
-7 -10 -11 5.2648 4.2450
-7 -10 -10 5.9465 -3.0616
-7 -10 -9 4.4006 -1.8393
-7 -10 -7 7.8416 -9.3981
-7 -10 -6 -4.6466 1.8855
-7 -10 -5 -3.5738 2.2663
-7 -10 -4 -4.3000 1.7870
-7 -10 -3 1.3486 -6.9876
-7 -10 -1 -14.5184 -2.1263
-7 -9 -20 3.8208 5.7602
-7 -9 -19 0.3870 -3.1430
-7 -9 -18 -7.3030 -3.9196
-7 -9 -17 3.4099 -0.7618
-7 -9 -16 -3.0951 6.0917
-7 -9 -15 -2.6530 0.5138
-7 -9 -14 3.6745 6.4968
-7 -9 -13 -9.5266 -2.6308
-7 -9 -12 -1.6631 1.2015
-7 -9 -11 -0.6486 -0.1246
-7 -9 -10 1.0911 -4.5278
-7 -9 -9 -3.2440 7.0793
-7 -9 -8 -1.7098 -1.3300
-7 -9 -6 5.8308 -5.7843
-7 -9 -5 3.1185 3.0495
-7 -9 -4 2.6394 10.9507
-7 -9 -3 -2.8045 -18.7616
-7 -9 -1 -4.1634 -4.3843
-7 -8 -21 4.8461 11.0662
-7 -8 -20 4.1370 -2.2861
-7 -8 -19 -2.8264 0.4125
-7 -8 -18 -2.2537 -0.2230
-7 -8 -17 -1.7613 4.9236
-7 -8 -16 3.8934 -12.5603
-7 -8 -15 -0.9750 4.6998
-7 -8 -14 -0.3015 5.5998
-7 -8 -13 -1.7402 5.9324
-7 -8 -12 0.5310 3.1601
-7 -8 -11 10.7213 -1.3896
-7 -8 -10 -3.2406 -4.1035
-7 -8 -8 3.8139 -4.2193
-7 -8 -7 -14.2717 -1.4498
-7 -8 -6 1.7990 11.0207
-7 -8 -4 10.7041 0.9267
-7 -8 -3 8.2068 -9.0973
-7 -8 -2 -7.0915 -2.0448
-7 -8 -1 -9.2247 3.1532
-7 -7 -21 2.8495 6.3011
-7 -7 -20 0.3326 2.1756
-7 -7 -19 -10.7617 -1.5969
-7 -7 -18 2.8855 6.3479
-7 -7 -17 3.3101 6.9635
-7 -7 -16 -2.8426 -2.2601
-7 -7 -15 7.0085 -1.9893
-7 -7 -14 1.9213 1.2176
-7 -7 -13 -1.0774 -9.2069
-7 -7 -12 -2.3865 -3.5919
-7 -7 -11 -1.7051 1.8877
-7 -7 -10 -10.3245 0.3793
-7 -7 -9 7.0739 -2.2279
-7 -7 -8 -3.1605 3.6983
-7 -7 -7 -0.7577 4.0761
-7 -7 -6 4.8110 4.1612
-7 -7 -5 -7.8087 1.9779
-7 -7 -4 -2.6250 -4.2911
-7 -7 -3 11.1248 6.3337
-7 -7 -2 -2.7111 -7.5505
-7 -7 -1 3.0490 -0.4535
-7 -6 -22 -0.3535 2.8473
-7 -6 -21 -3.2320 8.0037
-7 -6 -20 4.7281 -8.7178
-7 -6 -19 -4.0411 2.2941
-7 -6 -18 -5.6089 -0.9017
-7 -6 -17 5.4185 -4.5814
-7 -6 -16 -0.7049 3.9783
-7 -6 -15 3.7656 -0.0842
-7 -6 -14 6.6795 2.2206
-7 -6 -13 2.9279 8.7465
-7 -6 -12 6.3436 -11.3742
-7 -6 -11 -3.4948 3.2596
-7 -6 -10 -9.6088 3.7229
-7 -6 -9 -4.8487 -13.4379
-7 -6 -7 -5.1316 -3.5192
-7 -6 -3 -26.6942 -4.4326
-7 -6 -1 1.0857 -4.4543
-7 -5 -22 -4.0513 -1.1634
-7 -5 -21 1.6855 -1.1488
-7 -5 -20 0.4022 0.9556
-7 -5 -19 -2.0528 2.3058
-7 -5 -18 5.6627 -1.4255
-7 -5 -17 -7.1647 -0.6882
-7 -5 -16 -3.6882 1.0880
-7 -5 -15 -0.1062 0.8253
-7 -5 -14 0.3477 0.7353
-7 -5 -13 -0.1195 -9.4908
-7 -5 -11 -1.5415 -7.4666
-7 -5 -9 -5.8566 2.7722
-7 -5 -7 5.5213 5.0222
-7 -5 -6 -0.2623 -2.9962
-7 -5 -5 1.9905 16.1410
-7 -5 -4 -8.4814 13.1248
-7 -5 -3 -12.1914 -5.8355
-7 -5 -2 -7.0893 4.0082
-7 -5 -1 -12.4933 5.5905
-7 -4 -22 -3.7886 1.6992
-7 -4 -21 -2.6086 -10.5805
-7 -4 -20 -1.3873 -1.4498
-7 -4 -19 -2.4155 4.0316
-7 -4 -18 2.0410 -1.1746
-7 -4 -17 3.0783 6.1576
-7 -4 -16 -2.4720 -0.6961
-7 -4 -15 4.4135 2.2253
-7 -4 -14 -3.4736 8.3873
-7 -4 -13 -1.4774 -2.2249
-7 -4 -4 -0.4272 0.1028
-7 -3 -22 2.2794 4.3456
-7 -3 -21 6.7077 1.6204
-7 -3 -20 -1.0216 2.6342
-7 -3 -19 5.5458 -0.1508
-7 -3 -18 -0.8131 0.6804
-7 -3 -17 1.0123 -3.4286
-7 -3 -16 -4.6765 -2.9517
-7 -3 -15 8.5377 0.8334
-7 -3 -14 0.8830 -1.5524
-7 -3 -13 4.0546 5.1200
-7 -3 -12 1.4069 9.1061
-7 -3 -11 0.8865 -1.9920
-7 -3 -10 1.4095 4.2214
-7 -3 -9 -0.3152 8.0835
-7 -3 -8 8.9594 6.5241
-7 -3 -7 -3.6684 -3.4970
-7 -3 -6 2.5436 9.8456
-7 -3 -5 -5.3760 -0.6323
-7 -3 -4 -1.7345 -20.3474
-7 -3 -3 7.6240 -3.1569
-7 -3 -1 -6.1217 -5.6627
-7 -2 -22 3.1811 -9.4154
-7 -2 -21 -0.3675 -3.6954
-7 -2 -20 4.8896 -3.0998
-7 -2 -19 -0.5857 5.7885
-7 -2 -18 -0.2618 -4.6689
-7 -2 -17 -2.4564 12.1247
-7 -2 -16 -0.8143 -1.5310
-7 -2 -15 0.2368 -4.6731
-7 -2 -14 1.6855 -7.2053
-7 -2 -13 -0.7757 -1.5812
-7 -2 -12 7.2386 -1.7604
-7 -2 -11 12.7582 2.6914
-7 -2 -9 12.0250 4.8861
-7 -2 -8 5.2256 -0.2473
-7 -2 -7 5.0621 -9.9725
-7 -2 -4 6.7701 1.9238
-7 -2 -3 1.8854 3.4592
-7 -2 -1 -28.9145 10.3357
-7 -1 -23 -4.7455 -1.9513
-7 -1 -22 -0.5663 0.6685
-7 -1 -21 -7.8808 3.3639
-7 -1 -20 10.9874 1.3887
-7 -1 -19 -0.8746 -0.0059
-7 -1 -18 -2.5368 -5.5339
-7 -1 -17 0.1433 1.7218
-7 -1 -16 -4.6660 7.0405
-7 -1 -15 -10.7501 -1.8020
-7 -1 -14 1.9342 4.7568
-7 -1 -13 -0.9186 -13.0519
-7 -1 -12 4.7302 -8.9260
-7 -1 -11 5.8480 -5.9737
-7 -1 -10 -10.4664 -1.5181
-7 -1 -9 -9.7835 10.4857
-7 -1 -8 6.4972 3.3056
-7 -1 -7 -11.9874 2.8341
-7 -1 -6 11.7484 -14.1365
-7 -1 -5 11.3053 -3.9067
-7 -1 -4 -1.4059 -8.2139
-7 -1 -3 -18.0437 -0.8735
-7 -1 -1 -9.9657 -8.3927
-6 -21 -4 -1.7505 4.3943
-6 -21 -3 -6.1086 -3.6079
-6 -21 -2 -0.5150 -3.0451
-6 -21 -1 -4.8600 -3.9489
-6 -20 -8 -6.6034 -0.4675
-6 -20 -7 3.9059 -1.9980
-6 -20 -6 -0.4526 -3.4304
-6 -20 -5 0.2361 -1.8666
-6 -20 -4 1.6235 -1.9205
-6 -20 -3 -0.5098 -2.0363
-6 -20 -2 -2.4359 3.0128
-6 -20 -1 0.7452 4.3086
-6 -19 -10 5.4076 -1.7607
-6 -19 -9 -3.5279 4.5296
-6 -19 -8 -1.5064 1.5536
-6 -19 -7 -2.8981 1.9591
-6 -19 -6 -0.3654 4.3101
-6 -19 -5 4.3774 -0.9271
-6 -19 -4 0.5459 1.1349
-6 -19 -3 -5.6300 -3.3464
-6 -19 -2 1.0160 -0.5532
-6 -19 -1 -2.2389 -0.1767
-6 -18 -12 4.4627 2.0925
-6 -18 -11 2.9033 1.0489
-6 -18 -10 1.7367 -6.3523
-6 -18 -9 -2.0837 -3.1256
-6 -18 -8 -6.5020 0.8874
-6 -18 -7 -3.7539 1.5740
-6 -18 -6 -5.6460 1.7744
-6 -18 -5 2.8521 3.8430
-6 -18 -4 -1.2137 0.3665
-6 -18 -3 -4.7531 3.2927
-6 -18 -2 6.1865 -0.8502
-6 -18 -1 2.5369 2.8373
-6 -17 -14 -1.5051 -2.6299
-6 -17 -13 -1.5132 -0.6999
-6 -17 -12 -0.0358 -3.6946
-6 -17 -11 0.6551 0.8052
-6 -17 -10 -0.6728 2.4864
-6 -17 -9 -6.1255 2.8250
-6 -17 -8 6.7585 0.3152
-6 -17 -7 2.5295 -2.1016
-6 -17 -6 -3.2091 0.7148
-6 -17 -5 2.2994 0.8040
-6 -17 -4 -3.5031 -0.0134
-6 -17 -3 -5.5567 3.5108
-6 -17 -2 4.4449 -3.7785
-6 -17 -1 -1.8805 -2.2552
-6 -16 -15 -3.0059 -2.2465
-6 -16 -14 -2.3093 7.8870
-6 -16 -13 -1.3519 6.5866
-6 -16 -12 4.5062 5.2534
-6 -16 -11 -1.6025 2.5734
-6 -16 -10 -1.1759 -2.8927
-6 -16 -9 0.5826 -2.6539
-6 -16 -8 -2.4303 -0.3576
-6 -16 -7 2.0391 -6.5644
-6 -16 -6 1.1913 -2.0925
-6 -16 -4 -5.3799 1.8033
-6 -16 -3 1.6554 2.8419
-6 -16 -2 -0.0776 3.3271
-6 -16 -1 -0.4026 -4.6504
-6 -15 -16 -0.8025 -0.0753
-6 -15 -15 -1.3638 -1.4520
-6 -15 -14 -4.7759 4.8569
-6 -15 -13 -0.4821 -2.1559
-6 -15 -12 7.5193 2.8844
-6 -15 -11 9.6201 0.4790
-6 -15 -10 1.6641 -2.9169
-6 -15 -9 -0.7592 6.6510
-6 -15 -8 -4.2886 -2.9074
-6 -15 -7 -11.0702 9.9535
-6 -15 -6 4.3104 4.5810
-6 -15 -5 2.7127 5.6338
-6 -15 -4 -6.1056 -1.2883
-6 -15 -3 -3.7221 0.0184
-6 -15 -2 -0.7170 0.3478
-6 -15 -1 -3.4517 1.3174
-6 -14 -17 -4.6602 0.0280
-6 -14 -16 3.6703 3.7211
-6 -14 -15 -4.5013 -3.0991
-6 -14 -14 2.4154 3.3138
-6 -14 -13 3.3417 -1.5119
-6 -14 -12 7.4850 0.2777
-6 -14 -11 2.6031 3.4575
-6 -14 -10 4.3330 -9.9334
-6 -14 -9 5.3495 3.8538
-6 -14 -8 8.1246 6.3665
-6 -14 -7 -6.3536 -7.2679
-6 -14 -6 -4.2187 -0.4943
-6 -14 -5 -3.0758 1.8481
-6 -14 -4 2.3903 -4.1783
-6 -14 -3 -1.7185 -0.8929
-6 -14 -2 3.7541 -8.6535
-6 -14 -1 1.0112 5.5771
-6 -13 -18 0.1575 7.1958
-6 -13 -17 1.2603 -4.8532
-6 -13 -16 3.9122 -8.1827
-6 -13 -15 -2.1391 -4.4210
-6 -13 -14 -5.9599 -11.1638
-6 -13 -13 -7.1231 5.4864
-6 -13 -12 -1.1476 5.3617
-6 -13 -11 1.1568 -7.9398
-6 -13 -10 -3.5728 2.4934
-6 -13 -9 -2.4595 -4.0282
-6 -13 -8 10.6664 -6.2595
-6 -13 -7 -4.1123 -4.3803
-6 -13 -6 8.8132 -1.5565
-6 -13 -5 -1.0386 6.7600
-6 -13 -4 -2.5052 2.5002
-6 -13 -3 -5.2360 -0.7835
-6 -13 -2 -3.0886 5.7499
-6 -13 -1 -1.9473 0.2111
-6 -12 -19 4.4606 -2.8186
-6 -12 -18 -0.3876 0.3279
-6 -12 -17 1.4116 0.1427
-6 -12 -16 0.6298 7.5671
-6 -12 -15 -0.8173 -2.0411
-6 -12 -14 -2.2841 3.0789
-6 -12 -13 1.8082 -0.8626
-6 -12 -11 -10.3489 -2.3360
-6 -12 -9 5.2765 -0.0586
-6 -12 -7 -9.0359 -11.4499
-6 -12 -4 6.4781 -0.8227
-6 -12 -3 -11.6148 1.5766
-6 -12 -2 1.0113 0.1041
-6 -12 -1 4.3865 7.1334
-6 -11 -19 -1.2349 4.5043
-6 -11 -18 -1.7336 -2.9406
-6 -11 -17 -0.4777 -2.1001
-6 -11 -16 10.5360 1.3545
-6 -11 -15 -5.7953 -1.5831
-6 -11 -14 0.7491 8.2909
-6 -11 -13 -4.3773 3.3234
-6 -11 -12 1.9315 1.6264
-6 -11 -11 -2.3943 -8.1805
-6 -11 -9 -2.7363 5.0377
-6 -11 -7 0.4589 2.1399
-6 -11 -5 -1.1927 2.4058
-6 -11 -4 -3.0684 -9.3217
-6 -11 -3 -5.2529 -1.3285
-6 -11 -2 6.9565 0.9280
-6 -11 -1 -0.9275 -1.7365
-6 -10 -20 3.5616 -0.4874
-6 -10 -19 -0.9301 -1.2274
-6 -10 -18 0.8821 3.4760
-6 -10 -17 -3.1223 0.6215
-6 -10 -16 0.5360 3.2851
-6 -10 -15 1.2271 -0.0079
-6 -10 -14 -2.1305 -5.1361
-6 -10 -13 2.7631 -2.6892
-6 -10 -12 -2.3678 -1.6073
-6 -10 -11 -0.7268 -4.2191
-6 -10 -10 -1.0696 2.3489
-6 -10 -9 2.3141 -3.8891
-6 -10 -8 -5.2032 0.0376
-6 -10 -7 -2.6163 -4.1758
-6 -10 -6 0.9984 6.3009
-6 -10 -5 -1.2560 0.7628
-6 -10 -4 7.1306 -2.0313
-6 -10 -3 -6.4192 -2.6997
-6 -10 -2 3.3216 0.9275
-6 -10 -1 -1.6386 4.8646
-6 -9 -21 9.5190 -2.0543
-6 -9 -20 0.1689 3.7027
-6 -9 -19 4.8916 -3.0717
-6 -9 -18 2.8074 3.6370
-6 -9 -17 4.1790 -2.2372
-6 -9 -16 -2.1159 -5.3885
-6 -9 -15 -10.0114 -3.1772
-6 -9 -14 1.7270 0.4950
-6 -9 -13 6.7799 2.3355
-6 -9 -12 3.3645 5.2684
-6 -9 -11 9.6913 -5.4384
-6 -9 -10 -0.3723 8.0344
-6 -9 -9 9.0264 3.3923
-6 -9 -8 -5.6352 -6.7035
-6 -9 -7 -11.7946 6.9649
-6 -9 -6 6.8612 1.2783
-6 -9 -5 -2.5161 4.7541
-6 -9 -4 3.1735 -2.9815
-6 -9 -3 1.7961 -8.9172
-6 -9 -2 2.5613 -2.1291
-6 -9 -1 3.3176 1.1326
-6 -8 -21 4.0161 1.5840
-6 -8 -20 -3.3457 -0.3045
-6 -8 -19 -3.4585 3.9791
-6 -8 -18 -1.0669 -5.6218
-6 -8 -17 0.0399 -2.8607
-6 -8 -16 1.8144 4.4383
-6 -8 -15 -4.9837 -2.4714
-6 -8 -14 0.8909 -0.2346
-6 -8 -13 -0.8891 -1.1010
-6 -8 -11 -1.7363 2.6535
-6 -8 -9 -2.5827 10.8917
-6 -8 -7 2.3203 5.6247
-6 -8 -6 -2.1364 3.4441
-6 -8 -5 8.1774 -5.8791
-6 -8 -4 -0.6848 2.3082
-6 -8 -3 -3.9156 -6.3675
-6 -8 -1 -6.6513 -0.2423
-6 -7 -22 -0.0536 4.9842
-6 -7 -21 2.0409 0.3267
-6 -7 -20 -3.7155 5.8704
-6 -7 -19 -1.4189 -0.8414
-6 -7 -18 -0.7395 1.7367
-6 -7 -17 3.6731 -1.1815
-6 -7 -16 -2.0562 9.5815
-6 -7 -15 5.5685 0.6170
-6 -7 -14 -0.4708 2.9996
-6 -7 -13 -4.9625 -3.3700
-6 -7 -12 -4.0168 3.4117
-6 -7 -11 -0.8182 -0.0740
-6 -7 -10 -1.1311 1.7558
-6 -7 -9 -8.9699 10.8440
-6 -7 -8 -6.9463 -9.2944
-6 -7 -7 7.4453 2.2987
-6 -7 -5 22.9987 -4.5410
-6 -7 -4 11.5797 -4.0098
-6 -7 -3 15.9009 6.9503
-6 -7 -2 -1.9067 2.9207
-6 -7 -1 1.2169 4.2429
-6 -6 -22 -0.5281 -1.2113
-6 -6 -21 -0.2840 2.9179
-6 -6 -20 -2.7448 2.1211
-6 -6 -19 6.1448 -5.7920
-6 -6 -18 -0.0169 -0.0502
-6 -6 -17 -1.0898 5.5691
-6 -6 -16 0.8242 0.5917
-6 -6 -15 -0.2910 8.1148
-6 -6 -14 2.8541 0.3962
-6 -6 -13 -4.1020 -0.4254
-6 -6 -12 3.7237 4.3477
-6 -6 -11 -2.5765 -12.5259
-6 -6 -10 -6.6812 4.7249
-6 -6 -9 -3.4711 -0.1060
-6 -6 -8 2.0976 1.3204
-6 -6 -7 -1.3394 0.2428
-6 -6 -6 0.7467 -16.2904
-6 -6 -5 -0.2210 -10.4340
-6 -6 -4 -3.2542 -13.8169
-6 -6 -3 -4.6215 3.0583
-6 -6 -2 -9.5577 3.5090
-6 -6 -1 4.5345 5.8871
-6 -5 -22 -1.8211 2.3562
-6 -5 -21 -1.2982 1.3038
-6 -5 -20 -6.4128 -1.1212
-6 -5 -19 -4.3927 -7.0883
-6 -5 -18 -2.7741 5.4847
-6 -5 -17 2.2681 -7.6724
-6 -5 -16 1.8193 3.6513
-6 -5 -15 -2.6565 -7.6186
-6 -5 -14 6.0190 -4.2034
-6 -5 -13 7.8203 -2.9207
-6 -5 -12 6.9763 7.4212
-6 -5 -11 2.9211 -13.0210
-6 -5 -9 -4.6040 3.9989
-6 -5 -8 -3.8109 -17.2477
-6 -5 -6 6.6163 1.1139
-6 -5 -4 -3.4278 14.6693
-6 -4 -22 -0.2748 1.0840
-6 -4 -21 -2.1134 0.3506
-6 -4 -20 4.4770 -1.1005
-6 -4 -19 5.5060 8.3224
-6 -4 -18 -5.4226 -4.6752
-6 -4 -17 2.5320 0.9986
-6 -4 -16 1.1541 -0.2092
-6 -4 -14 0.5185 -3.7321
-6 -4 -13 -0.9871 6.7758
-6 -4 -11 -2.7889 -0.8285
-6 -4 -9 8.6791 -2.9873
-6 -4 -8 -0.4994 8.5376
-6 -4 -7 -0.9400 -11.5982
-6 -4 -4 -0.2758 7.1718
-6 -4 -3 -4.6304 1.0923
-6 -4 -2 8.0381 -7.1398
-6 -4 -1 0.1106 33.0338
-6 -3 -23 4.1887 4.3971
-6 -3 -22 -4.4437 -4.1106
-6 -3 -21 -1.3727 -3.8041
-6 -3 -20 0.3795 -7.6182
-6 -3 -19 -0.5585 -1.8906
-6 -3 -18 -0.5394 1.0638
-6 -3 -17 -3.5609 1.8661
-6 -3 -16 3.8251 3.2985
-6 -3 -15 -1.1704 0.7708
-6 -3 -14 4.6464 5.5457
-6 -3 -13 -6.6406 2.2418
-6 -3 -12 1.1747 5.8331
-6 -3 -10 5.3921 4.3823
-6 -3 -9 1.6551 -6.3809
-6 -3 -7 9.0207 -2.2836
-6 -3 -6 0.2512 -13.4382
-6 -3 -5 3.9443 -0.0560
-6 -3 -4 -9.9303 -3.9874
-6 -3 -3 4.9876 -17.7580
-6 -3 -1 -0.6697 4.4878
-6 -2 -23 3.3736 3.7367
-6 -2 -22 -8.4612 -6.4962
-6 -2 -21 6.0692 3.9705
-6 -2 -20 0.0516 2.2703
-6 -2 -19 -4.1304 -1.3326
-6 -2 -18 -7.3837 1.9722
-6 -2 -17 1.2464 0.2197
-6 -2 -16 9.9881 -3.1203
-6 -2 -14 12.7415 -1.2938
-6 -2 -13 2.4392 1.0682
-6 -2 -12 -1.0467 -4.7345
-6 -2 -10 1.3698 -10.7856
-6 -2 -8 4.4243 -7.9122
-6 -2 -7 8.1929 2.7690
-6 -2 -6 4.6620 5.3391
-6 -2 -4 -9.1981 -1.2369
-6 -2 -3 -22.9288 7.0053
-6 -2 -2 11.9300 6.1035
-6 -1 -23 -0.2958 4.7814
-6 -1 -22 -1.5631 -6.9163
-6 -1 -21 4.2182 -0.5044
-6 -1 -20 4.5587 8.1672
-6 -1 -19 2.6526 2.9157
-6 -1 -18 -7.3235 -1.2349
-6 -1 -17 -0.1991 -5.2867
-6 -1 -16 8.6907 -6.0947
-6 -1 -15 -1.2746 -2.6587
-6 -1 -14 14.2736 3.9913
-6 -1 -13 6.6797 2.1718
-6 -1 -12 -12.9047 2.3791
-6 -1 -11 -0.3479 -4.5366
-6 -1 -9 -4.9039 -1.3261
-6 -1 -5 -0.1297 -3.3976
-6 -1 -4 -6.3115 -5.4884
-6 -1 -3 -17.0951 -0.7269
-5 -21 -5 1.0019 -3.8116
-5 -21 -4 0.6768 -2.6070
-5 -21 -3 0.1656 2.7374
-5 -21 -2 -0.7048 -4.9100
-5 -21 -1 3.5641 1.2530
-5 -20 -9 1.4735 1.2862
-5 -20 -8 -0.6383 -2.1046
-5 -20 -7 0.8526 3.1742
-5 -20 -6 7.3532 3.4370
-5 -20 -5 -1.1814 1.2366
-5 -20 -4 -1.3172 -5.1897
-5 -20 -3 -6.4992 -1.4509
-5 -20 -2 -7.8484 -2.3481
-5 -20 -1 -2.6295 -3.7743
-5 -19 -11 -1.7685 2.3191
-5 -19 -10 4.2705 -3.6304
-5 -19 -9 -4.4714 1.1773
-5 -19 -8 -0.0196 4.4679
-5 -19 -7 -3.6434 -5.3328
-5 -19 -6 -3.4402 0.0575
-5 -19 -5 -1.4852 -4.4877
-5 -19 -4 -4.2409 1.5065
-5 -19 -3 4.1076 0.6034
-5 -19 -2 0.6064 -3.0715
-5 -19 -1 0.5134 -2.2174
-5 -18 -13 -0.5496 -1.9595
-5 -18 -12 -1.3063 -3.5139
-5 -18 -11 4.2475 -0.5162
-5 -18 -10 -6.7919 -0.5078
-5 -18 -9 6.3013 6.1805
-5 -18 -8 -10.7795 3.6821
-5 -18 -7 -1.5260 1.3705
-5 -18 -6 -5.2221 0.1295
-5 -18 -5 1.0758 1.2316
-5 -18 -4 -3.5110 4.2374
-5 -18 -3 3.3337 4.8401
-5 -18 -2 -2.4364 -0.8039
-5 -18 -1 -2.5688 3.8363
-5 -17 -14 3.2202 3.0268
-5 -17 -13 3.1127 4.0174
-5 -17 -12 1.9464 -5.0237
-5 -17 -11 1.6208 -2.5487
-5 -17 -10 -4.0935 5.3608
-5 -17 -9 -2.1918 0.2816
-5 -17 -8 4.2964 0.0246
-5 -17 -7 -4.3111 5.5231
-5 -17 -6 -1.6892 -9.0366
-5 -17 -5 4.7962 2.8174
-5 -17 -4 3.1368 6.2958
-5 -17 -3 3.5608 3.3282
-5 -17 -2 1.1850 0.1735
-5 -17 -1 -0.4987 6.8932
-5 -16 -15 -1.1402 -0.0334
-5 -16 -14 -4.3657 0.3297
-5 -16 -13 3.6795 2.0304
-5 -16 -12 3.3213 -0.3152
-5 -16 -11 4.4598 -4.9218
-5 -16 -10 9.5595 -2.5332
-5 -16 -9 1.6057 -4.6986
-5 -16 -8 -9.2660 0.3205
-5 -16 -7 1.7353 1.8711
-5 -16 -6 3.5950 6.3447
-5 -16 -5 -3.8812 1.6444
-5 -16 -4 -4.0203 -0.7652
-5 -16 -3 0.1248 3.5880
-5 -16 -2 -8.3825 -1.7353
-5 -16 -1 11.5613 3.0752
-5 -15 -16 -0.8970 1.2396
-5 -15 -15 2.2557 4.5911
-5 -15 -14 0.7612 3.5478
-5 -15 -13 7.2704 2.0269
-5 -15 -12 1.3225 1.9258
-5 -15 -11 4.0203 -2.1929
-5 -15 -10 -7.8163 -9.5999
-5 -15 -9 -6.4715 -5.5091
-5 -15 -8 2.9171 -5.2055
-5 -15 -7 -1.8284 4.6973
-5 -15 -6 2.8264 -2.3602
-5 -15 -5 3.3128 7.4408
-5 -15 -4 0.6048 -1.2366
-5 -15 -3 1.8837 -2.4534
-5 -15 -2 5.9697 1.1963
-5 -15 -1 1.9426 4.5231
-5 -14 -17 5.8509 -1.4633
-5 -14 -16 -1.5983 -2.3145
-5 -14 -15 -0.7594 -4.8574
-5 -14 -14 -7.1415 2.6846
-5 -14 -13 6.6278 -0.6196
-5 -14 -12 -0.2713 -7.7280
-5 -14 -11 2.2158 1.5930
-5 -14 -9 -3.7014 3.1316
-5 -14 -8 -6.2981 2.7010
-5 -14 -7 2.3102 -1.3332
-5 -14 -6 -1.0355 -3.8084
-5 -14 -5 -1.0044 -6.3980
-5 -14 -4 2.8969 2.5185
-5 -14 -3 1.8578 12.5272
-5 -14 -2 2.8799 1.1506
-5 -14 -1 7.3797 0.8391
-5 -13 -18 0.0109 -2.2703
-5 -13 -17 1.1340 0.9919
-5 -13 -16 -0.4610 -16.6565
-5 -13 -15 -6.3022 6.0357
-5 -13 -14 0.1100 -1.7695
-5 -13 -13 2.6065 -1.5920
-5 -13 -12 -0.4711 -6.5135
-5 -13 -11 -0.6364 -0.6285
-5 -13 -9 1.4304 1.5711
-5 -13 -8 4.0846 0.0048
-5 -13 -7 1.8315 3.0103
-5 -13 -5 -4.1758 -3.2036
-5 -13 -4 -11.1795 -8.4461
-5 -13 -3 0.3399 -4.2613
-5 -13 -2 -3.8282 0.1290
-5 -13 -1 -0.6277 -2.3461
-5 -12 -19 -1.7542 3.2507
-5 -12 -18 -1.1957 -1.2525
-5 -12 -17 -3.1132 1.2814
-5 -12 -16 -7.6813 -5.5028
-5 -12 -15 0.0879 4.9324
-5 -12 -14 0.1070 0.5232
-5 -12 -13 -1.7701 5.8853
-5 -12 -12 -1.7552 6.2677
-5 -12 -11 0.7690 0.9856
-5 -12 -9 -1.2621 1.3892
-5 -12 -7 -2.2477 4.4311
-5 -12 -5 -2.7943 0.7383
-5 -12 -3 -0.2448 3.1168
-5 -12 -2 0.8915 -8.3434
-5 -12 -1 -0.7996 -4.0607
-5 -11 -20 2.2524 -2.6713
-5 -11 -19 -4.6761 0.5284
-5 -11 -18 5.0213 1.3641
-5 -11 -17 -1.0886 4.8562
-5 -11 -16 3.4064 2.4315
-5 -11 -15 -6.4034 8.1705
-5 -11 -14 2.7865 0.6041
-5 -11 -13 -2.2187 -8.1757
-5 -11 -12 -5.5789 -4.0229
-5 -11 -11 2.6706 3.5296
-5 -11 -10 0.8949 -0.6647
-5 -11 -9 8.6818 -3.2407
-5 -11 -8 -1.0155 -6.6732
-5 -11 -7 -3.6952 -1.0301
-5 -11 -6 -9.2930 -3.4666
-5 -11 -5 -5.7949 1.0556
-5 -11 -4 -5.3425 -2.8018
-5 -11 -3 -1.9795 10.1066
-5 -11 -2 -6.1284 -1.6456
-5 -11 -1 -8.9406 4.1311
-5 -10 -20 2.9822 1.8368
-5 -10 -19 -2.9812 3.0811
-5 -10 -18 1.1182 0.6272
-5 -10 -17 8.1018 0.1523
-5 -10 -16 -4.0782 5.0456
-5 -10 -15 0.9106 4.6992
-5 -10 -14 2.4370 3.6110
-5 -10 -12 9.7134 -5.8851
-5 -10 -11 -5.3100 -5.1558
-5 -10 -6 3.0670 1.4098
-5 -10 -5 3.8816 -0.9815
-5 -10 -4 -2.4678 2.8592
-5 -10 -1 -1.4256 2.5771
-5 -9 -21 1.1302 -4.1799
-5 -9 -20 0.5877 -1.1260
-5 -9 -19 -3.3499 1.7426
-5 -9 -18 -2.0348 1.2178
-5 -9 -17 -2.6013 -4.7696
-5 -9 -16 -2.4261 -0.8561
-5 -9 -15 2.1876 -0.5253
-5 -9 -14 2.2561 3.7203
-5 -9 -13 3.0481 1.6287
-5 -9 -12 0.8497 3.8292
-5 -9 -11 7.1101 -0.3072
-5 -9 -9 -5.7215 0.7085
-5 -9 -8 -0.1562 -7.1773
-5 -9 -7 -10.7949 5.6043
-5 -9 -6 6.7293 -0.4531
-5 -9 -4 -1.1583 2.5461
-5 -9 -3 3.5090 -5.7184
-5 -9 -2 -2.4322 0.3368
-5 -9 -1 4.3985 -1.5369
-5 -8 -21 1.9918 2.6338
-5 -8 -20 6.1606 1.9273
-5 -8 -19 0.9780 3.4927
-5 -8 -18 6.1101 -3.0257
-5 -8 -17 -6.4925 3.4278
-5 -8 -16 -0.7619 1.3759
-5 -8 -15 1.0242 2.5175
-5 -8 -14 3.5309 -5.7311
-5 -8 -13 1.4160 -6.4315
-5 -8 -12 7.2906 0.9480
-5 -8 -11 -4.4534 0.0869
-5 -8 -8 -7.0912 2.5314
-5 -8 -7 -5.0462 5.5712
-5 -8 -5 0.4290 -2.9213
-5 -8 -3 4.3859 -2.1914
-5 -8 -2 -2.8667 0.6524
-5 -8 -1 9.2793 6.5061
-5 -7 -22 2.6514 -1.7425
-5 -7 -21 2.4230 1.7298
-5 -7 -20 3.0002 0.2847
-5 -7 -19 -4.4147 2.0055
-5 -7 -18 -2.4317 4.8350
-5 -7 -17 7.3784 1.4341
-5 -7 -16 0.6096 4.4200
-5 -7 -15 -1.5171 5.0779
-5 -7 -14 -0.9596 -0.5262
-5 -7 -13 2.6321 2.8226
-5 -7 -12 -3.3998 -3.3175
-5 -7 -11 -5.7840 3.6449
-5 -7 -9 8.2066 2.6193
-5 -7 -8 -7.9323 2.0764
-5 -7 -7 5.8915 0.9332
-5 -7 -4 -3.7130 -1.4559
-5 -7 -3 -0.2655 1.1952
-5 -7 -2 -2.9551 -2.8245
-5 -6 -22 2.6257 10.4520
-5 -6 -21 -2.8572 2.1889
-5 -6 -20 0.2809 5.1467
-5 -6 -19 -1.7410 4.5752
-5 -6 -18 1.2493 -4.6085
-5 -6 -17 4.4033 -0.3132
-5 -6 -16 0.2491 -9.0481
-5 -6 -15 1.3256 1.0558
-5 -6 -14 5.9332 -10.0476
-5 -6 -11 4.0184 -0.5018
-5 -6 -10 -3.3046 2.7607
-5 -6 -8 -11.7356 8.5723
-5 -6 -4 5.5931 -5.0597
-5 -5 -22 -1.4514 -0.6649
-5 -5 -21 -1.8265 -3.0409
-5 -5 -20 -6.0533 -0.4116
-5 -5 -19 0.2230 -0.7561
-5 -5 -18 7.9167 2.9274
-5 -5 -17 0.7345 2.0346
-5 -5 -16 -6.7498 0.6597
-5 -5 -15 7.2014 0.1796
-5 -5 -14 -3.3847 0.0020
-5 -5 -13 3.0566 -5.7322
-5 -5 -12 -10.6702 -7.9095
-5 -5 -11 -8.8504 -0.5761
-5 -5 -10 2.4134 -4.8654
-5 -5 -9 -0.9176 0.8395
-5 -5 -8 7.8089 -6.1547
-5 -5 -7 4.1796 -2.7153
-5 -5 -6 0.0207 0.9183
-5 -5 -5 -9.2326 3.9171
-5 -5 -4 -5.4035 5.1705
-5 -5 -3 2.6118 5.7062
-5 -5 -2 -13.0426 9.7408
-5 -5 -1 25.4225 -11.1362
-5 -4 -23 -0.4943 -1.7357
-5 -4 -22 1.9245 3.5141
-5 -4 -21 0.2194 1.8053
-5 -4 -20 -3.5982 -0.8311
-5 -4 -19 2.6920 -6.1408
-5 -4 -18 1.6729 -6.1601
-5 -4 -17 -3.8549 -0.8018
-5 -4 -16 -4.6641 -0.3247
-5 -4 -15 -3.6703 6.3459
-5 -4 -14 -3.1713 -6.6190
-5 -4 -13 9.6802 12.2974
-5 -4 -12 -3.4953 -10.7652
-5 -4 -11 -3.6548 5.6378
-5 -4 -7 -3.1031 -6.2283
-5 -3 -23 5.3382 -6.8257
-5 -3 -22 -1.5901 -1.0903
-5 -3 -21 -1.9805 -0.3149
-5 -3 -20 10.5409 -5.5312
-5 -3 -19 -1.0972 -0.9878
-5 -3 -18 -9.2573 -2.7598
-5 -3 -17 2.5495 6.6394
-5 -3 -16 -1.3267 -3.8623
-5 -3 -15 7.5092 2.1229
-5 -3 -14 5.3080 -7.0503
-5 -3 -13 6.8484 3.2612
-5 -3 -11 9.4707 -1.0820
-5 -3 -9 9.1609 -5.1741
-5 -3 -4 -17.1305 8.2108
-5 -3 -3 -5.7211 18.9942
-5 -3 -1 4.3953 7.5847
-5 -2 -23 -4.6229 0.5340
-5 -2 -22 -1.7638 1.2904
-5 -2 -21 -14.9021 0.2648
-5 -2 -20 -0.8838 -2.9932
-5 -2 -19 -3.2914 6.1544
-5 -2 -18 2.2722 7.8253
-5 -2 -17 -4.7063 0.9839
-5 -2 -16 2.2352 -0.9632
-5 -2 -15 0.6087 0.5479
-5 -2 -14 -0.0371 0.9298
-5 -2 -13 -5.3036 3.4392
-5 -2 -12 1.4020 -4.7039
-5 -2 -9 7.8058 -5.2358
-5 -2 -7 -3.7227 -9.8057
-5 -2 -6 -9.9458 -5.7145
-5 -2 -4 4.8078 25.6778
-5 -2 -2 12.5498 3.7325
-5 -1 -23 -1.7173 3.9028
-5 -1 -22 2.3808 9.5995
-5 -1 -21 5.6011 -8.9191
-5 -1 -20 2.3673 6.3714
-5 -1 -19 -7.6627 -3.7082
-5 -1 -18 2.8581 -2.6034
-5 -1 -17 -1.1904 4.4693
-5 -1 -16 3.5273 5.8719
-5 -1 -15 6.0831 -0.3474
-5 -1 -14 -5.5865 9.5410
-5 -1 -13 -1.3136 -8.1896
-5 -1 -12 -9.8581 -12.6028
-5 -1 -11 -8.1547 6.7116
-5 -1 -9 0.9576 11.7278
-5 -1 -8 18.1722 2.7663
-5 -1 -7 -20.1137 -10.4136
-5 -1 -6 -14.9520 -13.2027
-5 -1 -2 -4.2371 13.8161
-5 -1 -1 33.3239 3.7590
-4 -21 -6 1.3091 -0.3884
-4 -21 -5 7.3496 0.9360
-4 -21 -4 -1.7344 2.8660
-4 -21 -3 -5.0079 -0.0222
-4 -21 -2 0.1616 3.3766
-4 -21 -1 5.4042 -3.2178
-4 -20 -9 1.3293 2.7206
-4 -20 -8 0.5375 7.6960
-4 -20 -7 -0.4357 1.0790
-4 -20 -6 1.3027 -1.3775
-4 -20 -5 -2.9615 -6.6105
-4 -20 -4 1.5557 -2.2204
-4 -20 -3 0.7178 -4.8102
-4 -20 -2 -1.8959 -6.2891
-4 -20 -1 -1.6460 0.2835
-4 -19 -11 -1.9296 -2.1042
-4 -19 -10 1.8909 1.3641
-4 -19 -9 3.6141 -0.1449
-4 -19 -8 4.9638 1.6088
-4 -19 -7 -3.8989 2.3065
-4 -19 -6 -0.4557 -0.7421
-4 -19 -5 0.0259 8.1117
-4 -19 -4 -4.9266 0.4813
-4 -19 -3 -1.2969 -1.1202
-4 -19 -2 2.6701 -1.4121
-4 -19 -1 -3.2034 -1.0936
-4 -18 -13 2.1024 -1.0150
-4 -18 -12 2.2671 -0.7601
-4 -18 -11 -5.8976 -4.5289
-4 -18 -10 -4.1728 -0.2519
-4 -18 -9 1.0822 2.2095
-4 -18 -8 3.4147 -0.3589
-4 -18 -7 -1.2142 -2.5049
-4 -18 -6 -1.3766 -0.1419
-4 -18 -5 -1.5816 -2.9092
-4 -18 -4 4.3714 1.6738
-4 -18 -2 0.3726 1.0951
-4 -18 -1 2.7149 2.1799
-4 -17 -14 1.1181 6.6283
-4 -17 -13 -3.2655 -5.5710
-4 -17 -12 0.5551 0.5417
-4 -17 -11 2.2552 -2.6975
-4 -17 -10 1.8373 -0.4566
-4 -17 -9 -4.8198 2.0893
-4 -17 -8 -3.6989 6.2962
-4 -17 -7 -3.9547 8.2292
-4 -17 -6 1.2371 -0.7792
-4 -17 -5 5.1510 -2.2943
-4 -17 -4 2.0431 -2.1724
-4 -17 -3 -1.2197 1.5398
-4 -17 -2 -2.3600 0.5166
-4 -17 -1 -6.0889 -1.6971
-4 -16 -16 0.5588 2.9326
-4 -16 -15 0.4412 1.7916
-4 -16 -14 5.6719 1.8135
-4 -16 -13 1.9847 1.3619
-4 -16 -12 -0.6427 0.3354
-4 -16 -11 0.5313 -2.2332
-4 -16 -10 1.5962 2.4312
-4 -16 -9 -1.8274 4.7621
-4 -16 -8 0.4499 -4.9384
-4 -16 -7 -6.0277 -4.2090
-4 -16 -6 1.1087 -0.9937
-4 -16 -5 1.6570 3.9353
-4 -16 -4 -1.1456 4.4431
-4 -16 -3 8.5255 -1.5682
-4 -16 -2 -1.0798 3.5059
-4 -16 -1 -0.4770 2.8329
-4 -15 -17 -0.7518 0.8193
-4 -15 -16 -2.7868 -0.6816
-4 -15 -15 -0.4843 7.5324
-4 -15 -14 5.5214 2.8002
-4 -15 -13 4.9413 -2.2768
-4 -15 -12 9.1387 -5.3217
-4 -15 -11 -4.2869 -11.1567
-4 -15 -10 -1.6775 -5.4266
-4 -15 -8 -1.4582 4.9051
-4 -15 -7 -0.4695 -5.3741
-4 -15 -6 5.7447 -3.7258
-4 -15 -5 -3.6786 0.3082
-4 -15 -4 1.9795 6.1074
-4 -15 -3 -1.2890 1.5612
-4 -15 -2 -3.9011 0.3109
-4 -15 -1 -0.5978 -0.9452
-4 -14 -18 3.8811 -2.2010
-4 -14 -17 -1.9821 -3.7629
-4 -14 -16 -4.5779 1.6542
-4 -14 -15 1.0758 -10.3780
-4 -14 -14 7.4831 0.4489
-4 -14 -13 1.0524 2.8762
-4 -14 -12 2.9319 -4.3567
-4 -14 -11 -1.4849 -0.6651
-4 -14 -9 6.8580 -4.1944
-4 -14 -6 6.1664 2.2939
-4 -14 -5 -6.3272 3.9183
-4 -14 -4 2.4152 -2.7972
-4 -14 -2 -3.7447 5.7500
-4 -14 -1 3.5167 -0.7175
-4 -13 -19 2.6531 -0.4883
-4 -13 -18 -4.8221 -2.2606
-4 -13 -17 1.4524 -1.2946
-4 -13 -16 -0.1148 3.2926
-4 -13 -15 -0.5935 5.4626
-4 -13 -14 1.1025 0.7086
-4 -13 -13 1.7991 -0.2837
-4 -13 -11 0.8696 -2.6163
-4 -13 -10 -0.9616 7.5693
-4 -13 -9 -7.3958 -5.0260
-4 -13 -7 8.1119 -3.6204
-4 -13 -6 -3.9527 4.5919
-4 -13 -5 6.9870 1.3464
-4 -13 -4 3.5441 3.2829
-4 -13 -3 4.9644 -1.3311
-4 -13 -2 4.2327 12.9114
-4 -13 -1 2.6921 3.3586
-4 -12 -19 2.8147 5.9759
-4 -12 -18 -1.7095 -4.3985
-4 -12 -17 1.9035 -0.7450
-4 -12 -16 1.4188 -5.2312
-4 -12 -15 5.7110 6.2054
-4 -12 -14 1.5427 2.3914
-4 -12 -13 -1.2322 1.9758
-4 -12 -12 2.6922 -6.6274
-4 -12 -11 -3.8934 3.3724
-4 -12 -10 6.2705 -1.9520
-4 -12 -8 -6.7013 -11.7196
-4 -12 -7 -2.5469 -2.7224
-4 -12 -6 -3.8138 4.1934
-4 -12 -5 -5.2294 -3.3822
-4 -12 -4 -1.8451 -0.7557
-4 -12 -3 -3.7637 -3.8882
-4 -12 -2 3.2328 0.6208
-4 -12 -1 4.9552 1.2483
-4 -11 -20 -0.2473 4.3048
-4 -11 -19 -5.0061 5.0669
-4 -11 -18 3.9975 2.7050
-4 -11 -17 -1.1829 -3.7424
-4 -11 -16 7.0723 7.8550
-4 -11 -14 2.6825 2.2422
-4 -11 -13 0.8979 -2.3451
-4 -11 -12 -2.4038 -3.6065
-4 -11 -10 -2.7758 1.5144
-4 -11 -9 -1.7123 -4.1828
-4 -11 -8 1.7184 4.4769
-4 -11 -7 -5.3375 2.7374
-4 -11 -6 -3.9109 0.8748
-4 -11 -4 -6.1358 -4.6026
-4 -11 -3 2.6021 -1.7227
-4 -11 -2 6.5552 -0.1464
-4 -11 -1 -1.3768 -13.0560
-4 -10 -21 -3.9373 0.1697
-4 -10 -20 -6.1147 -0.7743
-4 -10 -19 0.9187 -3.1587
-4 -10 -18 -1.2137 -1.9366
-4 -10 -17 1.2233 1.3126
-4 -10 -16 -3.4184 4.4194
-4 -10 -15 -1.0466 5.0813
-4 -10 -14 -1.9245 -6.4176
-4 -10 -13 -1.8921 -5.4879
-4 -10 -12 -7.0898 0.7295
-4 -10 -11 2.5812 -4.3248
-4 -10 -9 0.6121 4.6796
-4 -10 -8 -11.9117 4.4157
-4 -10 -7 0.2376 5.2253
-4 -10 -4 0.4366 0.3275
-4 -10 -3 3.2593 1.9145
-4 -10 -2 7.7260 2.3924
-4 -9 -21 -1.1923 2.7895
-4 -9 -20 -4.3002 4.5857
-4 -9 -19 8.5189 -5.8829
-4 -9 -18 3.3181 -4.0850
-4 -9 -17 0.8955 0.3688
-4 -9 -16 -0.8732 4.7217
-4 -9 -15 0.6157 3.9967
-4 -9 -14 -4.9972 5.4843
-4 -9 -13 -1.4383 7.0624
-4 -9 -12 0.5575 -2.3005
-4 -9 -11 5.6001 0.2596
-4 -9 -10 1.6847 -3.6520
-4 -9 -9 4.4750 6.3011
-4 -9 -8 -1.3518 -4.3630
-4 -9 -7 -3.9132 0.6050
-4 -9 -6 6.3526 -3.4946
-4 -9 -4 6.8345 -1.6946
-4 -9 -3 3.3496 -3.2401
-4 -9 -2 -4.2237 10.8331
-4 -9 -1 -7.4684 -11.4007
-4 -8 -22 7.3414 -0.3543
-4 -8 -21 1.5084 -1.7319
-4 -8 -20 -0.6028 -2.9550
-4 -8 -19 -0.3300 2.4013
-4 -8 -18 -0.6705 4.1544
-4 -8 -17 1.1209 2.7030
-4 -8 -16 -4.0134 0.1942
-4 -8 -15 3.8281 1.7402
-4 -8 -14 2.7457 -4.8372
-4 -8 -12 -1.7085 -0.3932
-4 -8 -8 4.1449 3.6107
-4 -8 -5 4.5577 -2.0483
-4 -8 -3 1.2870 0.8515
-4 -8 -2 -11.1199 2.2298
-4 -8 -1 2.1006 4.1480
-4 -7 -22 2.4032 -4.0223
-4 -7 -21 4.8270 6.5615
-4 -7 -20 4.7643 5.0076
-4 -7 -19 4.6311 -2.3707
-4 -7 -18 -0.7135 -0.8088
-4 -7 -17 -2.8986 1.4105
-4 -7 -16 0.2080 -1.1374
-4 -7 -15 5.6681 -2.2480
-4 -7 -14 -5.8055 -1.4031
-4 -7 -13 8.0427 -2.9651
-4 -7 -12 2.2815 -0.5056
-4 -7 -11 -7.3888 0.9808
-4 -7 -10 7.5717 -1.8877
-4 -7 -9 -9.6128 -2.5149
-4 -7 -8 -8.0366 0.5725
-4 -7 -6 -2.1965 -11.2117
-4 -7 -5 7.3240 -0.0806
-4 -7 -4 -2.8185 -2.1823
-4 -7 -2 3.7303 2.2457
-4 -7 -1 3.0182 -3.2728
-4 -6 -22 0.5477 -3.4364
-4 -6 -21 -2.9698 -1.6008
-4 -6 -20 -1.8176 -0.3703
-4 -6 -19 2.3673 6.5963
-4 -6 -18 5.5379 -1.6925
-4 -6 -17 -0.2951 -2.8701
-4 -6 -16 3.0861 1.8257
-4 -6 -15 1.4137 -7.5211
-4 -6 -14 1.9231 -0.0483
-4 -6 -13 0.8522 -4.4096
-4 -6 -12 -8.5443 2.1570
-4 -6 -11 2.4407 0.8954
-4 -6 -7 -3.9484 -3.2024
-4 -6 -4 -0.1988 1.6214
-4 -6 -3 -16.7497 2.9343
-4 -6 -2 3.0500 -0.9182
-4 -6 -1 -33.2314 -4.5537
-4 -5 -23 -0.1758 -2.9902
-4 -5 -22 0.4033 2.8184
-4 -5 -21 1.8010 4.8005
-4 -5 -20 4.5583 -5.1645
-4 -5 -19 -0.1491 -2.5653
-4 -5 -18 -10.4067 -0.0785
-4 -5 -17 -3.9749 -4.4170
-4 -5 -16 0.6695 -1.4705
-4 -5 -14 -2.9507 0.8588
-4 -5 -13 8.8240 -6.4439
-4 -5 -12 -8.6145 -6.5057
-4 -5 -11 -2.0407 -8.3560
-4 -5 -10 -2.5724 1.0539
-4 -5 -9 -13.9036 -0.2357
-4 -5 -4 -2.3859 12.3594
-4 -5 -2 17.0549 22.6705
-4 -5 -1 -2.8915 -4.9952
-4 -4 -23 -5.5393 -1.0607
-4 -4 -22 -5.7196 -5.3151
-4 -4 -21 4.9438 0.2250
-4 -4 -20 -1.1729 -1.7152
-4 -4 -19 0.3820 -2.8520
-4 -4 -18 -2.6463 -2.0045
-4 -4 -17 -6.8479 -0.4074
-4 -4 -16 1.7158 -0.1449
-4 -4 -15 -0.2541 -1.7370
-4 -4 -14 8.6591 2.8841
-4 -4 -13 5.4496 5.7213
-4 -4 -12 1.2587 6.1711
-4 -4 -11 -4.6841 3.4706
-4 -4 -10 8.9719 -4.8589
-4 -4 -9 -1.7172 -6.8261
-4 -4 -8 -14.7532 0.6506
-4 -4 -7 11.8541 -10.0738
-4 -4 -6 -15.7747 4.5919
-4 -4 -5 -5.8142 -14.4743
-4 -4 -4 -2.2405 -2.9036
-4 -4 -3 -14.9229 -14.7487
-4 -4 -2 8.7427 -1.5062
-4 -4 -1 -4.5669 4.2607
-4 -3 -23 -2.9367 5.2047
-4 -3 -22 6.3066 -3.0663
-4 -3 -21 3.2002 0.3426
-4 -3 -20 -6.0939 8.4525
-4 -3 -19 -7.7663 7.2450
-4 -3 -18 -0.8252 2.8648
-4 -3 -17 4.6108 6.3614
-4 -3 -16 0.7707 1.6680
-4 -3 -15 -5.1326 3.1260
-4 -3 -14 8.4640 -2.0141
-4 -3 -13 5.8118 -5.3963
-4 -3 -12 -9.7294 5.9993
-4 -3 -11 -0.8601 -1.2071
-4 -3 -6 -25.6899 1.2654
-4 -3 -5 -26.1140 8.9998
-4 -3 -4 -9.9358 -9.8809
-4 -3 -3 8.2913 18.5656
-4 -3 -2 1.3319 -21.0903
-4 -2 -23 -4.6482 -0.0468
-4 -2 -22 8.1207 -1.5734
-4 -2 -21 5.6496 -2.7913
-4 -2 -20 2.7328 2.7253
-4 -2 -19 3.2983 6.2049
-4 -2 -18 0.7999 2.6144
-4 -2 -17 8.5769 1.7716
-4 -2 -16 6.5656 -0.3039
-4 -2 -15 -1.8857 -4.9486
-4 -2 -14 4.8561 1.3613
-4 -2 -11 -1.1375 -1.2834
-4 -2 -9 -5.4406 -0.8362
-4 -2 -6 -1.4864 20.2579
-4 -2 -2 10.5353 41.6147
-4 -1 -23 -3.8241 3.7642
-4 -1 -22 2.4459 1.1619
-4 -1 -21 3.3622 -2.7445
-4 -1 -20 -4.2776 1.1848
-4 -1 -19 5.5513 -1.5261
-4 -1 -18 1.8844 1.7594
-4 -1 -17 -14.6990 2.5206
-4 -1 -16 3.5547 2.8384
-4 -1 -14 5.8469 -2.2549
-4 -1 -13 -2.1946 1.5918
-4 -1 -12 -14.5193 5.3984
-4 -1 -11 -7.6505 11.4682
-4 -1 -10 -4.4222 6.7813
-4 -1 -9 2.8023 3.1904
-4 -1 -8 19.6844 3.8048
-4 -1 -4 26.3905 2.2072
-4 -1 -2 13.7326 -34.3343
-4 -1 -1 -32.8899 -41.1917
-3 -21 -7 6.6085 1.8751
-3 -21 -6 -5.8484 -4.2480
-3 -21 -5 -0.7504 3.1449
-3 -21 -4 -0.3677 -0.7579
-3 -21 -3 0.7593 -2.0143
-3 -21 -2 -4.4833 0.7017
-3 -21 -1 -7.6578 -0.8586
-3 -20 -9 2.4795 5.0172
-3 -20 -8 2.4628 1.8246
-3 -20 -7 1.6521 1.2173
-3 -20 -6 -1.8931 -5.9260
-3 -20 -5 7.7427 -1.0446
-3 -20 -4 3.2331 -2.1024
-3 -20 -3 -3.9290 1.9949
-3 -20 -2 -3.0457 2.3198
-3 -20 -1 -4.9085 -0.3732
-3 -19 -12 2.9799 -3.9038
-3 -19 -11 1.9405 2.1272
-3 -19 -10 9.9032 1.2938
-3 -19 -9 1.0635 0.2142
-3 -19 -8 0.1670 -5.7487
-3 -19 -7 1.5174 3.3210
-3 -19 -6 -4.9281 -4.6677
-3 -19 -5 3.5409 2.3376
-3 -19 -4 -2.4087 -3.7161
-3 -19 -3 -4.9909 2.0118
-3 -19 -2 -2.8069 1.1087
-3 -19 -1 2.7444 4.5805
-3 -18 -13 2.2453 1.5924
-3 -18 -12 -5.0954 -0.0258
-3 -18 -11 1.7567 4.0082
-3 -18 -10 -3.3412 -9.4071
-3 -18 -9 2.1130 1.7962
-3 -18 -8 -5.5936 1.1923
-3 -18 -7 -3.7737 -0.2873
-3 -18 -6 4.6342 4.7897
-3 -18 -5 6.4146 0.5919
-3 -18 -4 1.2430 4.4171
-3 -18 -3 -0.9426 1.0568
-3 -18 -2 -2.2190 2.0943
-3 -18 -1 3.1942 -3.2951
-3 -17 -15 5.4752 -1.0174
-3 -17 -14 3.2039 -4.0985
-3 -17 -13 4.4931 2.0902
-3 -17 -12 -0.6126 1.2906
-3 -17 -11 -1.1646 6.3561
-3 -17 -10 -4.2407 0.1166
-3 -17 -9 -4.2079 -3.2220
-3 -17 -8 1.5865 -3.3914
-3 -17 -7 -0.3205 4.1563
-3 -17 -6 1.9709 3.0493
-3 -17 -5 0.8734 -0.2610
-3 -17 -4 -0.8638 -3.5498
-3 -17 -3 -0.2721 1.7551
-3 -17 -2 0.5742 5.0952
-3 -17 -1 0.7244 1.4846
-3 -16 -16 2.1208 1.0309
-3 -16 -15 2.0272 1.3841
-3 -16 -14 -0.7827 -8.0517
-3 -16 -13 8.3681 -0.8862
-3 -16 -12 -0.1124 -5.7908
-3 -16 -11 0.4442 -9.7455
-3 -16 -10 2.2311 3.3476
-3 -16 -9 6.2073 -1.0804
-3 -16 -8 -1.3345 1.2388
-3 -16 -7 6.7650 -1.0578
-3 -16 -6 0.0366 2.3153
-3 -16 -5 -3.5191 0.2805
-3 -16 -4 3.8079 4.6030
-3 -16 -3 -6.1841 -3.7435
-3 -16 -2 4.4240 1.2996
-3 -16 -1 -2.6500 1.9353
-3 -15 -17 -0.6551 1.0760
-3 -15 -16 1.9113 -3.0620
-3 -15 -15 5.0000 4.1551
-3 -15 -14 2.3028 -3.1186
-3 -15 -13 -2.0763 -3.8391
-3 -15 -12 -3.7934 1.1349
-3 -15 -11 -4.2327 0.8342
-3 -15 -10 2.2619 6.8438
-3 -15 -9 -0.0429 1.4496
-3 -15 -7 -0.9376 -1.2366
-3 -15 -6 9.2746 -10.6150
-3 -15 -5 -2.5573 -4.3918
-3 -15 -4 -4.9571 4.2836
-3 -15 -2 13.5747 3.3173
-3 -15 -1 12.1205 -5.2789
-3 -14 -18 3.7831 -3.6349
-3 -14 -17 -0.6323 -3.4563
-3 -14 -16 -3.8685 5.1321
-3 -14 -15 1.4957 1.6179
-3 -14 -14 5.3709 2.3843
-3 -14 -13 2.5236 1.7123
-3 -14 -12 -14.3387 -3.6509
-3 -14 -11 2.6473 -7.0146
-3 -14 -10 -1.2308 -2.8375
-3 -14 -9 1.8358 -5.1180
-3 -14 -7 -2.8384 1.3773
-3 -14 -5 -5.2012 -3.0880
-3 -14 -4 -0.9543 -7.0261
-3 -14 -3 -1.6130 0.4105
-3 -14 -1 -2.4617 0.5335
-3 -13 -19 1.5275 1.6828
-3 -13 -18 -2.5287 -2.4726
-3 -13 -17 -4.0822 2.2692
-3 -13 -16 2.8465 -2.2266
-3 -13 -15 -0.4035 -1.1189
-3 -13 -14 -2.9329 -2.3579
-3 -13 -13 -1.2954 6.1744
-3 -13 -12 -2.2796 4.5241
-3 -13 -11 2.8961 2.4774
-3 -13 -10 10.5606 2.0124
-3 -13 -9 -0.6327 -8.5248
-3 -13 -8 -4.0728 -2.9602
-3 -13 -7 9.4094 4.9794
-3 -13 -6 -8.5747 0.0646
-3 -13 -5 -7.3853 4.1225
-3 -13 -4 -3.2364 8.9415
-3 -13 -3 7.1784 5.5672
-3 -13 -2 1.9721 -1.1044
-3 -13 -1 -11.2154 -10.2836
-3 -12 -20 1.6259 2.5763
-3 -12 -19 4.5780 6.0123
-3 -12 -18 -2.3360 1.7372
-3 -12 -17 -3.2823 3.5397
-3 -12 -16 3.8357 -0.5839
-3 -12 -14 4.4350 1.5176
-3 -12 -13 -1.9975 -2.1754
-3 -12 -12 -2.2554 0.4323
-3 -12 -7 3.2236 -2.2400
-3 -12 -6 0.9459 0.3202
-3 -12 -4 -0.5652 3.6392
-3 -12 -3 0.9160 0.3666
-3 -12 -2 -5.2641 -1.2940
-3 -11 -20 0.5833 8.3663
-3 -11 -19 0.4516 -2.6727
-3 -11 -18 3.5210 3.1961
-3 -11 -17 -0.0588 -0.3931
-3 -11 -16 5.4527 0.2065
-3 -11 -15 -2.8689 -2.3646
-3 -11 -14 1.2566 2.9265
-3 -11 -13 -0.2869 -3.6556
-3 -11 -12 2.5699 -1.5971
-3 -11 -11 0.6141 -4.9553
-3 -11 -10 -0.5167 -5.4714
-3 -11 -9 -3.0348 -1.6553
-3 -11 -8 -3.1670 -0.0308
-3 -11 -7 2.6186 9.0604
-3 -11 -6 -6.6111 -5.8274
-3 -11 -5 4.0875 8.6076
-3 -11 -4 3.4573 0.3967
-3 -11 -3 -3.3105 0.6252
-3 -11 -2 -2.3860 -7.9281
-3 -11 -1 -9.3814 1.4981
-3 -10 -21 -0.4321 1.8466
-3 -10 -20 3.6613 5.9163
-3 -10 -19 -0.9960 -1.5330
-3 -10 -18 -4.2017 -0.7724
-3 -10 -17 2.6982 1.9229
-3 -10 -16 -1.5472 -2.3820
-3 -10 -15 2.0214 -0.0152
-3 -10 -14 1.5434 -0.0495
-3 -10 -13 -3.4695 -0.7562
-3 -10 -12 0.3797 13.2896
-3 -10 -11 -0.1770 7.2611
-3 -10 -10 -4.2688 7.8396
-3 -10 -9 -12.4903 -5.2768
-3 -10 -7 -6.9974 -5.2309
-3 -10 -6 2.8095 -9.1451
-3 -10 -5 -5.0089 6.6348
-3 -10 -4 7.3525 1.3895
-3 -10 -3 12.5029 0.3608
-3 -10 -1 9.1303 -3.4590
-3 -9 -21 -1.8690 1.9691
-3 -9 -20 1.8029 -1.4567
-3 -9 -19 1.5986 0.3970
-3 -9 -18 -0.5493 4.2538
-3 -9 -17 -0.7040 0.8004
-3 -9 -16 -12.4916 -1.0815
-3 -9 -15 -0.9938 -3.0589
-3 -9 -14 4.5748 -3.3485
-3 -9 -13 -1.0299 -6.5824
-3 -9 -12 3.0536 0.3697
-3 -9 -11 -1.4843 8.2974
-3 -9 -10 3.6001 1.2799
-3 -9 -9 -10.2651 -0.2381
-3 -9 -7 -8.6230 0.7896
-3 -9 -6 6.3819 -4.0006
-3 -9 -5 -1.0899 -4.8567
-3 -9 -2 -5.3593 12.2927
-3 -9 -1 0.5911 3.8458
-3 -8 -22 -3.3599 -1.8389
-3 -8 -21 1.6849 7.8665
-3 -8 -20 7.0611 -5.1917
-3 -8 -19 1.7160 -5.5279
-3 -8 -18 -0.2558 -0.4604
-3 -8 -17 5.7722 0.4293
-3 -8 -16 -1.0573 1.7372
-3 -8 -15 1.1840 -1.3919
-3 -8 -14 -0.8996 0.5210
-3 -8 -13 -0.1225 1.6431
-3 -8 -7 -3.7963 11.2364
-3 -8 -4 -1.7961 10.2184
-3 -8 -3 4.4909 -0.9062
-3 -8 -2 -3.2980 5.8799
-3 -7 -22 -7.7466 -5.4868
-3 -7 -21 3.4201 -5.5659
-3 -7 -20 -3.6398 1.6111
-3 -7 -19 -4.4392 1.9708
-3 -7 -18 2.3705 -6.2288
-3 -7 -17 0.2738 -0.5433
-3 -7 -16 -0.1391 -0.2929
-3 -7 -15 4.3690 -1.2139
-3 -7 -14 2.4033 -5.5761
-3 -7 -13 -9.7362 6.8957
-3 -7 -12 -1.6900 6.5395
-3 -7 -11 -2.0389 6.8384
-3 -7 -10 0.6276 -8.7272
-3 -7 -9 3.8673 10.9935
-3 -7 -8 5.6968 7.8495
-3 -7 -7 20.0426 0.8694
-3 -7 -6 3.3118 0.9717
-3 -7 -5 -1.8497 -1.2232
-3 -7 -4 -1.7777 -10.1992
-3 -7 -3 5.5236 13.8011
-3 -7 -1 -4.4345 -6.9580
-3 -6 -23 -0.0813 5.1089
-3 -6 -22 -1.9472 9.0011
-3 -6 -21 6.6263 7.2328
-3 -6 -20 -0.6190 -2.6066
-3 -6 -19 2.0776 3.1833
-3 -6 -18 -5.3435 -1.6336
-3 -6 -17 -2.1219 -0.2951
-3 -6 -16 -2.2548 -6.3891
-3 -6 -15 -8.5397 -3.1134
-3 -6 -14 3.2983 -1.6189
-3 -6 -13 -0.9367 -1.6754
-3 -6 -12 -4.5891 -3.6196
-3 -6 -11 0.8118 -8.3446
-3 -6 -10 -4.0284 0.1922
-3 -6 -9 5.5428 1.4933
-3 -6 -7 5.8338 -0.2621
-3 -6 -5 -1.2189 10.2042
-3 -6 -4 5.6447 -3.1930
-3 -6 -3 -8.8294 3.6998
-3 -6 -1 6.6859 4.4730
-3 -5 -23 -5.1320 3.9705
-3 -5 -22 2.5633 -4.7860
-3 -5 -21 -7.3423 -3.5562
-3 -5 -20 -1.5085 5.3680
-3 -5 -19 1.5286 -6.0165
-3 -5 -18 4.4766 -1.8728
-3 -5 -17 -3.7241 1.5840
-3 -5 -16 -2.8325 -1.9501
-3 -5 -15 4.3195 1.9488
-3 -5 -14 -10.2291 2.7300
-3 -5 -13 -0.8186 4.6235
-3 -5 -11 2.3442 5.1534
-3 -5 -9 2.1412 5.6162
-3 -5 -7 -10.8015 -8.6724
-3 -5 -4 -3.5092 -2.0574
-3 -5 -3 -6.9980 2.4035
-3 -5 -1 6.3023 -25.4101
-3 -4 -23 1.3617 0.6869
-3 -4 -22 0.2443 -2.1383
-3 -4 -21 -2.5773 -13.2356
-3 -4 -20 9.5473 1.5238
-3 -4 -19 -1.9500 -2.9228
-3 -4 -18 -3.6168 -2.3957
-3 -4 -17 4.5054 -0.1350
-3 -4 -16 -3.6501 0.7519
-3 -4 -15 6.6988 8.0283
-3 -4 -14 7.8641 2.0547
-3 -4 -12 5.2263 -8.0759
-3 -4 -11 -3.6586 -1.6189
-3 -4 -8 3.0485 6.5146
-3 -4 -6 -4.0702 1.9067
-3 -4 -5 2.1793 0.0591
-3 -4 -4 -15.0652 10.6114
-3 -4 -2 17.3134 10.8328
-3 -4 -1 -7.0157 0.1237
-3 -3 -23 -3.0245 6.2391
-3 -3 -22 -5.1136 -8.3348
-3 -3 -21 -4.9161 -1.2903
-3 -3 -20 -1.5982 1.1061
-3 -3 -19 4.0278 -0.8295
-3 -3 -18 -4.0619 0.3327
-3 -3 -17 1.0151 4.7059
-3 -3 -16 15.9935 -1.7768
-3 -3 -15 -2.1839 2.0852
-3 -3 -14 3.7014 1.6938
-3 -3 -13 6.9757 -2.4925
-3 -3 -12 6.1956 6.5440
-3 -3 -11 10.6886 -4.3207
-3 -3 -10 5.0477 -7.3616
-3 -3 -9 0.9936 -7.6890
-3 -3 -8 -14.6971 -0.6480
-3 -3 -7 -12.1917 -5.9568
-3 -3 -6 -2.8723 10.2279
-3 -3 -5 14.8847 14.4907
-3 -3 -4 9.3302 11.1210
-3 -3 -3 6.1921 24.5407
-3 -3 -2 10.3868 8.5862
-3 -3 -1 2.4242 62.4362
-3 -2 -23 2.3268 3.3450
-3 -2 -22 2.2690 -6.6440
-3 -2 -21 7.5059 3.2740
-3 -2 -20 5.6599 14.0852
-3 -2 -19 -3.8462 5.5266
-3 -2 -18 0.1667 -1.5871
-3 -2 -17 6.2878 1.5203
-3 -2 -16 -1.0928 -1.8977
-3 -2 -15 5.1603 2.0688
-3 -2 -14 -3.1630 -4.5005
-3 -2 -12 -0.8897 -1.6273
-3 -2 -11 -8.6096 6.1013
-3 -2 -10 -6.1144 13.2444
-3 -2 -3 82.3856 -14.8340
-3 -2 -1 0.1840 -11.4126
-3 -1 -24 0.0165 -2.5958
-3 -1 -23 8.0670 -3.6951
-3 -1 -22 4.2591 -4.7820
-3 -1 -21 8.0266 -2.8105
-3 -1 -20 5.8942 -3.4493
-3 -1 -19 -10.2737 10.3533
-3 -1 -18 -1.9688 -5.9088
-3 -1 -17 9.3220 2.9788
-3 -1 -16 5.6281 6.7334
-3 -1 -15 5.0786 -2.3734
-3 -1 -14 -8.6036 0.1725
-3 -1 -13 -1.6329 -1.3469
-3 -1 -12 0.8882 -3.3984
-3 -1 -11 -1.7429 3.8673
-3 -1 -10 23.0022 1.1379
-3 -1 -9 2.1668 -9.0663
-3 -1 -7 -12.7033 -15.4709
-3 -1 -5 -18.8399 -18.0525
-3 -1 -2 28.4837 67.2594
-2 -22 -2 2.7325 3.4086
-2 -22 -1 -0.4049 -0.0729
-2 -21 -7 4.4561 -2.9171
-2 -21 -6 -0.6650 2.4938
-2 -21 -5 6.1002 -4.5471
-2 -21 -4 -3.9541 -4.1126
-2 -21 -3 -1.3857 0.8235
-2 -21 -2 4.1827 -2.5175
-2 -21 -1 0.7721 -0.8463
-2 -20 -10 0.9510 -5.0968
-2 -20 -9 7.5970 -0.5925
-2 -20 -8 -3.0491 3.8175
-2 -20 -7 1.0559 -3.0669
-2 -20 -6 8.3095 -0.6204
-2 -20 -4 -0.7661 3.1560
-2 -20 -3 -3.0032 4.8712
-2 -20 -2 -0.3597 -4.4248
-2 -20 -1 -15.5340 1.8478
-2 -19 -12 4.4773 -0.3770
-2 -19 -11 3.5940 -2.1871
-2 -19 -10 -0.2390 7.8200
-2 -19 -9 -3.8483 -3.0968
-2 -19 -8 2.3492 -6.2535
-2 -19 -7 -1.0345 -0.3854
-2 -19 -6 2.3829 -4.8830
-2 -19 -5 -0.6868 -2.2564
-2 -19 -4 -1.5148 4.5398
-2 -19 -3 1.6028 2.0833
-2 -19 -2 4.1756 2.4762
-2 -19 -1 -5.8497 -0.1800
-2 -18 -13 -0.4330 -2.9488
-2 -18 -12 -0.5989 2.9658
-2 -18 -11 2.2559 -5.4558
-2 -18 -10 2.5584 -4.1253
-2 -18 -9 -4.4254 0.8471
-2 -18 -8 -6.6545 3.5774
-2 -18 -7 2.6137 -11.0086
-2 -18 -6 4.3024 3.4539
-2 -18 -5 -2.0437 5.6350
-2 -18 -4 1.3604 1.9534
-2 -18 -3 -1.4675 -3.1709
-2 -18 -2 -8.2576 -1.4692
-2 -18 -1 2.6656 4.2569
-2 -17 -15 1.3214 -3.0879
-2 -17 -14 3.4935 2.0958
-2 -17 -13 3.1630 -3.5154
-2 -17 -12 1.6896 -5.7094
-2 -17 -11 -4.4846 -2.2871
-2 -17 -10 -1.9959 -0.7651
-2 -17 -9 5.2536 -5.3757
-2 -17 -8 10.4665 1.7648
-2 -17 -7 -2.4554 3.0538
-2 -17 -6 5.1569 -2.0135
-2 -17 -5 -3.7154 11.7452
-2 -17 -4 -1.3468 -4.0075
-2 -17 -3 1.3112 4.1445
-2 -17 -2 -2.6489 -2.0910
-2 -17 -1 -10.7939 -1.7869
-2 -16 -16 3.2168 -4.5278
-2 -16 -15 3.2124 -1.1247
-2 -16 -14 5.0250 -2.3985
-2 -16 -13 1.8089 1.6842
-2 -16 -12 -1.9096 7.5670
-2 -16 -11 -7.1527 -1.0952
-2 -16 -10 2.3180 2.7572
-2 -16 -9 -0.0742 -0.9439
-2 -16 -7 7.7297 -5.7742
-2 -16 -6 0.8391 1.1507
-2 -16 -4 3.2446 0.5299
-2 -16 -3 -3.5335 1.0947
-2 -16 -2 3.3241 4.7990
-2 -16 -1 9.0829 0.6533
-2 -15 -17 -5.3117 1.0265
-2 -15 -16 3.6501 -7.8741
-2 -15 -15 3.4020 4.3239
-2 -15 -14 5.6400 4.8810
-2 -15 -13 -4.3446 -8.0149
-2 -15 -12 7.8852 0.7755
-2 -15 -11 -4.1850 0.4163
-2 -15 -10 2.2680 -5.2599
-2 -15 -9 -0.8501 -0.6847
-2 -15 -8 -0.6536 -4.8000
-2 -15 -7 1.4437 -3.7727
-2 -15 -6 -6.0905 5.9414
-2 -15 -5 -2.9854 0.3322
-2 -15 -4 3.1327 -5.6608
-2 -15 -3 1.3661 1.4132
-2 -15 -2 -8.6088 -1.7559
-2 -15 -1 5.6678 3.1592
-2 -14 -18 -1.5786 4.8282
-2 -14 -17 4.9568 -3.1578
-2 -14 -16 0.0534 4.1648
-2 -14 -15 0.3227 -8.2412
-2 -14 -14 -3.4682 -3.1706
-2 -14 -13 2.2785 5.4140
-2 -14 -12 -4.8399 -3.4314
-2 -14 -11 8.5317 6.5039
-2 -14 -10 9.2493 -3.7952
-2 -14 -9 -4.1010 1.3166
-2 -14 -8 3.9991 -5.0814
-2 -14 -7 3.7473 -8.4799
-2 -14 -6 -4.5361 3.3475
-2 -14 -4 2.1384 7.5236
-2 -14 -3 3.0127 5.9759
-2 -14 -2 11.6168 -0.1135
-2 -14 -1 4.1897 -6.3790
-2 -13 -19 1.4457 -1.8000
-2 -13 -18 3.0176 -2.6927
-2 -13 -17 2.8283 5.1451
-2 -13 -16 0.3159 1.1172
-2 -13 -15 2.0426 9.5367
-2 -13 -14 -0.2990 -2.8721
-2 -13 -12 5.8183 -4.5973
-2 -13 -11 -8.1733 -1.3461
-2 -13 -10 -3.2092 -6.3425
-2 -13 -9 0.2288 2.2545
-2 -13 -8 1.7658 0.3051
-2 -13 -6 -6.6068 2.8700
-2 -13 -5 9.4391 -1.8874
-2 -13 -4 3.1502 -9.8650
-2 -13 -2 1.7624 3.8787
-2 -13 -1 6.4419 0.3135
-2 -12 -20 7.1673 -0.1326
-2 -12 -19 -3.4478 1.6486
-2 -12 -17 6.1458 -1.2364
-2 -12 -16 -3.7061 -0.9058
-2 -12 -15 -7.5743 -3.7660
-2 -12 -14 3.4311 2.5695
-2 -12 -13 -7.9332 2.9748
-2 -12 -11 2.5150 -2.8986
-2 -12 -10 2.6117 -6.6761
-2 -12 -9 -0.6041 8.5677
-2 -12 -5 -6.9040 3.4495
-2 -11 -20 4.0258 1.0782
-2 -11 -19 3.4705 -2.7723
-2 -11 -18 2.8142 3.7493
-2 -11 -17 -5.3654 -0.5976
-2 -11 -16 -5.6478 5.4931
-2 -11 -15 2.3907 -4.8835
-2 -11 -14 -4.9745 -5.5530
-2 -11 -13 -0.9624 1.6935
-2 -11 -12 1.3216 3.1437
-2 -11 -11 4.1968 -0.3916
-2 -11 -10 2.0384 2.6581
-2 -11 -9 -6.7923 19.3062
-2 -11 -8 -0.7350 9.8864
-2 -11 -7 -8.2009 6.1640
-2 -11 -6 -2.1865 2.8319
-2 -11 -4 3.0218 2.3819
-2 -11 -3 -10.3009 1.6246
-2 -11 -2 10.9214 3.9574
-2 -11 -1 -6.9215 -3.2198
-2 -10 -21 3.5997 1.4365
-2 -10 -20 -4.3079 3.0956
-2 -10 -19 -3.1295 0.0163
-2 -10 -18 1.6795 -3.6914
-2 -10 -17 -1.7656 2.4012
-2 -10 -16 -8.2481 0.6861
-2 -10 -14 -6.8069 3.3862
-2 -10 -13 4.0410 8.6888
-2 -10 -12 -1.3098 -4.9637
-2 -10 -10 4.1294 -3.9318
-2 -10 -6 -0.2085 6.2799
-2 -10 -4 3.5007 -5.9224
-2 -10 -3 -9.3231 -6.6085
-2 -9 -22 -7.5322 7.6715
-2 -9 -21 5.6513 0.9290
-2 -9 -20 -1.6733 -1.7363
-2 -9 -19 1.3864 2.1586
-2 -9 -18 -5.7578 5.4038
-2 -9 -17 -4.2204 -1.8224
-2 -9 -16 2.9180 -2.1898
-2 -9 -15 0.4935 -6.0165
-2 -9 -14 2.1310 5.7025
-2 -9 -12 3.5482 7.4915
-2 -9 -11 1.7007 7.9241
-2 -9 -10 -11.1864 5.0312
-2 -9 -9 -0.9158 -4.5534
-2 -9 -8 10.6635 6.7329
-2 -9 -6 12.2537 1.1712
-2 -9 -4 3.4328 0.7756
-2 -9 -2 -4.5492 3.2798
-2 -9 -1 -9.7946 4.1504
-2 -8 -22 7.5785 -2.4850
-2 -8 -21 0.3579 3.2334
-2 -8 -20 -1.7922 -5.2437
-2 -8 -19 2.1558 0.7133
-2 -8 -18 -7.2270 6.4026
-2 -8 -17 -6.6718 3.6630
-2 -8 -16 0.4405 -8.6498
-2 -8 -15 -1.3239 2.9916
-2 -8 -14 -1.8559 -5.9423
-2 -8 -13 8.0694 -0.3039
-2 -8 -11 0.3523 -1.5797
-2 -8 -10 -5.9016 1.5769
-2 -8 -9 -10.1007 -6.5814
-2 -8 -1 -1.4455 13.8967
-2 -7 -22 5.4765 5.0991
-2 -7 -21 4.2746 -1.1180
-2 -7 -20 9.2195 5.3669
-2 -7 -19 -7.3921 -1.4166
-2 -7 -18 3.3570 -3.7343
-2 -7 -17 -2.0615 -4.5554
-2 -7 -16 -2.7937 -3.4235
-2 -7 -15 -2.4869 -3.5335
-2 -7 -14 4.2074 6.8412
-2 -7 -12 9.4524 0.3564
-2 -7 -11 -0.4735 1.2718
-2 -7 -10 -1.4916 -2.2681
-2 -7 -9 7.1750 11.2310
-2 -7 -5 -2.5562 0.2006
-2 -7 -4 10.9583 -2.6751
-2 -7 -2 1.0080 -8.0883
-2 -7 -1 -20.3457 -1.0194
-2 -6 -23 2.2372 -1.2862
-2 -6 -22 -4.9611 3.1279
-2 -6 -21 -11.0775 -1.3445
-2 -6 -20 3.0420 0.1341
-2 -6 -18 -2.5306 1.0008
-2 -6 -17 4.5828 -5.1158
-2 -6 -16 6.8003 -3.7502
-2 -6 -14 -1.7423 -2.9670
-2 -6 -13 0.8745 6.4385
-2 -6 -12 -10.3743 -1.3697
-2 -6 -10 1.8544 -1.2487
-2 -6 -6 5.5247 6.1850
-2 -6 -3 -8.7838 13.8644
-2 -5 -23 1.0511 1.7276
-2 -5 -22 0.9116 2.3278
-2 -5 -21 2.3089 4.0327
-2 -5 -20 -3.8954 -1.8665
-2 -5 -19 -4.9830 -7.3611
-2 -5 -18 1.5890 1.9816
-2 -5 -17 -4.8716 -4.0413
-2 -5 -16 -2.1575 3.6081
-2 -5 -15 -0.3684 3.7678
-2 -5 -14 -0.4251 1.5320
-2 -5 -13 -2.5186 -3.8395
-2 -5 -12 -0.9858 2.1451
-2 -5 -11 -10.9449 1.7219
-2 -5 -10 -3.2627 -3.0363
-2 -5 -9 -2.6743 -1.9570
-2 -5 -8 4.3148 -1.0451
-2 -5 -7 0.4400 13.6431
-2 -5 -4 6.2083 -7.3523
-2 -5 -3 0.3730 -6.0258
-2 -5 -2 4.0053 -6.0761
-2 -4 -23 -2.7647 -0.1581
-2 -4 -22 -4.5060 7.2313
-2 -4 -21 -2.8212 0.6853
-2 -4 -20 -0.7449 1.6256
-2 -4 -19 -5.1190 6.4167
-2 -4 -18 -4.7232 -3.8013
-2 -4 -17 5.1086 -3.1252
-2 -4 -16 -5.3025 2.1546
-2 -4 -14 5.8728 0.8963
-2 -4 -11 9.8257 -2.6611
-2 -4 -10 7.8900 -4.1353
-2 -4 -9 -3.8746 6.3582
-2 -4 -7 -9.8037 25.6694
-2 -4 -6 -11.7713 2.3239
-2 -4 -2 7.0336 -23.6904
-2 -3 -23 2.6936 -9.7333
-2 -3 -22 -2.3932 6.2324
-2 -3 -21 5.7804 -8.5136
-2 -3 -20 -2.3555 -5.7813
-2 -3 -19 5.8934 3.9692
-2 -3 -18 3.9598 -2.7658
-2 -3 -16 5.5957 5.6397
-2 -3 -15 -1.9661 -9.5243
-2 -3 -14 0.0851 6.3481
-2 -3 -12 -3.8314 -11.9148
-2 -3 -11 -7.4266 3.5614
-2 -3 -10 3.6613 -7.7154
-2 -3 -9 -9.2137 8.4272
-2 -3 -8 3.1167 5.6669
-2 -3 -6 -6.9578 17.0607
-2 -3 -4 4.2961 5.3993
-2 -3 -2 37.2842 -21.3256
-2 -3 -1 -2.9932 -18.0249
-2 -2 -24 3.4969 6.4327
-2 -2 -23 1.7637 -0.4715
-2 -2 -22 -8.1708 0.6011
-2 -2 -21 6.7140 -4.8930
-2 -2 -20 -1.6292 -1.1994
-2 -2 -19 5.2291 -7.4031
-2 -2 -18 9.5143 -1.6869
-2 -2 -17 0.8605 -1.8219
-2 -2 -16 16.5293 3.3610
-2 -2 -15 -5.0513 8.5435
-2 -2 -14 -3.9475 6.5756
-2 -2 -13 -6.6136 -0.9766
-2 -2 -12 4.1293 2.8406
-2 -2 -11 1.7815 -6.7036
-2 -2 -10 0.4005 1.4544
-2 -2 -9 0.8569 9.2446
-2 -2 -8 6.7375 1.5852
-2 -2 -7 0.9143 16.2333
-2 -2 -6 19.3427 -11.0329
-2 -2 -5 28.7193 -4.0073
-2 -2 -4 7.0186 -25.0237
-2 -2 -3 -15.6157 6.4524
-2 -2 -2 7.2631 -10.8541
-2 -2 -1 23.6977 12.3882
-2 -1 -24 8.5819 -6.4749
-2 -1 -23 -6.5546 -5.3023
-2 -1 -22 -4.6884 0.2188
-2 -1 -21 2.1628 -1.2419
-2 -1 -20 -5.2051 -4.7070
-2 -1 -19 -2.8028 7.5596
-2 -1 -18 1.1364 0.6787
-2 -1 -17 -0.7655 -3.5770
-2 -1 -16 -0.2820 4.0513
-2 -1 -15 1.5860 -11.7237
-2 -1 -14 -8.6840 -6.3387
-2 -1 -13 1.7919 -5.0275
-2 -1 -12 1.8868 10.6493
-2 -1 -11 6.6326 12.0786
-2 -1 -8 10.6730 -22.6305
-2 -1 -7 -7.2180 -0.4036
-2 -1 -6 12.9787 -24.1544
-2 -1 -5 -21.2266 -0.6138
-2 -1 -4 12.5939 8.2263
-2 -1 -3 -21.9317 -9.1643
-1 -22 -2 -2.7353 -2.2490
-1 -22 -1 -1.3582 0.7966
-1 -21 -7 -0.4242 -3.4847
-1 -21 -6 0.9670 -11.6246
-1 -21 -5 4.3421 4.3337
-1 -21 -4 -4.9739 2.0919
-1 -21 -3 -0.0417 2.2910
-1 -21 -2 -5.5236 3.4143
-1 -21 -1 -9.5678 -0.0999
-1 -20 -10 6.0498 -2.9875
-1 -20 -9 -5.3976 0.8565
-1 -20 -8 1.1476 -1.9080
-1 -20 -7 -9.0303 -0.9966
-1 -20 -6 2.4951 3.7216
-1 -20 -5 7.0997 2.8436
-1 -20 -4 2.8318 2.4100
-1 -20 -3 -5.0658 -1.3937
-1 -20 -2 -3.1420 -8.0004
-1 -20 -1 -3.7011 3.3018
-1 -19 -12 -0.5948 3.4429
-1 -19 -11 -0.0040 1.5677
-1 -19 -10 -6.2981 -4.3591
-1 -19 -9 -0.3268 -1.2212
-1 -19 -8 3.1220 -14.4181
-1 -19 -7 -2.9294 -14.2481
-1 -19 -6 5.4533 0.6091
-1 -19 -5 -7.6307 6.1858
-1 -19 -4 -5.7884 3.9258
-1 -19 -3 -1.9944 6.4849
-1 -19 -2 -4.3372 -6.5952
-1 -19 -1 4.6047 -0.5883
-1 -18 -14 4.1487 2.3192
-1 -18 -13 2.4033 2.9768
-1 -18 -12 -2.3024 -2.4503
-1 -18 -11 -2.1186 1.1149
-1 -18 -10 -10.7878 2.9571
-1 -18 -9 -11.8015 0.7494
-1 -18 -8 -6.0716 0.2202
-1 -18 -7 3.2662 15.2697
-1 -18 -6 10.1122 4.9429
-1 -18 -5 0.3435 2.5696
-1 -18 -4 -12.4969 8.3238
-1 -18 -3 -4.3046 -10.5038
-1 -18 -2 -4.4526 5.7858
-1 -18 -1 2.1824 7.5754
-1 -17 -15 4.4080 1.1618
-1 -17 -14 0.6398 -5.3350
-1 -17 -13 -1.6689 6.0115
-1 -17 -12 0.6337 6.0105
-1 -17 -11 -4.7924 -4.1303
-1 -17 -10 4.1713 -2.1609
-1 -17 -9 7.4241 -7.0276
-1 -17 -8 -4.8306 -2.2764
-1 -17 -7 6.7388 8.1053
-1 -17 -6 -3.7114 5.0769
-1 -17 -5 -4.3360 8.9596
-1 -17 -4 1.4931 2.1167
-1 -17 -3 -4.2335 -9.1453
-1 -17 -2 7.1105 -3.9685
-1 -17 -1 0.5675 6.0415
-1 -16 -16 -4.1535 4.9615
-1 -16 -15 2.5907 0.1457
-1 -16 -14 1.2042 2.2655
-1 -16 -13 -6.3553 0.7388
-1 -16 -12 -10.2929 -13.4452
-1 -16 -11 -0.3409 -2.3303
-1 -16 -10 3.4623 -8.4615
-1 -16 -9 12.1628 -5.9611
-1 -16 -8 4.3637 9.7954
-1 -16 -7 6.9659 -2.6859
-1 -16 -6 -1.3465 -3.4075
-1 -16 -5 -17.0759 1.6818
-1 -16 -4 -4.4634 -1.1044
-1 -16 -3 3.3902 -5.5116
-1 -16 -2 6.1598 14.0400
-1 -16 -1 5.1001 -6.1545
-1 -15 -17 2.3298 -4.0924
-1 -15 -16 8.5365 4.8057
-1 -15 -15 -2.0501 -0.7233
-1 -15 -14 0.3862 7.8466
-1 -15 -13 -2.4122 8.2055
-1 -15 -12 0.7637 -2.4969
-1 -15 -11 11.1792 0.3638
-1 -15 -10 9.2617 -4.7566
-1 -15 -9 -4.7678 -4.5087
-1 -15 -8 -1.3098 11.9600
-1 -15 -7 -2.9786 0.6796
-1 -15 -6 -9.5292 1.0019
-1 -15 -5 11.5675 -5.8158
-1 -15 -4 -2.1232 -7.1272
-1 -15 -3 6.1587 -2.2568
-1 -15 -2 4.0874 6.8561
-1 -15 -1 -7.9498 -0.3595
-1 -14 -18 2.1473 -2.1281
-1 -14 -17 0.2436 0.9087
-1 -14 -16 6.9280 -0.1896
-1 -14 -15 8.3655 4.5803
-1 -14 -14 -8.7042 -0.4231
-1 -14 -13 3.5093 -1.7459
-1 -14 -12 -6.7974 -9.4598
-1 -14 -11 6.4559 -0.4856
-1 -14 -10 12.3202 -0.9654
-1 -14 -9 0.0697 2.0829
-1 -14 -8 -7.2744 -13.6296
-1 -14 -7 4.9181 -5.6783
-1 -14 -6 -14.0354 0.9124
-1 -14 -4 8.8959 0.2851
-1 -14 -3 1.9044 11.0029
-1 -14 -2 6.2513 -1.9126
-1 -14 -1 -7.3604 -11.1414
-1 -13 -19 1.6805 -3.7935
-1 -13 -18 -3.1575 -5.1360
-1 -13 -17 2.5130 1.2899
-1 -13 -16 -4.4632 1.2243
-1 -13 -15 -8.3614 7.4714
-1 -13 -14 4.3705 0.8523
-1 -13 -13 -0.9877 -10.0455
-1 -13 -12 1.0323 -4.7083
-1 -13 -11 2.4021 -2.0282
-1 -13 -10 -10.6194 -3.0731
-1 -13 -9 0.6174 2.1116
-1 -13 -8 -1.0886 3.6749
-1 -13 -6 16.0456 4.2141
-1 -13 -5 12.4496 13.2510
-1 -13 -4 -6.1847 -3.7288
-1 -13 -3 0.1413 7.7443
-1 -13 -2 -10.6359 9.1001
-1 -13 -1 6.4203 -12.0925
-1 -12 -20 4.6202 -1.9166
-1 -12 -19 12.6406 0.6929
-1 -12 -18 -0.4804 2.6696
-1 -12 -17 3.4372 1.7503
-1 -12 -16 -1.7334 7.5894
-1 -12 -15 -15.9343 0.1796
-1 -12 -14 0.7425 -6.0849
-1 -12 -13 5.7396 -6.6491
-1 -12 -12 5.1745 0.5910
-1 -12 -11 12.4836 -6.6595
-1 -12 -9 -14.5344 -0.4016
-1 -12 -8 2.3957 -2.8630
-1 -12 -7 0.0064 4.9580
-1 -12 -5 19.2450 -2.1805
-1 -12 -4 -6.6130 -1.5706
-1 -12 -3 -5.5729 0.8267
-1 -12 -2 -10.2147 -10.7491
-1 -12 -1 -1.7777 14.1429
-1 -11 -21 2.1298 -4.1361
-1 -11 -20 2.5101 -1.3210
-1 -11 -19 -0.8187 -1.5157
-1 -11 -18 2.3490 8.3606
-1 -11 -17 -4.0175 2.4875
-1 -11 -16 -5.8051 -0.4441
-1 -11 -15 2.0234 1.0398
-1 -11 -14 2.2546 -3.2415
-1 -11 -13 -4.3375 -11.7158
-1 -11 -12 3.9028 9.0903
-1 -11 -11 -3.1295 7.6214
-1 -11 -10 3.3738 -2.1497
-1 -11 -9 2.3265 -0.4314
-1 -11 -8 4.0394 -14.3240
-1 -11 -7 3.7314 -2.4468
-1 -11 -6 10.6300 12.6049
-1 -11 -5 -3.3384 1.9558
-1 -11 -4 -1.3751 2.7458
-1 -11 -3 1.7981 11.5726
-1 -11 -2 7.2888 -9.7728
-1 -11 -1 4.4924 -3.5424
-1 -10 -21 5.3202 3.1461
-1 -10 -20 7.3282 -3.6918
-1 -10 -19 -0.4810 0.8491
-1 -10 -18 -0.0051 -0.2198
-1 -10 -17 -2.0528 2.3212
-1 -10 -16 -18.0525 4.3932
-1 -10 -15 -2.4536 0.8694
-1 -10 -14 10.8157 -0.0836
-1 -10 -13 3.5142 8.2624
-1 -10 -11 -3.6494 -7.7242
-1 -10 -10 -5.3189 32.7261
-1 -10 -9 -13.1939 6.2057
-1 -10 -7 -4.3369 7.1952
-1 -10 -6 19.7712 8.8918
-1 -10 -5 -1.7647 -9.5999
-1 -10 -4 -10.2734 -7.9739
-1 -10 -3 4.6654 -7.3254
-1 -10 -1 15.5936 18.2878
-1 -9 -22 -2.5113 -1.1074
-1 -9 -21 0.8272 2.0455
-1 -9 -20 2.2763 -3.2517
-1 -9 -19 -3.2240 10.5317
-1 -9 -18 3.5141 5.8611
-1 -9 -17 -4.2726 -7.6917
-1 -9 -16 -0.4031 -0.0803
-1 -9 -15 1.6241 -0.1651
-1 -9 -14 -7.0152 -8.1881
-1 -9 -13 -1.2045 2.4596
-1 -9 -12 1.1615 11.8785
-1 -9 -11 -2.7663 -9.5338
-1 -9 -10 6.6447 -2.7013
-1 -9 -9 7.6199 -9.8621
-1 -9 -8 -6.1978 0.2961
-1 -9 -7 7.1963 10.9321
-1 -9 -6 5.1571 17.5607
-1 -9 -5 -10.3346 2.5168
-1 -9 -4 -3.5848 14.7817
-1 -9 -3 2.3485 -16.5456
-1 -9 -2 -11.1546 -7.2043
-1 -9 -1 -6.6088 16.7936
-1 -8 -22 1.5625 4.6898
-1 -8 -21 3.5523 -1.3111
-1 -8 -20 1.1658 1.8403
-1 -8 -19 -6.3370 -0.7365
-1 -8 -18 -1.0171 -9.9658
-1 -8 -17 -11.5170 1.1084
-1 -8 -16 -2.2694 -1.0160
-1 -8 -15 15.0373 2.6894
-1 -8 -14 -3.7593 4.1231
-1 -8 -13 -2.0751 4.7538
-1 -8 -12 5.6056 -8.3156
-1 -8 -11 -7.4303 2.2665
-1 -8 -9 9.8752 -8.4770
-1 -8 -8 40.7552 2.0106
-1 -8 -7 6.8631 -0.6187
-1 -8 -5 -16.3854 17.7827
-1 -8 -4 -5.6507 -8.6654
-1 -8 -3 14.5889 6.9240
-1 -8 -1 16.6671 -1.5103
-1 -7 -22 2.0061 2.5614
-1 -7 -21 0.3138 5.8071
-1 -7 -20 -7.9626 6.4475
-1 -7 -19 3.0020 8.7863
-1 -7 -18 -0.2237 -3.6170
-1 -7 -17 2.6358 -6.5513
-1 -7 -16 1.0161 0.3127
-1 -7 -14 2.1814 15.4907
-1 -7 -13 2.6719 11.1394
-1 -7 -11 2.7667 -7.9556
-1 -7 -9 -3.4414 -9.8134
-1 -7 -7 19.6464 12.8079
-1 -7 -5 12.9029 -2.2241
-1 -7 -4 5.1547 -8.9105
-1 -7 -3 3.8953 -4.9739
-1 -7 -1 -11.3064 -6.8669
-1 -6 -23 1.3069 5.9466
-1 -6 -22 11.3870 -1.9644
-1 -6 -21 0.4529 -0.6116
-1 -6 -20 -5.9741 0.7530
-1 -6 -19 4.8547 0.7315
-1 -6 -18 -4.0912 -8.4001
-1 -6 -17 -1.1697 5.3755
-1 -6 -16 14.6486 4.0149
-1 -6 -15 -2.4865 -0.0815
-1 -6 -14 -4.7315 1.4693
-1 -6 -13 4.7043 -4.3796
-1 -6 -12 -12.0492 -5.3951
-1 -6 -5 -2.4528 0.9880
-1 -6 -4 11.1383 -8.3289
-1 -6 -3 -11.6877 11.9933
-1 -6 -1 7.9262 -10.9480
-1 -5 -23 -2.5246 1.9235
-1 -5 -22 1.0272 7.9533
-1 -5 -21 -2.0446 -2.2071
-1 -5 -20 4.5078 7.6018
-1 -5 -19 4.1071 -6.9626
-1 -5 -18 -0.0614 -5.3266
-1 -5 -17 2.1896 4.5461
-1 -5 -16 -6.3038 -1.6169
-1 -5 -15 -6.8881 6.4002
-1 -5 -14 3.8269 4.1843
-1 -5 -13 0.6130 -9.8080
-1 -5 -12 6.8097 -6.0834
-1 -5 -11 4.0852 4.5774
-1 -5 -10 -7.5073 -5.7475
-1 -5 -9 -1.8432 8.1236
-1 -5 -8 9.6243 16.5276
-1 -5 -7 -5.0838 1.8257
-1 -5 -4 -15.2023 7.9114
-1 -5 -3 21.6330 7.3542
-1 -5 -2 -26.4453 4.7786
-1 -5 -1 8.0797 -20.8936
-1 -4 -23 -3.4962 -0.2767
-1 -4 -22 -0.1771 -6.5368
-1 -4 -21 -5.0049 7.3840
-1 -4 -20 -4.6646 -3.2167
-1 -4 -19 7.3766 -8.3032
-1 -4 -18 -5.6045 2.3233
-1 -4 -17 3.7238 -0.9679
-1 -4 -16 6.4626 -3.2617
-1 -4 -15 -16.5429 3.9613
-1 -4 -14 4.3354 -8.0704
-1 -4 -13 3.8706 -5.9285
-1 -4 -12 3.1460 7.0716
-1 -4 -11 12.3540 -7.1769
-1 -4 -10 -5.7389 5.8828
-1 -4 -9 -15.8758 -3.2854
-1 -4 -8 0.4965 -17.3339
-1 -4 -6 -9.7789 11.7993
-1 -4 -4 -1.3414 11.5563
-1 -4 -2 -36.3738 -11.6643
-1 -4 -1 5.1777 55.3522
-1 -3 -24 3.8575 2.8094
-1 -3 -23 2.3360 5.1813
-1 -3 -22 -1.5938 -7.1855
-1 -3 -21 -0.5720 4.8143
-1 -3 -20 -2.4286 0.5395
-1 -3 -19 -5.7285 2.2490
-1 -3 -18 9.6703 3.1696
-1 -3 -17 2.0559 5.9204
-1 -3 -16 -5.7447 -6.3779
-1 -3 -15 12.5679 -2.7538
-1 -3 -14 4.5268 -1.1621
-1 -3 -13 0.0568 -9.4659
-1 -3 -12 -0.7685 6.1970
-1 -3 -11 -11.6601 -2.1248
-1 -3 -10 -5.4540 0.4307
-1 -3 -9 3.8627 6.4496
-1 -3 -8 -9.4282 -8.3402
-1 -3 -6 7.9091 -1.7840
-1 -3 -4 20.8349 -14.5175
-1 -2 -24 -7.9942 -2.3094
-1 -2 -23 -2.3463 -2.1219
-1 -2 -22 2.1944 2.3891
-1 -2 -21 -2.2413 -10.3153
-1 -2 -20 14.4713 -8.0888
-1 -2 -19 -4.2430 7.3052
-1 -2 -18 -4.2197 -3.8670
-1 -2 -17 7.1524 -4.3193
-1 -2 -16 -10.3237 1.3025
-1 -2 -14 19.0423 -18.9523
-1 -2 -13 -4.1782 1.8392
-1 -2 -11 -1.0293 5.6838
-1 -2 -10 -23.3592 -2.0044
-1 -2 -8 -7.7974 20.8004
-1 -2 -7 -15.3323 5.0574
-1 -2 -6 17.2675 -10.9856
-1 -2 -4 -18.7894 -14.7702
-1 -2 -3 -13.8931 -18.6595
-1 -2 -1 21.3377 -0.4274
-1 -1 -24 2.3046 -4.2410
-1 -1 -23 -4.6933 -4.0497
-1 -1 -22 -6.3416 -8.5267
-1 -1 -21 0.5139 0.7138
-1 -1 -20 -0.5250 -2.4915
-1 -1 -19 2.9942 -1.6704
-1 -1 -18 13.8673 7.4437
-1 -1 -17 -1.6838 -3.6234
-1 -1 -16 1.3008 -2.7119
-1 -1 -15 7.4847 5.0911
-1 -1 -14 -22.7268 -9.5791
-1 -1 -13 0.7074 1.4276
-1 -1 -12 -0.0464 9.2926
-1 -1 -11 -2.3721 -4.0975
-1 -1 -10 8.8722 -9.4789
-1 -1 -8 -5.6111 -7.2851
-1 -1 -7 -10.6012 4.9607
-1 -1 -6 -43.1700 -21.4141
-1 -1 -5 -13.9625 -55.7780
-1 -1 -4 -18.3608 40.2110
-1 -1 -3 -14.9325 -32.5126
0 0 2 64.9988 5.0302
0 0 4 28.3398 12.9413
0 0 6 -45.8357 -12.1916
0 0 8 -56.1122 -3.3350
0 0 10 -6.6536 12.2219
0 0 12 0.6926 -3.9571
0 0 14 10.2159 -7.1837
0 0 16 -7.9727 6.9512
0 0 18 11.2134 1.5184
0 0 20 13.5743 -5.5120
0 0 22 -5.7757 2.0128
0 0 24 -14.9971 2.5894
0 1 1 7.6400 -12.4534
0 1 3 -12.8086 -90.7557
0 1 4 -8.5253 -77.1912
0 1 6 -7.6050 12.6170
0 1 8 12.1523 -15.9470
0 1 9 -7.2007 29.2136
0 1 10 -0.6145 -6.9582
0 1 12 -9.4486 -1.8247
0 1 14 5.8815 20.4954
0 1 16 3.7431 11.7448
0 1 17 -6.1710 -0.5599
0 1 18 -6.2549 -11.3788
0 1 19 3.7721 -7.6427
0 1 20 0.5473 4.2273
0 1 21 2.2024 3.6924
0 1 22 3.6683 10.6619
0 1 23 -3.3977 -1.3532
0 1 24 -2.3136 -11.4716
0 2 3 -8.9794 8.0889
0 2 9 12.6672 16.8762
0 2 10 -5.4415 0.0954
0 2 11 1.9990 -16.8990
0 2 12 1.0614 -0.1306
0 2 14 5.5579 -0.1099
0 2 15 -9.4746 14.8600
0 2 16 10.5064 0.0971
0 2 17 8.7509 -5.1039
0 2 18 -0.8410 0.0489
0 2 19 6.9321 -7.7251
0 2 20 10.8814 -0.0883
0 2 21 -10.5430 7.6896
0 2 22 -8.0102 0.0141
0 2 23 -5.3235 1.1291
0 2 24 3.8588 0.0136
0 3 5 0.7777 7.0117
0 3 6 10.7688 -20.1818
0 3 8 -17.4071 -7.5061
0 3 9 -11.3407 -9.6426
0 3 10 0.7379 -15.5626
0 3 12 13.6589 -0.0052
0 3 13 14.0945 7.4764
0 3 15 -1.0901 -1.7393
0 3 16 -5.5528 -6.3011
0 3 17 -9.6620 -8.4460
0 3 19 5.8760 16.7945
0 3 20 -0.6951 4.8307
0 3 21 3.4991 -3.1445
0 3 22 -5.2834 2.9343
0 3 23 -4.8476 -7.3431
0 3 24 2.9005 -0.4176
0 4 5 -3.7549 -0.8884
0 4 6 -13.3333 22.1625
0 4 8 20.7795 6.7505
0 4 10 1.7104 -22.6979
0 4 11 -0.2172 -0.5805
0 4 12 -1.9713 7.4248
0 4 14 -8.5723 13.5735
0 4 15 -2.8310 0.5317
0 4 17 4.4138 -0.2020
0 4 18 0.3573 -2.8163
0 4 19 3.9848 -0.3956
0 4 20 -9.8187 10.2898
0 4 21 1.4834 0.1789
0 4 22 4.7515 -3.2221
0 4 23 5.4163 0.0110
0 5 6 10.2947 15.2618
0 5 7 -15.2151 -7.9395
0 5 8 -16.3258 -8.0230
0 5 10 0.8486 -4.8203
0 5 12 12.7659 -2.4636
0 5 13 -11.3662 -1.3853
0 5 14 -7.6085 -11.1835
0 5 16 -5.4182 -2.2210
0 5 17 7.8418 1.5185
0 5 18 8.2607 8.3926
0 5 19 -4.5818 1.8694
0 5 20 -0.6317 -6.5546
0 5 21 -2.9698 -0.5485
0 5 22 -4.9595 -5.8829
0 5 23 3.9890 3.3289
0 6 3 -2.0019 -8.0217
0 6 7 12.9897 -8.0107
0 6 8 4.4283 0.2749
0 6 9 -1.2696 -16.8077
0 6 12 -4.4324 0.3911
0 6 15 -2.0330 -14.5905
0 6 17 -4.4428 4.9467
0 6 18 6.9024 -0.0707
0 6 19 -0.9210 7.7070
0 6 20 -2.0806 0.4734
0 6 21 9.1560 -7.0872
0 6 22 -2.7954 -0.2304
0 6 23 0.2089 -1.0399
0 7 2 16.5071 -5.9690
0 7 4 -10.1822 -10.4997
0 7 7 -16.4893 -22.3516
0 7 9 10.1927 2.7449
0 7 10 -0.7422 -4.0388
0 7 12 -11.2371 7.3868
0 7 14 6.8783 5.0415
0 7 15 1.0558 3.8122
0 7 16 4.5575 0.7155
0 7 17 8.4701 2.9378
0 7 18 -7.4095 -2.6941
0 7 19 -5.1449 5.3276
0 7 20 0.6977 -7.2570
0 7 21 -2.8956 7.8046
0 7 22 4.0631 -2.8628
0 7 23 4.1719 0.8591
0 8 0 12.0977 -26.6185
0 8 2 15.1744 8.5881
0 8 5 5.8984 1.8662
0 8 8 -7.7135 -6.0412
0 8 11 -0.6535 1.2174
0 8 12 7.7434 -6.8151
0 8 14 3.1497 -12.0860
0 8 15 -14.0781 -1.0784
0 8 16 0.4861 11.7924
0 8 18 0.5975 2.5830
0 8 19 3.0807 0.5647
0 8 20 9.6342 -9.4091
0 8 21 -3.3005 -0.6950
0 8 22 14.8098 2.9896
0 9 1 9.8685 -1.9972
0 9 4 -11.8067 -5.1623
0 9 6 -10.1913 1.7968
0 9 8 16.4744 20.3304
0 9 10 -0.8247 -5.9652
0 9 11 -6.7331 -4.0510
0 9 12 -12.8099 -6.5878
0 9 13 10.7086 6.1768
0 9 14 7.8421 3.0331
0 9 16 5.2771 -5.2839
0 9 17 -7.4545 -5.3086
0 9 18 -8.3219 -8.8077
0 9 19 4.4700 -3.5988
0 9 20 0.7283 4.6046
0 9 21 2.3335 -4.3197
0 9 22 4.5503 3.1037
0 10 3 6.8957 7.2853
0 10 7 13.5368 7.6881
0 10 11 13.8244 -15.4324
0 10 12 3.9229 -0.5793
0 10 13 -5.2395 -3.9630
0 10 15 -0.0369 13.9472
0 10 16 -7.2249 1.0343
0 10 17 -1.1703 -4.3949
0 10 18 -0.3607 0.1813
0 10 19 1.0612 -7.3652
0 10 20 -3.9750 -0.8546
0 10 21 -1.6611 6.2070
0 11 1 11.1291 5.4998
0 11 2 -14.6839 -17.9909
0 11 4 8.9719 -1.9731
0 11 6 7.9854 -2.0963
0 11 8 -12.5446 -3.5438
0 11 10 0.5129 -1.2541
0 11 11 -7.3605 -8.2452
0 11 12 9.9106 17.2283
0 11 13 11.5864 7.3014
0 11 14 -5.8518 -5.7438
0 11 15 -0.6784 -8.5535
0 11 16 -4.1772 0.4314
0 11 17 -8.0548 -9.3155
0 11 18 6.4966 -0.4385
0 11 19 4.6362 8.3860
0 11 20 -0.5171 9.3329
0 11 21 2.4600 0.0268
0 12 0 11.5999 23.3299
0 12 2 8.9371 -7.2752
0 12 4 -16.7730 -17.9531
0 12 5 -7.1654 -2.1697
0 12 6 38.4215 17.4558
0 12 8 22.0500 5.4362
0 12 10 10.8083 -17.9073
0 12 12 -4.3995 5.9159
0 12 14 -5.8854 10.5067
0 12 15 -1.4210 1.3365
0 12 16 8.2528 -9.9105
0 12 17 -6.0749 -0.4064
0 12 18 -0.7246 -2.2898
0 12 19 0.1256 -0.5584
0 12 20 -5.0296 7.1972
0 13 1 -8.2482 7.5193
0 13 2 -16.6728 3.2837
0 13 3 13.2934 11.1702
0 13 4 10.3465 3.9318
0 13 5 -0.2831 3.3225
0 13 6 9.1332 2.0944
0 13 7 -11.8190 0.0532
0 13 9 7.2122 -17.7652
0 13 10 0.8967 7.9109
0 13 11 5.6175 7.8777
0 13 13 -8.7454 6.6486
0 13 14 -6.8799 -9.4245
0 13 15 0.5529 -1.8680
0 13 16 -4.7315 -2.4718
0 13 17 6.4437 -5.3601
0 13 18 7.1396 10.5538
0 13 19 -3.5057 8.6497
0 14 2 5.4507 -0.8816
0 14 8 -1.4016 0.4758
0 14 9 -7.3237 -13.7298
0 14 11 -1.5036 13.3860
0 14 12 2.8886 0.7980
0 14 13 -3.4108 3.4809
0 14 14 -7.6396 1.1729
0 14 15 4.9966 -12.3053
0 14 16 0.9845 -1.2158
0 14 17 4.4772 4.3722
0 14 18 -1.1881 -0.0621
0 15 1 -9.6929 -0.9620
0 15 2 12.0722 8.0267
0 15 3 15.7177 -2.5098
0 15 4 -7.4490 -6.2647
0 15 6 -6.5087 -0.0260
0 15 7 -13.8377 -0.2061
0 15 8 10.3616 3.5790
0 15 9 8.5710 3.5533
0 15 10 -0.4753 0.3360
0 15 12 -8.1285 4.8845
0 15 13 -10.5561 -2.9599
0 15 14 4.8621 -1.0355
0 15 15 1.3333 2.8229
0 15 16 3.0382 -11.3927
0 15 17 6.1806 3.0372
0 16 2 -2.9384 6.2620
0 16 3 4.4862 -0.8050
0 16 4 -5.1377 15.1512
0 16 5 -1.6317 2.7050
0 16 6 5.3130 -14.9426
0 16 7 -13.4605 -0.8394
0 16 8 -2.1423 -4.5289
0 16 9 -0.4468 -1.7977
0 16 10 -3.8763 15.3625
0 16 11 -1.3276 1.7123
0 16 12 2.7719 -4.7922
0 16 13 0.1733 0.2389
0 16 14 -3.4913 -8.2117
0 16 15 7.4428 -1.4646
0 16 16 7.1541 7.1273
0 17 1 6.5807 -0.1067
0 17 2 14.5192 -1.4676
0 17 3 -10.5822 -9.3529
0 17 4 -9.0985 -7.0805
0 17 5 0.2917 0.8910
0 17 6 -7.9124 -9.1294
0 17 7 9.4602 5.1780
0 17 8 12.6506 8.5096
0 17 9 -5.6405 -5.7783
0 17 10 -0.3020 6.1639
0 17 11 -4.8209 4.4350
0 17 12 -9.0331 -5.4610
0 17 13 6.5543 0.2775
0 17 14 5.1739 3.9274
0 17 15 -0.2532 -7.0971
0 18 0 2.0402 -2.9763
0 18 2 -7.0265 0.9685
0 18 4 -0.2550 2.2377
0 18 5 1.5484 -17.2354
0 18 6 1.9686 -2.3547
0 18 7 -2.1933 5.3519
0 18 8 -1.0670 -0.5998
0 18 9 -5.5032 11.6250
0 18 10 -10.0761 1.8178
0 18 11 -3.4056 -10.4756
0 18 12 1.2671 -0.8842
0 18 13 5.5658 -2.3717
0 18 14 4.0564 -1.1889
0 19 1 8.2610 0.0463
0 19 2 -9.4654 -5.0913
0 19 3 -12.9541 -2.2089
0 19 4 5.6512 5.6843
0 19 5 0.1072 -4.8339
0 19 6 5.1301 -5.3748
0 19 7 11.5524 0.8993
0 19 8 -7.6771 -5.7099
0 19 9 -7.1372 -6.3651
0 19 10 0.2553 -1.2891
0 19 11 -4.4596 4.3221
0 19 12 5.0963 -4.6345
0 20 0 -0.9420 16.1739
0 20 1 -8.3783 2.3447
0 20 2 2.3714 -5.3215
0 20 3 -11.2597 0.4427
0 20 4 2.3131 -10.8327
0 20 5 1.2892 -2.3318
0 20 6 -2.7979 10.2496
0 20 7 -3.4811 0.8436
0 20 8 6.8221 2.9518
0 20 9 4.0340 1.3741
0 20 10 2.2652 -10.3890
0 21 2 -10.0528 0.7475
0 21 3 6.7475 1.9173
0 21 4 6.1850 -3.2617
0 21 5 -0.2263 -11.8603
0 21 6 5.4011 0.4577
0 21 7 -6.0033 -6.3767
0 22 0 -10.6154 2.5231
0 22 1 -0.6176 -9.6900
0 22 2 -2.9063 -0.7973
1 0 8 -25.0081 9.5046
1 0 10 -2.3448 0.1300
1 0 14 0.6113 4.5265
1 0 16 -4.0725 3.3525
1 0 17 3.1309 4.2967
1 0 18 6.2277 -4.8397
1 0 19 5.0787 3.7265
1 0 20 -6.8642 0.2687
1 0 21 -4.7329 4.5952
1 0 22 0.1717 3.0777
1 0 23 -0.9239 -6.0887
1 0 24 -11.4837 -1.4549
1 1 2 -83.2468 -2.7651
1 1 3 -14.9325 32.5126
1 1 4 -18.3608 -40.2110
1 1 5 -13.9625 55.7780
1 1 6 -43.1700 21.4141
1 1 7 -10.6012 -4.9607
1 1 8 -5.6111 7.2851
1 1 9 9.7007 24.5219
1 1 10 8.8722 9.4789
1 1 11 -2.3721 4.0975
1 1 12 -0.0464 -9.2926
1 1 13 0.7074 -1.4276
1 1 14 -22.7268 9.5791
1 1 15 7.4847 -5.0911
1 1 16 1.3008 2.7119
1 1 17 -1.6838 3.6234
1 1 18 13.8673 -7.4437
1 1 19 2.9942 1.6704
1 1 20 -0.5250 2.4915
1 1 21 0.5139 -0.7138
1 1 22 -6.3416 8.5267
1 1 23 -4.6933 4.0497
1 1 24 2.3046 4.2410
1 2 1 21.3377 0.4274
1 2 4 -18.7894 14.7702
1 2 6 17.2675 10.9856
1 2 7 -15.3323 -5.0574
1 2 8 -7.7974 -20.8004
1 2 10 -23.3592 2.0044
1 2 11 -1.0293 -5.6838
1 2 13 -4.1782 -1.8392
1 2 14 19.0423 18.9523
1 2 16 -10.3237 -1.3025
1 2 17 7.1524 4.3193
1 2 18 -4.2197 3.8670
1 2 19 -4.2430 -7.3052
1 2 20 14.4713 8.0888
1 2 21 -2.2413 10.3153
1 2 22 2.1944 -2.3891
1 2 23 -2.3463 2.1219
1 2 24 -7.9942 2.3094
1 3 1 15.2960 45.1807
1 3 6 7.9091 1.7840
1 3 8 -9.4282 8.3402
1 3 9 3.8627 -6.4496
1 3 10 -5.4540 -0.4307
1 3 11 -11.6601 2.1248
1 3 12 -0.7685 -6.1970
1 3 13 0.0568 9.4659
1 3 14 4.5268 1.1621
1 3 15 12.5679 2.7538
1 3 16 -5.7447 6.3779
1 3 17 2.0559 -5.9204
1 3 18 9.6703 -3.1696
1 3 19 -5.7285 -2.2490
1 3 20 -2.4286 -0.5395
1 3 21 -0.5720 -4.8143
1 3 22 -1.5938 7.1855
1 3 23 2.3360 -5.1813
1 3 24 3.8575 -2.8094
1 4 1 5.1777 -55.3522
1 4 4 -1.3414 -11.5563
1 4 6 -9.7789 -11.7993
1 4 8 0.4965 17.3339
1 4 9 -15.8758 3.2854
1 4 10 -5.7389 -5.8828
1 4 11 12.3540 7.1769
1 4 12 3.1460 -7.0716
1 4 13 3.8706 5.9285
1 4 14 4.3354 8.0704
1 4 15 -16.5429 -3.9613
1 4 16 6.4626 3.2617
1 4 18 -5.6045 -2.3233
1 4 19 7.3766 8.3032
1 4 20 -4.6646 3.2167
1 4 21 -5.0049 -7.3840
1 4 22 -0.1771 6.5368
1 4 23 -3.4962 0.2767
1 5 1 8.0797 20.8936
1 5 2 -26.4453 -4.7786
1 5 3 21.6330 -7.3542
1 5 4 -15.2023 -7.9114
1 5 7 -5.0838 -1.8257
1 5 8 9.6243 -16.5276
1 5 9 -1.8432 -8.1236
1 5 10 -7.5073 5.7475
1 5 11 4.0852 -4.5774
1 5 12 6.8097 6.0834
1 5 13 0.6130 9.8080
1 5 14 3.8269 -4.1843
1 5 15 -6.8881 -6.4002
1 5 16 -6.3038 1.6169
1 5 17 2.1896 -4.5461
1 5 18 -0.0614 5.3266
1 5 19 4.1071 6.9626
1 5 20 4.5078 -7.6018
1 5 21 -2.0446 2.2071
1 5 22 1.0272 -7.9533
1 5 23 -2.5246 -1.9235
1 6 1 7.9262 10.9480
1 6 3 -11.6877 -11.9933
1 6 4 11.1383 8.3289
1 6 5 -2.4528 -0.9880
1 6 12 -12.0492 5.3951
1 6 13 4.7043 4.3796
1 6 14 -4.7315 -1.4693
1 6 15 -2.4865 0.0815
1 6 16 14.6486 -4.0149
1 6 17 -1.1697 -5.3755
1 6 18 -4.0912 8.4001
1 6 19 4.8547 -0.7315
1 6 20 -5.9741 -0.7530
1 6 21 0.4529 0.6116
1 6 22 11.3870 1.9644
1 6 23 1.3069 -5.9466
1 7 0 1.7213 34.6488
1 7 1 -11.3064 6.8669
1 7 3 3.8953 4.9739
1 7 4 5.1547 8.9105
1 7 5 12.9029 2.2241
1 7 9 -3.4414 9.8134
1 7 11 2.7667 7.9556
1 7 13 2.6719 -11.1394
1 7 14 2.1814 -15.4907
1 7 15 -4.3575 4.3375
1 7 16 1.0161 -0.3127
1 7 17 2.6358 6.5513
1 7 18 -0.2237 3.6170
1 7 19 3.0020 -8.7863
1 7 20 -7.9626 -6.4475
1 7 21 0.3138 -5.8071
1 7 22 2.0061 -2.5614
1 8 1 16.6671 1.5103
1 8 3 14.5889 -6.9240
1 8 4 -5.6507 8.6654
1 8 5 -16.3854 -17.7827
1 8 7 6.8631 0.6187
1 8 9 9.8752 8.4770
1 8 11 -7.4303 -2.2665
1 8 12 5.6056 8.3156
1 8 13 -2.0751 -4.7538
1 8 14 -3.7593 -4.1231
1 8 15 15.0373 -2.6894
1 8 16 -2.2694 1.0160
1 8 17 -11.5170 -1.1084
1 8 18 -1.0171 9.9658
1 8 19 -6.3370 0.7365
1 8 20 1.1658 -1.8403
1 8 21 3.5523 1.3111
1 8 22 1.5625 -4.6898
1 9 0 1.9475 4.0765
1 9 1 -6.6088 -16.7936
1 9 2 -11.1546 7.2043
1 9 3 2.3485 16.5456
1 9 4 -3.5848 -14.7817
1 9 5 -10.3346 -2.5168
1 9 6 5.1571 -17.5607
1 9 7 7.1963 -10.9321
1 9 8 -6.1978 -0.2961
1 9 9 7.6199 9.8621
1 9 10 6.6447 2.7013
1 9 11 -2.7663 9.5338
1 9 12 1.1615 -11.8785
1 9 13 -1.2045 -2.4596
1 9 14 -7.0152 8.1881
1 9 15 1.6241 0.1651
1 9 16 -0.4031 0.0803
1 9 17 -4.2726 7.6917
1 9 18 3.5141 -5.8611
1 9 19 -3.2240 -10.5317
1 9 20 2.2763 3.2517
1 9 21 0.8272 -2.0455
1 9 22 -2.5113 1.1074
1 10 1 15.5936 -18.2878
1 10 3 4.6654 7.3254
1 10 4 -10.2734 7.9739
1 10 5 -1.7647 9.5999
1 10 6 19.7712 -8.8918
1 10 7 -4.3369 -7.1952
1 10 8 -1.4675 -20.2206
1 10 9 -13.1939 -6.2057
1 10 11 -3.6494 7.7242
1 10 13 3.5142 -8.2624
1 10 14 10.8157 0.0836
1 10 15 -2.4536 -0.8694
1 10 16 -18.0525 -4.3932
1 10 17 -2.0528 -2.3212
1 10 18 -0.0051 0.2198
1 10 19 -0.4810 -0.8491
1 10 20 7.3282 3.6918
1 10 21 5.3202 -3.1461
1 11 0 -1.5983 -15.0484
1 11 1 4.4924 3.5424
1 11 2 7.2888 9.7728
1 11 3 1.7981 -11.5726
1 11 4 -1.3751 -2.7458
1 11 5 -3.3384 -1.9558
1 11 6 10.6300 -12.6049
1 11 7 3.7314 2.4468
1 11 8 4.0394 14.3240
1 11 9 2.3265 0.4314
1 11 10 3.3738 2.1497
1 11 11 -3.1295 -7.6214
1 11 12 3.9028 -9.0903
1 11 13 -4.3375 11.7158
1 11 14 2.2546 3.2415
1 11 15 2.0234 -1.0398
1 11 16 -5.8051 0.4441
1 11 17 -4.0175 -2.4875
1 11 18 2.3490 -8.3606
1 11 19 -0.8187 1.5157
1 11 20 2.5101 1.3210
1 11 21 2.1298 4.1361
1 12 1 -1.7777 -14.1429
1 12 2 -10.2147 10.7491
1 12 3 -5.5729 -0.8267
1 12 4 -6.6130 1.5706
1 12 5 19.2450 2.1805
1 12 7 0.0064 -4.9580
1 12 8 2.3957 2.8630
1 12 9 -14.5344 0.4016
1 12 11 12.4836 6.6595
1 12 12 5.1745 -0.5910
1 12 13 5.7396 6.6491
1 12 14 0.7425 6.0849
1 12 15 -15.9343 -0.1796
1 12 16 -1.7334 -7.5894
1 12 17 3.4372 -1.7503
1 12 18 -0.4804 -2.6696
1 12 19 12.6406 -0.6929
1 12 20 4.6202 1.9166
1 13 0 -1.7804 0.6102
1 13 1 6.4203 12.0925
1 13 2 -10.6359 -9.1001
1 13 3 0.1413 -7.7443
1 13 4 -6.1847 3.7288
1 13 5 12.4496 -13.2510
1 13 6 16.0456 -4.2141
1 13 8 -1.0886 -3.6749
1 13 9 0.6174 -2.1116
1 13 10 -10.6194 3.0731
1 13 11 2.4021 2.0282
1 13 12 1.0323 4.7083
1 13 13 -0.9877 10.0455
1 13 14 4.3705 -0.8523
1 13 15 -8.3614 -7.4714
1 13 16 -4.4632 -1.2243
1 13 17 2.5130 -1.2899
1 13 18 -3.1575 5.1360
1 13 19 1.6805 3.7935
1 14 0 -2.2050 -5.8756
1 14 1 -7.3604 11.1414
1 14 2 6.2513 1.9126
1 14 3 1.9044 -11.0029
1 14 4 8.8959 -0.2851
1 14 6 -14.0354 -0.9124
1 14 7 4.9181 5.6783
1 14 8 -7.2744 13.6296
1 14 9 0.0697 -2.0829
1 14 10 12.3202 0.9654
1 14 11 6.4559 0.4856
1 14 12 -6.7974 9.4598
1 14 13 3.5093 1.7459
1 14 14 -8.7042 0.4231
1 14 15 8.3655 -4.5803
1 14 16 6.9280 0.1896
1 14 17 0.2436 -0.9087
1 14 18 2.1473 2.1281
1 15 0 1.5326 13.1513
1 15 1 -7.9498 0.3595
1 15 2 4.0874 -6.8561
1 15 3 6.1587 2.2568
1 15 4 -2.1232 7.1272
1 15 5 11.5675 5.8158
1 15 6 -9.5292 -1.0019
1 15 7 -2.9786 -0.6796
1 15 8 -1.3098 -11.9600
1 15 9 -4.7678 4.5087
1 15 10 9.2617 4.7566
1 15 11 11.1792 -0.3638
1 15 12 0.7637 2.4969
1 15 13 -2.4122 -8.2055
1 15 14 0.3862 -7.8466
1 15 15 -2.0501 0.7233
1 15 16 8.5365 -4.8057
1 15 17 2.3298 4.0924
1 16 0 -0.2174 3.2826
1 16 1 5.1001 6.1545
1 16 2 6.1598 -14.0400
1 16 3 3.3902 5.5116
1 16 4 -4.4634 1.1044
1 16 5 -17.0759 -1.6818
1 16 6 -1.3465 3.4075
1 16 7 6.9659 2.6859
1 16 8 4.3637 -9.7954
1 16 9 12.1628 5.9611
1 16 10 3.4623 8.4615
1 16 11 -0.3409 2.3303
1 16 12 -10.2929 13.4452
1 16 13 -6.3553 -0.7388
1 16 14 1.2042 -2.2655
1 16 15 2.5907 -0.1457
1 16 16 -4.1535 -4.9615
1 17 0 1.8981 0.8584
1 17 1 0.5675 -6.0415
1 17 2 7.1105 3.9685
1 17 3 -4.2335 9.1453
1 17 4 1.4931 -2.1167
1 17 5 -4.3360 -8.9596
1 17 6 -3.7114 -5.0769
1 17 7 6.7388 -8.1053
1 17 8 -4.8306 2.2764
1 17 9 7.4241 7.0276
1 17 10 4.1713 2.1609
1 17 11 -4.7924 4.1303
1 17 12 0.6337 -6.0105
1 17 13 -1.6689 -6.0115
1 17 14 0.6398 5.3350
1 17 15 4.4080 -1.1618
1 18 0 1.8941 4.3556
1 18 1 2.1824 -7.5754
1 18 2 -4.4526 -5.7858
1 18 3 -4.3046 10.5038
1 18 4 -12.4969 -8.3238
1 18 6 10.1122 -4.9429
1 18 7 3.2662 -15.2697
1 18 8 -6.0716 -0.2202
1 18 9 -11.8015 -0.7494
1 18 10 -10.7878 -2.9571
1 18 11 -2.1186 -1.1149
1 18 12 -2.3024 2.4503
1 18 13 2.4033 -2.9768
1 18 14 4.1487 -2.3192
1 19 0 -1.2184 -2.2061
1 19 1 4.6047 0.5883
1 19 2 -4.3372 6.5952
1 19 3 -1.9944 -6.4849
1 19 4 -5.7884 -3.9258
1 19 5 -7.6307 -6.1858
1 19 6 5.4533 -0.6091
1 19 7 -2.9294 14.2481
1 19 8 3.1220 14.4181
1 19 9 -0.3268 1.2212
1 19 10 -6.2981 4.3591
1 19 11 -0.0040 -1.5677
1 19 12 -0.5948 -3.4429
1 20 0 0.8381 -1.6407
1 20 1 -3.7011 -3.3018
1 20 2 -3.1420 8.0004
1 20 3 -5.0658 1.3937
1 20 4 2.8318 -2.4100
1 20 5 7.0997 -2.8436
1 20 6 2.4951 -3.7216
1 20 7 -9.0303 0.9966
1 20 8 1.1476 1.9080
1 20 9 -5.3976 -0.8565
1 20 10 6.0498 2.9875
1 21 0 -2.5809 -2.1066
1 21 1 -9.5678 0.0999
1 21 2 -5.5236 -3.4143
1 21 3 -0.0417 -2.2910
1 21 4 -4.9739 -2.0919
1 21 5 4.3421 -4.3337
1 21 6 0.9670 11.6246
1 21 7 -0.4242 3.4847
1 22 0 2.5287 3.9058
1 22 1 -1.3582 -0.7966
1 22 2 -2.7353 2.2490
2 0 0 20.4104 -1.9651
2 0 8 -22.2624 -2.3157
2 0 9 11.8756 13.8722
2 0 10 3.9571 5.1432
2 0 12 8.9142 -1.3218
2 0 13 -15.3417 -0.2255
2 0 14 6.4083 -3.5002
2 0 15 0.6410 0.8150
2 0 16 -1.3967 3.1625
2 0 17 10.9195 -3.8385
2 0 18 -6.6302 1.0466
2 0 19 -6.3000 -5.2637
2 0 20 -1.0692 -2.4364
2 0 21 -3.7304 1.9239
2 0 22 8.9718 0.5808
2 0 23 5.5271 13.1711
2 0 24 1.1659 1.5264
2 1 0 -77.2806 5.9175
2 1 3 -21.9317 9.1643
2 1 4 12.5939 -8.2263
2 1 5 -21.2266 0.6138
2 1 6 12.9787 24.1544
2 1 7 -7.2180 0.4036
2 1 8 10.6730 22.6305
2 1 11 6.6326 -12.0786
2 1 12 1.8868 -10.6493
2 1 13 1.7919 5.0275
2 1 14 -8.6840 6.3387
2 1 15 1.5860 11.7237
2 1 16 -0.2820 -4.0513
2 1 17 -0.7655 3.5770
2 1 18 1.1364 -0.6787
2 1 19 -2.8028 -7.5596
2 1 20 -5.2051 4.7070
2 1 21 2.1628 1.2419
2 1 22 -4.6884 -0.2188
2 1 23 -6.5546 5.3023
2 1 24 8.5819 6.4749
2 2 0 4.4184 0.2445
2 2 1 23.6977 -12.3882
2 2 2 7.2631 10.8541
2 2 3 -15.6157 -6.4524
2 2 4 7.0186 25.0237
2 2 5 28.7193 4.0073
2 2 6 19.3427 11.0329
2 2 7 0.9143 -16.2333
2 2 8 6.7375 -1.5852
2 2 9 0.8569 -9.2446
2 2 10 0.4005 -1.4544
2 2 11 1.7815 6.7036
2 2 12 4.1293 -2.8406
2 2 13 -6.6136 0.9766
2 2 14 -3.9475 -6.5756
2 2 15 -5.0513 -8.5435
2 2 16 16.5293 -3.3610
2 2 17 0.8605 1.8219
2 2 18 9.5143 1.6869
2 2 19 5.2291 7.4031
2 2 20 -1.6292 1.1994
2 2 21 6.7140 4.8930
2 2 22 -8.1708 -0.6011
2 2 23 1.7637 0.4715
2 2 24 3.4969 -6.4327
2 3 0 26.2329 -1.3944
2 3 1 -2.9932 18.0249
2 3 4 4.2961 -5.3993
2 3 6 -6.9578 -17.0607
2 3 8 3.1167 -5.6669
2 3 9 -9.2137 -8.4272
2 3 10 3.6613 7.7154
2 3 11 -7.4266 -3.5614
2 3 12 -3.8314 11.9148
2 3 14 0.0851 -6.3481
2 3 15 -1.9661 9.5243
2 3 16 5.5957 -5.6397
2 3 18 3.9598 2.7658
2 3 19 5.8934 -3.9692
2 3 20 -2.3555 5.7813
2 3 21 5.7804 8.5136
2 3 22 -2.3932 -6.2324
2 3 23 2.6936 9.7333
2 4 0 32.1599 -2.5457
2 4 1 -22.7576 -19.2847
2 4 2 7.0336 23.6904
2 4 6 -11.7713 -2.3239
2 4 9 -3.8746 -6.3582
2 4 10 7.8900 4.1353
2 4 11 9.8257 2.6611
2 4 14 5.8728 -0.8963
2 4 16 -5.3025 -2.1546
2 4 17 5.1086 3.1252
2 4 18 -4.7232 3.8013
2 4 19 -5.1190 -6.4167
2 4 20 -0.7449 -1.6256
2 4 21 -2.8212 -0.6853
2 4 22 -4.5060 -7.2313
2 4 23 -2.7647 0.1581
2 5 0 43.0036 -1.4838
2 5 2 4.0053 6.0761
2 5 3 0.3730 6.0258
2 5 4 6.2083 7.3523
2 5 7 0.4400 -13.6431
2 5 8 4.3148 1.0451
2 5 9 -2.6743 1.9570
2 5 10 -3.2627 3.0363
2 5 11 -10.9449 -1.7219
2 5 12 -0.9858 -2.1451
2 5 13 -2.5186 3.8395
2 5 14 -0.4251 -1.5320
2 5 15 -0.3684 -3.7678
2 5 16 -2.1575 -3.6081
2 5 17 -4.8716 4.0413
2 5 18 1.5890 -1.9816
2 5 19 -4.9830 7.3611
2 5 20 -3.8954 1.8665
2 5 21 2.3089 -4.0327
2 5 22 0.9116 -2.3278
2 5 23 1.0511 -1.7276
2 6 0 -11.2236 -0.3150
2 6 3 -8.7838 -13.8644
2 6 6 5.5247 -6.1850
2 6 10 1.8544 1.2487
2 6 12 -10.3743 1.3697
2 6 13 0.8745 -6.4385
2 6 14 -1.7423 2.9670
2 6 16 6.8003 3.7502
2 6 17 4.5828 5.1158
2 6 18 -2.5306 -1.0008
2 6 19 -5.2174 -5.7112
2 6 20 3.0420 -0.1341
2 6 21 -11.0775 1.3445
2 6 22 -4.9611 -3.1279
2 6 23 2.2372 1.2862
2 7 0 41.4370 -2.7062
2 7 1 -20.3457 1.0194
2 7 2 1.0080 8.0883
2 7 4 10.9583 2.6751
2 7 5 -2.5562 -0.2006
2 7 9 7.1750 -11.2310
2 7 10 -1.4916 2.2681
2 7 11 -0.4735 -1.2718
2 7 12 9.4524 -0.3564
2 7 14 4.2074 -6.8412
2 7 15 -2.4869 3.5335
2 7 16 -2.7937 3.4235
2 7 17 -2.0615 4.5554
2 7 18 3.3570 3.7343
2 7 19 -7.3921 1.4166
2 7 20 9.2195 -5.3669
2 7 21 4.2746 1.1180
2 7 22 5.4765 -5.0991
2 8 0 2.0212 2.9343
2 8 1 -1.4455 -13.8967
2 8 10 -5.9016 -1.5769
2 8 11 0.3523 1.5797
2 8 13 8.0694 0.3039
2 8 14 -1.8559 5.9423
2 8 15 -1.3239 -2.9916
2 8 16 0.4405 8.6498
2 8 17 -6.6718 -3.6630
2 8 18 -7.2270 -6.4026
2 8 19 2.1558 -0.7133
2 8 20 -1.7922 5.2437
2 8 21 0.3579 -3.2334
2 8 22 7.5785 2.4850
2 9 0 -8.4142 1.2311
2 9 1 -9.7946 -4.1504
2 9 2 -4.5492 -3.2798
2 9 4 3.4328 -0.7756
2 9 6 12.2537 -1.1712
2 9 8 10.6635 -6.7329
2 9 9 -0.9158 4.5534
2 9 10 -11.1864 -5.0312
2 9 11 1.7007 -7.9241
2 9 12 3.5482 -7.4915
2 9 14 2.1310 -5.7025
2 9 15 0.4935 6.0165
2 9 16 2.9180 2.1898
2 9 17 -4.2204 1.8224
2 9 18 -5.7578 -5.4038
2 9 19 1.3864 -2.1586
2 9 20 -1.6733 1.7363
2 9 21 5.6513 -0.9290
2 9 22 -7.5322 -7.6715
2 10 0 -7.2003 -0.0627
2 10 3 -9.3231 6.6085
2 10 4 3.5007 5.9224
2 10 6 -0.2085 -6.2799
2 10 7 9.1552 -5.1764
2 10 10 4.1294 3.9318
2 10 12 -1.3098 4.9637
2 10 14 -6.8069 -3.3862
2 10 16 -8.2481 -0.6861
2 10 17 -1.7656 -2.4012
2 10 18 1.6795 3.6914
2 10 19 -3.1295 -0.0163
2 10 20 -4.3079 -3.0956
2 10 21 3.5997 -1.4365
2 11 0 -1.7255 1.5103
2 11 1 -6.9215 3.2198
2 11 2 10.9214 -3.9574
2 11 3 -10.3009 -1.6246
2 11 4 3.0218 -2.3819
2 11 5 1.7610 2.0489
2 11 6 -2.1865 -2.8319
2 11 7 -8.2009 -6.1640
2 11 8 -0.7350 -9.8864
2 11 9 -6.7923 -19.3062
2 11 10 2.0384 -2.6581
2 11 11 4.1968 0.3916
2 11 12 1.3216 -3.1437
2 11 13 -0.9624 -1.6935
2 11 14 -4.9745 5.5530
2 11 15 2.3907 4.8835
2 11 16 -5.6478 -5.4931
2 11 17 -5.3654 0.5976
2 11 18 2.8142 -3.7493
2 11 19 3.4705 2.7723
2 11 20 4.0258 -1.0782
2 12 0 0.0608 -2.0095
2 12 5 -6.9040 -3.4495
2 12 9 -0.6041 -8.5677
2 12 10 2.6117 6.6761
2 12 11 2.5150 2.8986
2 12 13 -7.9332 -2.9748
2 12 14 3.4311 -2.5695
2 12 15 -7.5743 3.7660
2 12 16 -3.7061 0.9058
2 12 17 6.1458 1.2364
2 12 18 5.8510 2.3435
2 12 19 -3.4478 -1.6486
2 12 20 7.1673 0.1326
2 13 0 2.0452 -1.6752
2 13 1 6.4419 -0.3135
2 13 2 1.7624 -3.8787
2 13 4 3.1502 9.8650
2 13 5 9.4391 1.8874
2 13 6 -6.6068 -2.8700
2 13 8 1.7658 -0.3051
2 13 9 0.2288 -2.2545
2 13 10 -3.2092 6.3425
2 13 11 -8.1733 1.3461
2 13 12 5.8183 4.5973
2 13 14 -0.2990 2.8721
2 13 15 2.0426 -9.5367
2 13 16 0.3159 -1.1172
2 13 17 2.8283 -5.1451
2 13 18 3.0176 2.6927
2 13 19 1.4457 1.8000
2 14 0 1.2563 -0.1849
2 14 1 4.1897 6.3790
2 14 2 11.6168 0.1135
2 14 3 3.0127 -5.9759
2 14 4 2.1384 -7.5236
2 14 6 -4.5361 -3.3475
2 14 7 3.7473 8.4799
2 14 8 3.9991 5.0814
2 14 9 -4.1010 -1.3166
2 14 10 9.2493 3.7952
2 14 12 -4.8399 3.4314
2 14 13 2.2785 -5.4140
2 14 14 -3.4682 3.1706
2 14 15 0.3227 8.2412
2 14 16 0.0534 -4.1648
2 14 17 4.9568 3.1578
2 14 18 -1.5786 -4.8282
2 15 0 0.9473 -1.6096
2 15 1 5.6678 -3.1592
2 15 2 -8.6088 1.7559
2 15 3 1.3661 -1.4132
2 15 4 3.1327 5.6608
2 15 5 -2.9854 -0.3322
2 15 6 -6.0905 -5.9414
2 15 7 1.4437 3.7727
2 15 8 -0.6536 4.8000
2 15 9 -0.8501 0.6847
2 15 10 2.2680 5.2599
2 15 11 -4.1850 -0.4163
2 15 12 7.8852 -0.7755
2 15 13 -4.3446 8.0149
2 15 14 5.6400 -4.8810
2 15 15 3.4020 -4.3239
2 15 16 3.6501 7.8741
2 15 17 -5.3117 -1.0265
2 16 0 4.5681 2.1665
2 16 1 9.0829 -0.6533
2 16 2 3.3241 -4.7990
2 16 3 -3.5335 -1.0947
2 16 4 3.2446 -0.5299
2 16 6 0.8391 -1.1507
2 16 7 7.7297 5.7742
2 16 9 -0.0742 0.9439
2 16 10 2.3180 -2.7572
2 16 11 -7.1527 1.0952
2 16 12 -1.9096 -7.5670
2 16 13 1.8089 -1.6842
2 16 14 5.0250 2.3985
2 16 15 3.2124 1.1247
2 16 16 3.2168 4.5278
2 17 0 5.7036 1.0479
2 17 1 -10.7939 1.7869
2 17 2 -2.6489 2.0910
2 17 4 -1.3468 4.0075
2 17 5 -3.7154 -11.7452
2 17 6 5.1569 2.0135
2 17 7 -2.4554 -3.0538
2 17 8 10.4665 -1.7648
2 17 9 5.2536 5.3757
2 17 10 -1.9959 0.7651
2 17 11 -4.4846 2.2871
2 17 12 1.6896 5.7094
2 17 13 3.1630 3.5154
2 17 14 3.4935 -2.0958
2 17 15 1.3214 3.0879
2 18 0 -0.4867 0.5061
2 18 1 2.6656 -4.2569
2 18 2 -8.2576 1.4692
2 18 3 -1.4675 3.1709
2 18 4 1.3604 -1.9534
2 18 5 -2.0437 -5.6350
2 18 6 4.3024 -3.4539
2 18 7 2.6137 11.0086
2 18 8 -6.6545 -3.5774
2 18 9 -4.4254 -0.8471
2 18 10 2.5584 4.1253
2 18 11 2.2559 5.4558
2 18 12 -0.5989 -2.9658
2 18 13 -0.4330 2.9488
2 19 0 -4.0266 0.8356
2 19 1 -5.8497 0.1800
2 19 2 4.1756 -2.4762
2 19 3 1.6028 -2.0833
2 19 4 -1.5148 -4.5398
2 19 5 -0.6868 2.2564
2 19 6 2.3829 4.8830
2 19 7 -1.0345 0.3854
2 19 8 2.3492 6.2535
2 19 9 -3.8483 3.0968
2 19 10 -0.2390 -7.8200
2 19 11 3.5940 2.1871
2 19 12 4.4773 0.3770
2 20 0 -3.0331 -2.0350
2 20 1 -15.5340 -1.8478
2 20 2 -0.3597 4.4248
2 20 3 -3.0032 -4.8712
2 20 4 -0.7661 -3.1560
2 20 6 8.3095 0.6204
2 20 7 1.0559 3.0669
2 20 8 -3.0491 -3.8175
2 20 9 7.5970 0.5925
2 20 10 0.9510 5.0968
2 21 0 -3.6615 0.2079
2 21 1 0.7721 0.8463
2 21 2 4.1827 2.5175
2 21 3 -1.3857 -0.8235
2 21 4 -3.9541 4.1126
2 21 5 6.1002 4.5471
2 21 6 -0.6650 -2.4938
2 21 7 4.4561 2.9171
2 22 0 -10.6091 0.1296
2 22 1 -0.4049 0.0729
3 0 2 -125.3113 20.0157
3 0 4 -12.9817 -15.4860
3 0 5 -8.7109 36.4514
3 0 6 -19.6151 -14.2200
3 0 9 6.1201 25.1936
3 0 10 1.8465 -0.1688
3 0 14 -7.2182 10.0977
3 0 15 5.0744 4.0725
3 0 16 -4.4706 7.5805
3 0 17 -1.8269 0.8803
3 0 18 8.9535 -11.2210
3 0 19 -2.7349 4.5366
3 0 20 -1.6794 0.6626
3 0 21 2.5744 -9.2982
3 0 22 -4.9548 6.9755
3 0 23 0.4872 6.1463
3 0 24 -5.2856 -2.5819
3 1 2 28.4837 -67.2594
3 1 4 24.3924 -1.2172
3 1 5 -18.8399 18.0525
3 1 7 -12.7033 15.4709
3 1 9 2.1668 9.0663
3 1 10 23.0022 -1.1379
3 1 11 -1.7429 -3.8673
3 1 13 -1.6329 1.3469
3 1 14 -8.6036 -0.1725
3 1 15 5.0786 2.3734
3 1 16 5.6281 -6.7334
3 1 17 9.3220 -2.9788
3 1 18 -1.9688 5.9088
3 1 19 -10.2737 -10.3533
3 1 20 5.8942 3.4493
3 1 21 8.0266 2.8105
3 1 22 4.2591 4.7820
3 1 23 8.0670 3.6951
3 1 24 0.0165 2.5958
3 2 1 0.1840 11.4126
3 2 3 82.3856 14.8340
3 2 10 -6.1144 -13.2444
3 2 11 -8.6096 -6.1013
3 2 12 -0.8897 1.6273
3 2 14 -3.1630 4.5005
3 2 15 5.1603 -2.0688
3 2 16 -1.0928 1.8977
3 2 17 6.2878 -1.5203
3 2 18 0.1667 1.5871
3 2 19 -3.8462 -5.5266
3 2 20 5.6599 -14.0852
3 2 21 7.5059 -3.2740
3 2 22 2.2690 6.6440
3 2 23 2.3268 -3.3450
3 3 0 -1.7413 -89.3924
3 3 1 2.4242 -62.4362
3 3 2 10.3868 -8.5862
3 3 3 6.1921 -24.5407
3 3 4 9.3302 -11.1210
3 3 5 14.8847 -14.4907
3 3 6 -2.8723 -10.2279
3 3 7 -12.1917 5.9568
3 3 8 -14.6971 0.6480
3 3 9 0.9936 7.6890
3 3 10 5.0477 7.3616
3 3 11 10.6886 4.3207
3 3 12 6.1956 -6.5440
3 3 13 6.9757 2.4925
3 3 14 3.7014 -1.6938
3 3 15 -2.1839 -2.0852
3 3 16 15.9935 1.7768
3 3 17 1.0151 -4.7059
3 3 18 -4.0619 -0.3327
3 3 19 4.0278 0.8295
3 3 20 -1.5982 -1.1061
3 3 21 -4.9161 1.2903
3 3 22 -5.1136 8.3348
3 3 23 -3.0245 -6.2391
3 4 1 -7.0157 -0.1237
3 4 2 17.3134 -10.8328
3 4 4 -15.0652 -10.6114
3 4 5 2.1793 -0.0591
3 4 6 -4.0702 -1.9067
3 4 8 3.0485 -6.5146
3 4 11 -3.6586 1.6189
3 4 12 5.2263 8.0759
3 4 14 7.8641 -2.0547
3 4 15 6.6988 -8.0283
3 4 16 -3.6501 -0.7519
3 4 17 4.5054 0.1350
3 4 18 -3.6168 2.3957
3 4 19 -1.9500 2.9228
3 4 20 9.5473 -1.5238
3 4 21 -2.5773 13.2356
3 4 22 0.2443 2.1383
3 4 23 1.3617 -0.6869
3 5 1 6.3023 25.4101
3 5 3 -6.9980 -2.4035
3 5 4 -3.5092 2.0574
3 5 7 -10.8015 8.6724
3 5 9 2.1412 -5.6162
3 5 11 2.3442 -5.1534
3 5 12 -1.2242 0.2634
3 5 13 -0.8186 -4.6235
3 5 14 -10.2291 -2.7300
3 5 15 4.3195 -1.9488
3 5 16 -2.8325 1.9501
3 5 17 -3.7241 -1.5840
3 5 18 4.4766 1.8728
3 5 19 1.5286 6.0165
3 5 20 -1.5085 -5.3680
3 5 21 -7.3423 3.5562
3 5 22 2.5633 4.7860
3 5 23 -5.1320 -3.9705
3 6 0 1.5371 0.5830
3 6 1 6.6859 -4.4730
3 6 3 -8.8294 -3.6998
3 6 4 5.6447 3.1930
3 6 5 -1.2189 -10.2042
3 6 7 5.8338 0.2621
3 6 9 5.5428 -1.4933
3 6 10 -4.0284 -0.1922
3 6 11 0.8118 8.3446
3 6 13 -0.9367 1.6754
3 6 14 3.2983 1.6189
3 6 15 -8.5397 3.1134
3 6 16 -2.2548 6.3891
3 6 17 -2.1219 0.2951
3 6 18 -5.3435 1.6336
3 6 19 2.0776 -3.1833
3 6 20 -0.6190 2.6066
3 6 21 6.6263 -7.2328
3 6 22 -1.9472 -9.0011
3 6 23 -0.0813 -5.1089
3 7 0 -0.6484 15.7201
3 7 1 -4.4345 6.9580
3 7 3 5.5236 -13.8011
3 7 4 -1.7777 10.1992
3 7 5 -1.8497 1.2232
3 7 6 3.3118 -0.9717
3 7 7 20.0426 -0.8694
3 7 8 5.6968 -7.8495
3 7 9 3.8673 -10.9935
3 7 10 0.6276 8.7272
3 7 11 -2.0389 -6.8384
3 7 12 -1.6900 -6.5395
3 7 13 -9.7362 -6.8957
3 7 14 2.4033 5.5761
3 7 15 4.3690 1.2139
3 7 16 -0.1391 0.2929
3 7 17 0.2738 0.5433
3 7 18 2.3705 6.2288
3 7 19 -4.4392 -1.9708
3 7 20 -3.6398 -1.6111
3 7 21 3.4201 5.5659
3 7 22 -7.7466 5.4868
3 8 2 -3.2980 -5.8799
3 8 3 4.4909 0.9062
3 8 4 -1.7961 -10.2184
3 8 7 -3.7963 -11.2364
3 8 13 -0.1225 -1.6431
3 8 14 -0.8996 -0.5210
3 8 15 1.1840 1.3919
3 8 16 -1.0573 -1.7372
3 8 17 5.7722 -0.4293
3 8 18 -0.2558 0.4604
3 8 19 1.7160 5.5279
3 8 20 7.0611 5.1917
3 8 21 1.6849 -7.8665
3 8 22 -3.3599 1.8389
3 9 1 0.5911 -3.8458
3 9 2 -5.3593 -12.2927
3 9 5 -1.0899 4.8567
3 9 6 6.3819 4.0006
3 9 7 -8.6230 -0.7896
3 9 9 -10.2651 0.2381
3 9 10 3.6001 -1.2799
3 9 11 -1.4843 -8.2974
3 9 12 3.0536 -0.3697
3 9 13 -1.0299 6.5824
3 9 14 4.5748 3.3485
3 9 15 -0.9938 3.0589
3 9 16 -12.4916 1.0815
3 9 17 -0.7040 -0.8004
3 9 18 -0.5493 -4.2538
3 9 19 1.5986 -0.3970
3 9 20 1.8029 1.4567
3 9 21 -1.8690 -1.9691
3 10 0 -1.2601 -7.8200
3 10 1 9.1303 3.4590
3 10 3 12.5029 -0.3608
3 10 4 7.3525 -1.3895
3 10 5 -5.0089 -6.6348
3 10 6 2.8095 9.1451
3 10 7 -6.9974 5.2309
3 10 9 -12.4903 5.2768
3 10 10 -4.2688 -7.8396
3 10 11 -0.1770 -7.2611
3 10 13 -3.4695 0.7562
3 10 14 1.5434 0.0495
3 10 15 2.0214 0.0152
3 10 16 -1.5472 2.3820
3 10 17 2.6982 -1.9229
3 10 18 -4.2017 0.7724
3 10 19 -0.9960 1.5330
3 10 20 3.6613 -5.9163
3 10 21 -0.4321 -1.8466
3 11 0 0.4371 -21.5322
3 11 1 -9.3814 -1.4981
3 11 2 -2.3860 7.9281
3 11 3 -3.3105 -0.6252
3 11 4 3.4573 -0.3967
3 11 5 4.0875 -8.6076
3 11 6 -6.6111 5.8274
3 11 7 2.6186 -9.0604
3 11 8 -3.1670 0.0308
3 11 9 -3.0348 1.6553
3 11 10 -0.5167 5.4714
3 11 11 0.6141 4.9553
3 11 12 2.5699 1.5971
3 11 13 -0.2869 3.6556
3 11 14 1.2566 -2.9265
3 11 15 -2.8689 2.3646
3 11 16 5.4527 -0.2065
3 11 17 -0.0588 0.3931
3 11 18 3.5210 -3.1961
3 11 19 0.4516 2.6727
3 11 20 0.5833 -8.3663
3 12 2 -5.2641 1.2940
3 12 3 0.9160 -0.3666
3 12 4 -0.5652 -3.6392
3 12 6 0.9459 -0.3202
3 12 7 3.2236 2.2400
3 12 12 -2.2554 -0.4323
3 12 13 -1.9975 2.1754
3 12 14 4.4350 -1.5176
3 12 15 4.4280 -4.8487
3 12 16 3.8357 0.5839
3 12 17 -3.2823 -3.5397
3 12 18 -2.3360 -1.7372
3 12 19 4.5780 -6.0123
3 12 20 1.6259 -2.5763
3 13 0 0.5647 -2.9425
3 13 1 -11.2154 10.2836
3 13 2 1.9721 1.1044
3 13 3 7.1784 -5.5672
3 13 4 -3.2364 -8.9415
3 13 5 -7.3853 -4.1225
3 13 6 -8.5747 -0.0646
3 13 7 9.4094 -4.9794
3 13 8 -4.0728 2.9602
3 13 9 -0.6327 8.5248
3 13 10 10.5606 -2.0124
3 13 11 2.8961 -2.4774
3 13 12 -2.2796 -4.5241
3 13 13 -1.2954 -6.1744
3 13 14 -2.9329 2.3579
3 13 15 -0.4035 1.1189
3 13 16 2.8465 2.2266
3 13 17 -4.0822 -2.2692
3 13 18 -2.5287 2.4726
3 13 19 1.5275 -1.6828
3 14 0 0.7589 1.9122
3 14 1 -2.4617 -0.5335
3 14 3 -1.6130 -0.4105
3 14 4 -0.9543 7.0261
3 14 5 -5.2012 3.0880
3 14 7 -2.8384 -1.3773
3 14 9 1.8358 5.1180
3 14 11 2.6473 7.0146
3 14 13 2.5236 -1.7123
3 14 14 5.3709 -2.3843
3 14 15 1.4957 -1.6179
3 14 16 -3.8685 -5.1321
3 14 17 -0.6323 3.4563
3 14 18 3.7831 3.6349
3 15 0 -0.3772 4.3929
3 15 1 12.1205 5.2789
3 15 2 13.5747 -3.3173
3 15 3 -1.7990 3.5044
3 15 4 -4.9571 -4.2836
3 15 5 -2.5573 4.3918
3 15 6 9.2746 10.6150
3 15 7 -0.9376 1.2366
3 15 9 -0.0429 -1.4496
3 15 10 2.2619 -6.8438
3 15 11 -4.2327 -0.8342
3 15 12 -3.7934 -1.1349
3 15 13 -2.0763 3.8391
3 15 14 2.3028 3.1186
3 15 15 5.0000 -4.1551
3 15 16 1.9113 3.0620
3 15 17 -0.6551 -1.0760
3 16 0 0.1190 11.0196
3 16 1 -2.6500 -1.9353
3 16 2 4.4240 -1.2996
3 16 3 -6.1841 3.7435
3 16 4 3.8079 -4.6030
3 16 5 -3.5191 -0.2805
3 16 6 0.0366 -2.3153
3 16 7 6.7650 1.0578
3 16 8 -1.3345 -1.2388
3 16 9 6.2073 1.0804
3 16 10 2.2311 -3.3476
3 16 11 0.4442 9.7455
3 16 12 -0.1124 5.7908
3 16 13 8.3681 0.8862
3 16 14 -0.7827 8.0517
3 16 15 2.0272 -1.3841
3 16 16 2.1208 -1.0309
3 17 0 -0.3591 3.4859
3 17 1 0.7244 -1.4846
3 17 2 0.5742 -5.0952
3 17 3 -0.2721 -1.7551
3 17 4 -0.8638 3.5498
3 17 5 0.8734 0.2610
3 17 6 1.9709 -3.0493
3 17 7 -0.3205 -4.1563
3 17 8 1.5865 3.3914
3 17 9 -4.2079 3.2220
3 17 10 -4.2407 -0.1166
3 17 11 -1.1646 -6.3561
3 17 12 -0.6126 -1.2906
3 17 13 4.4931 -2.0902
3 17 14 3.2039 4.0985
3 17 15 5.4752 1.0174
3 18 0 -0.5319 -2.3349
3 18 1 3.1942 3.2951
3 18 2 -2.2190 -2.0943
3 18 3 -0.9426 -1.0568
3 18 4 1.2430 -4.4171
3 18 5 6.4146 -0.5919
3 18 6 4.6342 -4.7897
3 18 7 -3.7737 0.2873
3 18 8 -5.5936 -1.1923
3 18 9 2.1130 -1.7962
3 18 10 -3.3412 9.4071
3 18 11 1.7567 -4.0082
3 18 12 -5.0954 0.0258
3 18 13 2.2453 -1.5924
3 19 0 0.0333 -3.4028
3 19 1 2.7444 -4.5805
3 19 2 -2.8069 -1.1087
3 19 3 -4.9909 -2.0118
3 19 4 -2.4087 3.7161
3 19 5 3.5409 -2.3376
3 19 6 -4.9281 4.6677
3 19 7 1.5174 -3.3210
3 19 8 0.1670 5.7487
3 19 9 1.0635 -0.2142
3 19 10 9.9032 -1.2938
3 19 11 1.9405 -2.1272
3 19 12 2.9799 3.9038
3 20 0 0.1409 2.4677
3 20 1 -4.9085 0.3732
3 20 2 -3.0457 -2.3198
3 20 3 -3.9290 -1.9949
3 20 4 3.2331 2.1024
3 20 5 7.7427 1.0446
3 20 6 -1.8931 5.9260
3 20 7 1.6521 -1.2173
3 20 8 2.4628 -1.8246
3 20 9 2.4795 -5.0172
3 21 0 -3.2343 1.5383
3 21 1 -7.6578 0.8586
3 21 2 -4.4833 -0.7017
3 21 3 0.7593 2.0143
3 21 4 -0.3677 0.7579
3 21 5 -0.7504 -3.1449
3 21 6 -5.8484 4.2480
3 21 7 6.6085 -1.8751
4 0 0 -48.3315 7.7944
4 0 4 -20.5842 -18.1921
4 0 5 0.5046 16.2376
4 0 6 -15.0987 16.3694
4 0 8 -25.0718 4.3054
4 0 10 16.3457 -16.8213
4 0 11 6.9673 -4.9437
4 0 12 3.8013 5.5028
4 0 13 -10.5396 3.2118
4 0 14 -9.0607 10.1913
4 0 15 0.7307 -3.0702
4 0 16 -1.3682 -9.2513
4 0 17 7.3093 -4.1743
4 0 18 0.2642 -2.2283
4 0 19 -4.3270 4.7791
4 0 20 -11.4830 7.3643
4 0 21 -2.4952 -1.2702
4 0 22 2.7993 -1.8105
4 0 23 3.4799 9.6676
4 1 0 -23.2347 1.5539
4 1 1 -32.8899 41.1917
4 1 2 13.7326 34.3343
4 1 4 26.3905 -2.2072
4 1 8 19.6844 -3.8048
4 1 9 2.8023 -3.1904
4 1 10 -4.4222 -6.7813
4 1 11 -7.6505 -11.4682
4 1 12 -14.5193 -5.3984
4 1 13 -2.1946 -1.5918
4 1 14 5.8469 2.2549
4 1 16 3.5547 -2.8384
4 1 17 -14.6990 -2.5206
4 1 18 1.8844 -1.7594
4 1 19 5.5513 1.5261
4 1 20 -4.2776 -1.1848
4 1 21 3.3622 2.7445
4 1 22 2.4459 -1.1619
4 1 23 -3.8241 -3.7642
4 2 0 27.8061 0.1152
4 2 1 -14.1890 20.3451
4 2 2 10.5353 -41.6147
4 2 6 -1.4864 -20.2579
4 2 9 -5.4406 0.8362
4 2 11 -1.1375 1.2834
4 2 12 -3.5141 4.2811
4 2 14 4.8561 -1.3613
4 2 15 -1.8857 4.9486
4 2 16 6.5656 0.3039
4 2 17 8.5769 -1.7716
4 2 18 0.7999 -2.6144
4 2 19 3.2983 -6.2049
4 2 20 2.7328 -2.7253
4 2 21 5.6496 2.7913
4 2 22 8.1207 1.5734
4 2 23 -4.6482 0.0468
4 3 2 1.3319 21.0903
4 3 3 8.2913 -18.5656
4 3 4 -9.9358 9.8809
4 3 5 -26.1140 -8.9998
4 3 6 -25.6899 -1.2654
4 3 10 5.5487 11.9336
4 3 11 -0.8601 1.2071
4 3 12 -9.7294 -5.9993
4 3 13 5.8118 5.3963
4 3 14 8.4640 2.0141
4 3 15 -5.1326 -3.1260
4 3 16 0.7707 -1.6680
4 3 17 4.6108 -6.3614
4 3 18 -0.8252 -2.8648
4 3 19 -7.7663 -7.2450
4 3 20 -6.0939 -8.4525
4 3 21 3.2002 -0.3426
4 3 22 6.3066 3.0663
4 3 23 -2.9367 -5.2047
4 4 0 38.0364 -4.8478
4 4 1 -4.5669 -4.2607
4 4 2 8.7427 1.5062
4 4 3 -14.9229 14.7487
4 4 4 -2.2405 2.9036
4 4 5 -5.8142 14.4743
4 4 6 -15.7747 -4.5919
4 4 7 11.8541 10.0738
4 4 8 -14.7532 -0.6506
4 4 9 -1.7172 6.8261
4 4 10 8.9719 4.8589
4 4 11 -4.6841 -3.4706
4 4 12 1.2587 -6.1711
4 4 13 5.4496 -5.7213
4 4 14 8.6591 -2.8841
4 4 15 -0.2541 1.7370
4 4 16 1.7158 0.1449
4 4 17 -6.8479 0.4074
4 4 18 -2.6463 2.0045
4 4 19 0.3820 2.8520
4 4 20 -1.1729 1.7152
4 4 21 4.9438 -0.2250
4 4 22 -5.7196 5.3151
4 4 23 -5.5393 1.0607
4 5 1 -2.8915 4.9952
4 5 2 17.0549 -22.6705
4 5 4 -2.3859 -12.3594
4 5 9 -13.9036 0.2357
4 5 10 -2.5724 -1.0539
4 5 11 -2.0407 8.3560
4 5 12 -8.6145 6.5057
4 5 13 8.8240 6.4439
4 5 14 -2.9507 -0.8588
4 5 16 0.6695 1.4705
4 5 17 -3.9749 4.4170
4 5 18 -10.4067 0.0785
4 5 19 -0.1491 2.5653
4 5 20 4.5583 5.1645
4 5 21 1.8010 -4.8005
4 5 22 0.4033 -2.8184
4 5 23 -0.1758 2.9902
4 6 1 -33.2314 4.5537
4 6 2 3.0500 0.9182
4 6 3 -16.7497 -2.9343
4 6 4 -0.1988 -1.6214
4 6 7 -3.9484 3.2024
4 6 11 2.4407 -0.8954
4 6 12 -8.5443 -2.1570
4 6 13 0.8522 4.4096
4 6 14 1.9231 0.0483
4 6 15 1.4137 7.5211
4 6 16 3.0861 -1.8257
4 6 17 -0.2951 2.8701
4 6 18 5.5379 1.6925
4 6 19 2.3673 -6.5963
4 6 20 -1.8176 0.3703
4 6 21 -2.9698 1.6008
4 6 22 0.5477 3.4364
4 7 1 3.0182 3.2728
4 7 2 3.7303 -2.2457
4 7 4 -2.8185 2.1823
4 7 5 7.3240 0.0806
4 7 6 -2.1965 11.2117
4 7 8 -8.0366 -0.5725
4 7 9 -9.6128 2.5149
4 7 10 7.5717 1.8877
4 7 11 -7.3888 -0.9808
4 7 12 2.2815 0.5056
4 7 13 8.0427 2.9651
4 7 14 -5.8055 1.4031
4 7 15 5.6681 2.2480
4 7 16 0.2080 1.1374
4 7 17 -2.8986 -1.4105
4 7 18 -0.7135 0.8088
4 7 19 4.6311 2.3707
4 7 20 4.7643 -5.0076
4 7 21 4.8270 -6.5615
4 7 22 2.4032 4.0223
4 8 1 2.1006 -4.1480
4 8 2 -11.1199 -2.2298
4 8 3 1.2870 -0.8515
4 8 5 4.5577 2.0483
4 8 8 4.1449 -3.6107
4 8 12 -1.7085 0.3932
4 8 14 2.7457 4.8372
4 8 15 3.8281 -1.7402
4 8 16 -4.0134 -0.1942
4 8 17 1.1209 -2.7030
4 8 18 -0.6705 -4.1544
4 8 19 -0.3300 -2.4013
4 8 20 -0.6028 2.9550
4 8 21 1.5084 1.7319
4 8 22 7.3414 0.3543
4 9 0 -7.5755 -1.5954
4 9 1 -7.4684 11.4007
4 9 2 -4.2237 -10.8331
4 9 3 3.3496 3.2401
4 9 4 6.8345 1.6946
4 9 6 6.3526 3.4946
4 9 7 -3.9132 -0.6050
4 9 8 -1.3518 4.3630
4 9 9 4.4750 -6.3011
4 9 10 1.6847 3.6520
4 9 11 5.6001 -0.2596
4 9 12 0.5575 2.3005
4 9 13 -1.4383 -7.0624
4 9 14 -4.9972 -5.4843
4 9 15 0.6157 -3.9967
4 9 16 -0.8732 -4.7217
4 9 17 0.8955 -0.3688
4 9 18 3.3181 4.0850
4 9 19 8.5189 5.8829
4 9 20 -4.3002 -4.5857
4 9 21 -1.1923 -2.7895
4 10 2 7.7260 -2.3924
4 10 3 3.2593 -1.9145
4 10 4 0.4366 -0.3275
4 10 7 0.2376 -5.2253
4 10 8 -11.9117 -4.4157
4 10 9 0.6121 -4.6796
4 10 11 2.5812 4.3248
4 10 12 -7.0898 -0.7295
4 10 13 -1.8921 5.4879
4 10 14 -1.9245 6.4176
4 10 15 -1.0466 -5.0813
4 10 16 -3.4184 -4.4194
4 10 17 1.2233 -1.3126
4 10 18 -1.2137 1.9366
4 10 19 0.9187 3.1587
4 10 20 -6.1147 0.7743
4 10 21 -3.9373 -0.1697
4 11 0 3.2205 -2.5294
4 11 1 -1.3768 13.0560
4 11 2 6.5552 0.1464
4 11 3 2.6021 1.7227
4 11 4 -6.1358 4.6026
4 11 6 -3.9109 -0.8748
4 11 7 -5.3375 -2.7374
4 11 8 1.7184 -4.4769
4 11 9 -1.7123 4.1828
4 11 10 -2.7758 -1.5144
4 11 12 -2.4038 3.6065
4 11 13 0.8979 2.3451
4 11 14 2.6825 -2.2422
4 11 16 7.0723 -7.8550
4 11 17 -1.1829 3.7424
4 11 18 3.9975 -2.7050
4 11 19 -5.0061 -5.0669
4 11 20 -0.2473 -4.3048
4 12 0 0.7245 -0.2064
4 12 1 4.9552 -1.2483
4 12 2 3.2328 -0.6208
4 12 3 -3.7637 3.8882
4 12 4 -1.8451 0.7557
4 12 5 -5.2294 3.3822
4 12 6 -3.8138 -4.1934
4 12 7 -2.5469 2.7224
4 12 8 -6.7013 11.7196
4 12 10 6.2705 1.9520
4 12 11 -3.8934 -3.3724
4 12 12 2.6922 6.6274
4 12 13 -1.2322 -1.9758
4 12 14 1.5427 -2.3914
4 12 15 5.7110 -6.2054
4 12 16 1.4188 5.2312
4 12 17 1.9035 0.7450
4 12 18 -1.7095 4.3985
4 12 19 2.8147 -5.9759
4 13 0 4.6085 1.4481
4 13 1 2.6921 -3.3586
4 13 2 4.2327 -12.9114
4 13 3 4.9644 1.3311
4 13 4 3.5441 -3.2829
4 13 5 6.9870 -1.3464
4 13 6 -3.9527 -4.5919
4 13 7 8.1119 3.6204
4 13 9 -7.3958 5.0260
4 13 10 -0.9616 -7.5693
4 13 11 0.8696 2.6163
4 13 13 1.7991 0.2837
4 13 14 1.1025 -0.7086
4 13 15 -0.5935 -5.4626
4 13 16 -0.1148 -3.2926
4 13 17 1.4524 1.2946
4 13 18 -4.8221 2.2606
4 13 19 2.6531 0.4883
4 14 1 3.5167 0.7175
4 14 2 -3.7447 -5.7500
4 14 4 2.4152 2.7972
4 14 5 -6.3272 -3.9183
4 14 6 6.1664 -2.2939
4 14 9 6.8580 4.1944
4 14 11 -1.4849 0.6651
4 14 12 2.9319 4.3567
4 14 13 1.0524 -2.8762
4 14 14 7.4831 -0.4489
4 14 15 1.0758 10.3780
4 14 16 -4.5779 -1.6542
4 14 17 -1.9821 3.7629
4 14 18 3.8811 2.2010
4 15 0 4.8718 1.8317
4 15 1 -0.5978 0.9452
4 15 2 -3.9011 -0.3109
4 15 3 -1.2890 -1.5612
4 15 4 1.9795 -6.1074
4 15 5 -3.6786 -0.3082
4 15 6 5.7447 3.7258
4 15 7 -0.4695 5.3741
4 15 8 -1.4582 -4.9051
4 15 9 8.3225 -9.6735
4 15 10 -1.6775 5.4266
4 15 11 -4.2869 11.1567
4 15 12 9.1387 5.3217
4 15 13 4.9413 2.2768
4 15 14 5.5214 -2.8002
4 15 15 -0.4843 -7.5324
4 15 16 -2.7868 0.6816
4 15 17 -0.7518 -0.8193
4 16 0 2.5322 1.1021
4 16 1 -0.4770 -2.8329
4 16 2 -1.0798 -3.5059
4 16 3 8.5255 1.5682
4 16 4 -1.1456 -4.4431
4 16 5 1.6570 -3.9353
4 16 6 1.1087 0.9937
4 16 7 -6.0277 4.2090
4 16 8 0.4499 4.9384
4 16 9 -1.8274 -4.7621
4 16 10 1.5962 -2.4312
4 16 11 0.5313 2.2332
4 16 12 -0.6427 -0.3354
4 16 13 1.9847 -1.3619
4 16 14 5.6719 -1.8135
4 16 15 0.4412 -1.7916
4 16 16 0.5588 -2.9326
4 17 0 2.2555 -1.1203
4 17 1 -6.0889 1.6971
4 17 2 -2.3600 -0.5166
4 17 3 -1.2197 -1.5398
4 17 4 2.0431 2.1724
4 17 5 5.1510 2.2943
4 17 6 1.2371 0.7792
4 17 7 -3.9547 -8.2292
4 17 8 -3.6989 -6.2962
4 17 9 -4.8198 -2.0893
4 17 10 1.8373 0.4566
4 17 11 2.2552 2.6975
4 17 12 0.5551 -0.5417
4 17 13 -3.2655 5.5710
4 17 14 1.1181 -6.6283
4 18 0 2.2524 0.6388
4 18 1 2.7149 -2.1799
4 18 2 0.3726 -1.0951
4 18 4 4.3714 -1.6738
4 18 5 -1.5816 2.9092
4 18 6 -1.3766 0.1419
4 18 7 -1.2142 2.5049
4 18 8 3.4147 0.3589
4 18 9 1.0822 -2.2095
4 18 10 -4.1728 0.2519
4 18 11 -5.8976 4.5289
4 18 12 2.2671 0.7601
4 18 13 2.1024 1.0150
4 19 0 -0.8616 -0.8627
4 19 1 -3.2034 1.0936
4 19 2 2.6701 1.4121
4 19 3 -1.2969 1.1202
4 19 4 -4.9266 -0.4813
4 19 5 0.0259 -8.1117
4 19 6 -0.4557 0.7421
4 19 7 -3.8989 -2.3065
4 19 8 4.9638 -1.6088
4 19 9 3.6141 0.1449
4 19 10 1.8909 -1.3641
4 19 11 -1.9296 2.1042
4 20 0 6.1417 -2.2596
4 20 1 -1.6460 -0.2835
4 20 2 -1.8959 6.2891
4 20 3 0.7178 4.8102
4 20 4 1.5557 2.2204
4 20 5 -2.9615 6.6105
4 20 6 1.3027 1.3775
4 20 7 -0.4357 -1.0790
4 20 8 0.5375 -7.6960
4 20 9 1.3293 -2.7206
4 21 0 -4.5861 2.9500
4 21 1 5.4042 3.2178
4 21 2 0.1616 -3.3766
4 21 3 -5.0079 0.0222
4 21 4 -1.7344 -2.8660
4 21 5 7.3496 -0.9360
4 21 6 1.3091 0.3884
5 0 4 -11.1067 -1.1825
5 0 6 10.5009 -1.0306
5 0 7 7.9510 25.1129
5 0 8 8.1547 1.3446
5 0 9 16.9082 0.2429
5 0 10 16.7442 -0.2588
5 0 15 14.7370 0.9122
5 0 16 5.9639 0.4520
5 0 17 -4.6942 3.4664
5 0 18 -14.3008 -0.8286
5 0 19 -7.5177 -10.9085
5 0 20 3.0435 0.3546
5 0 21 6.8693 4.2801
5 0 22 2.9532 -0.0610
5 0 23 1.8486 9.2269
5 1 1 33.3239 -3.7590
5 1 2 -4.2371 -13.8161
5 1 4 -1.7874 13.3525
5 1 6 -14.9520 13.2027
5 1 7 -20.1137 10.4136
5 1 9 0.9576 -11.7278
5 1 11 -8.1547 -6.7116
5 1 12 -9.8581 12.6028
5 1 13 -1.3136 8.1896
5 1 14 -5.5865 -9.5410
5 1 15 6.0831 0.3474
5 1 16 3.5273 -5.8719
5 1 17 -1.1904 -4.4693
5 1 18 2.8581 2.6034
5 1 19 -7.6627 3.7082
5 1 20 2.3673 -6.3714
5 1 21 5.6011 8.9191
5 1 22 2.3808 -9.5995
5 1 23 -1.7173 -3.9028
5 2 2 12.5498 -3.7325
5 2 3 -7.6271 6.6765
5 2 4 4.8078 -25.6778
5 2 6 -9.9458 5.7145
5 2 7 -3.7227 9.8057
5 2 9 7.8058 5.2358
5 2 12 1.4020 4.7039
5 2 13 -5.3036 -3.4392
5 2 14 -0.0371 -0.9298
5 2 16 2.2352 0.9632
5 2 17 -4.7063 -0.9839
5 2 18 2.2722 -7.8253
5 2 19 -3.2914 -6.1544
5 2 20 -0.8838 2.9932
5 2 21 -14.9021 -0.2648
5 2 22 -1.7638 -1.2904
5 2 23 -4.6229 -0.5340
5 3 1 4.3953 -7.5847
5 3 3 -5.7211 -18.9942
5 3 4 -17.1305 -8.2108
5 3 9 9.1609 5.1741
5 3 11 9.4707 1.0820
5 3 13 6.8484 -3.2612
5 3 14 5.3080 7.0503
5 3 15 7.5092 -2.1229
5 3 16 -1.3267 3.8623
5 3 17 2.5495 -6.6394
5 3 18 -9.2573 2.7598
5 3 19 -1.0972 0.9878
5 3 20 10.5409 5.5312
5 3 21 -1.9805 0.3149
5 3 22 -1.5901 1.0903
5 3 23 5.3382 6.8257
5 4 7 -3.1031 6.2283
5 4 11 -3.6548 -5.6378
5 4 12 -3.4953 10.7652
5 4 13 9.6802 -12.2974
5 4 14 -3.1713 6.6190
5 4 15 -3.6703 -6.3459
5 4 16 -4.6641 0.3247
5 4 17 -3.8549 0.8018
5 4 18 1.6729 6.1601
5 4 19 2.6920 6.1408
5 4 20 -3.5982 0.8311
5 4 21 0.2194 -1.8053
5 4 22 1.9245 -3.5141
5 4 23 -0.4943 1.7357
5 5 0 -1.2511 -13.0790
5 5 1 25.4225 11.1362
5 5 2 -13.0426 -9.7408
5 5 3 2.6118 -5.7062
5 5 4 -5.4035 -5.1705
5 5 5 -9.2326 -3.9171
5 5 6 0.0207 -0.9183
5 5 7 4.1796 2.7153
5 5 8 7.8089 6.1547
5 5 9 -0.9176 -0.8395
5 5 10 2.4134 4.8654
5 5 11 -8.8504 0.5761
5 5 12 -10.6702 7.9095
5 5 13 3.0566 5.7322
5 5 14 -3.3847 -0.0020
5 5 15 7.2014 -0.1796
5 5 16 -6.7498 -0.6597
5 5 17 0.7345 -2.0346
5 5 18 7.9167 -2.9274
5 5 19 0.2230 0.7561
5 5 20 -6.0533 0.4116
5 5 21 -1.8265 3.0409
5 5 22 -1.4514 0.6649
5 5 23 0.0149 -0.4462
5 6 0 -2.3935 22.8580
5 6 4 5.5931 5.0597
5 6 8 -11.7356 -8.5723
5 6 10 -3.3046 -2.7607
5 6 11 4.0184 0.5018
5 6 14 5.9332 10.0476
5 6 15 1.3256 -1.0558
5 6 16 0.2491 9.0481
5 6 17 4.4033 0.3132
5 6 18 1.2493 4.6085
5 6 19 -1.7410 -4.5752
5 6 20 0.2809 -5.1467
5 6 21 -2.8572 -2.1889
5 6 22 2.6257 -10.4520
5 7 0 1.1939 8.8040
5 7 1 7.9175 -6.1209
5 7 2 -2.9551 2.8245
5 7 3 -0.2655 -1.1952
5 7 4 -3.7130 1.4559
5 7 7 5.8915 -0.9332
5 7 9 8.2066 -2.6193
5 7 10 -15.6069 -7.5340
5 7 11 -5.7840 -3.6449
5 7 12 -3.3998 3.3175
5 7 13 2.6321 -2.8226
5 7 14 -0.9596 0.5262
5 7 15 -1.5171 -5.0779
5 7 16 0.6096 -4.4200
5 7 17 7.3784 -1.4341
5 7 18 -2.4317 -4.8350
5 7 19 -4.4147 -2.0055
5 7 20 3.0002 -0.2847
5 7 21 2.4230 -1.7298
5 7 22 2.6514 1.7425
5 8 1 9.2793 -6.5061
5 8 2 -2.8667 -0.6524
5 8 3 4.3859 2.1914
5 8 5 0.4290 2.9213
5 8 7 -5.0462 -5.5712
5 8 8 -7.0912 -2.5314
5 8 9 -2.2001 5.7878
5 8 11 -4.4534 -0.0869
5 8 12 7.2906 -0.9480
5 8 13 1.4160 6.4315
5 8 14 3.5309 5.7311
5 8 15 1.0242 -2.5175
5 8 16 -0.7619 -1.3759
5 8 17 -6.4925 -3.4278
5 8 18 6.1101 3.0257
5 8 19 0.9780 -3.4927
5 8 20 6.1606 -1.9273
5 8 21 1.9918 -2.6338
5 9 1 4.3985 1.5369
5 9 2 -2.4322 -0.3368
5 9 3 3.5090 5.7184
5 9 4 -1.1583 -2.5461
5 9 6 6.7293 0.4531
5 9 7 -10.7949 -5.6043
5 9 8 -0.1562 7.1773
5 9 9 -5.7215 -0.7085
5 9 11 7.1101 0.3072
5 9 12 0.8497 -3.8292
5 9 13 3.0481 -1.6287
5 9 14 2.2561 -3.7203
5 9 15 2.1876 0.5253
5 9 16 -2.4261 0.8561
5 9 17 -2.6013 4.7696
5 9 18 -2.0348 -1.2178
5 9 19 -3.3499 -1.7426
5 9 20 0.5877 1.1260
5 9 21 1.1302 4.1799
5 10 1 -1.4256 -2.5771
5 10 4 -2.4678 -2.8592
5 10 5 3.8816 0.9815
5 10 6 3.0670 -1.4098
5 10 11 -5.3100 5.1558
5 10 12 9.7134 5.8851
5 10 13 -6.0423 -4.6143
5 10 14 2.4370 -3.6110
5 10 15 0.9106 -4.6992
5 10 16 -4.0782 -5.0456
5 10 17 8.1018 -0.1523
5 10 18 1.1182 -0.6272
5 10 19 -2.9812 -3.0811
5 10 20 2.9822 -1.8368
5 11 0 -1.1404 2.6023
5 11 1 -8.9406 -4.1311
5 11 2 -6.1284 1.6456
5 11 3 -1.9795 -10.1066
5 11 4 -5.3425 2.8018
5 11 5 -5.7949 -1.0556
5 11 6 -9.2930 3.4666
5 11 7 -3.6952 1.0301
5 11 8 -1.0155 6.6732
5 11 9 8.6818 3.2407
5 11 10 0.8949 0.6647
5 11 11 2.6706 -3.5296
5 11 12 -5.5789 4.0229
5 11 13 -2.2187 8.1757
5 11 14 2.7865 -0.6041
5 11 15 -6.4034 -8.1705
5 11 16 3.4064 -2.4315
5 11 17 -1.0886 -4.8562
5 11 18 5.0213 -1.3641
5 11 19 -4.6761 -0.5284
5 11 20 2.2524 2.6713
5 12 1 -0.7996 4.0607
5 12 2 0.8915 8.3434
5 12 3 -0.2448 -3.1168
5 12 5 -2.7943 -0.7383
5 12 7 -2.2477 -4.4311
5 12 9 -1.2621 -1.3892
5 12 11 0.7690 -0.9856
5 12 13 -1.7701 -5.8853
5 12 14 0.1070 -0.5232
5 12 15 0.0879 -4.9324
5 12 16 -7.6813 5.5028
5 12 17 -3.1132 -1.2814
5 12 18 -1.1957 1.2525
5 12 19 -1.7542 -3.2507
5 13 1 -0.6277 2.3461
5 13 2 -3.8282 -0.1290
5 13 3 0.3399 4.2613
5 13 4 -11.1795 8.4461
5 13 5 -4.1758 3.2036
5 13 7 1.8315 -3.0103
5 13 8 4.0846 -0.0048
5 13 9 1.4304 -1.5711
5 13 11 -0.6364 0.6285
5 13 12 -0.4711 6.5135
5 13 13 2.6065 1.5920
5 13 14 0.1100 1.7695
5 13 15 -6.3022 -6.0357
5 13 16 -0.4610 16.6565
5 13 17 1.1340 -0.9919
5 13 18 0.0109 2.2703
5 14 0 -2.6452 0.0196
5 14 1 7.3797 -0.8391
5 14 2 2.8799 -1.1506
5 14 3 1.8578 -12.5272
5 14 4 2.8969 -2.5185
5 14 5 -1.0044 6.3980
5 14 6 -1.0355 3.8084
5 14 7 2.3102 1.3332
5 14 8 -6.2981 -2.7010
5 14 9 -3.7014 -3.1316
5 14 11 2.2158 -1.5930
5 14 12 -0.2713 7.7280
5 14 13 6.6278 0.6196
5 14 14 -7.1415 -2.6846
5 14 15 -0.7594 4.8574
5 14 16 -1.5983 2.3145
5 14 17 5.8509 1.4633
5 15 0 0.6851 -1.6601
5 15 1 1.9426 -4.5231
5 15 2 5.9697 -1.1963
5 15 3 1.8837 2.4534
5 15 4 0.6048 1.2366
5 15 5 3.3128 -7.4408
5 15 6 2.8264 2.3602
5 15 7 -1.8284 -4.6973
5 15 8 2.9171 5.2055
5 15 9 -6.4715 5.5091
5 15 10 -7.8163 9.5999
5 15 11 4.0203 2.1929
5 15 12 1.3225 -1.9258
5 15 13 7.2704 -2.0269
5 15 14 0.7612 -3.5478
5 15 15 2.2557 -4.5911
5 15 16 -0.8970 -1.2396
5 15 17 3.2697 0.2565
5 16 0 -0.4179 12.7741
5 16 1 11.5613 -3.0752
5 16 2 -8.3825 1.7353
5 16 3 0.1248 -3.5880
5 16 4 -4.0203 0.7652
5 16 5 -3.8812 -1.6444
5 16 6 3.5950 -6.3447
5 16 7 1.7353 -1.8711
5 16 8 -9.2660 -0.3205
5 16 9 1.6057 4.6986
5 16 10 9.5595 2.5332
5 16 11 4.4598 4.9218
5 16 12 3.3213 0.3152
5 16 13 3.6795 -2.0304
5 16 14 -4.3657 -0.3297
5 16 15 -1.1402 0.0334
5 17 0 0.4059 -16.4540
5 17 1 -0.4987 -6.8932
5 17 2 1.1850 -0.1735
5 17 3 3.5608 -3.3282
5 17 4 3.1368 -6.2958
5 17 5 4.7962 -2.8174
5 17 6 -1.6892 9.0366
5 17 7 -4.3111 -5.5231
5 17 8 4.2964 -0.0246
5 17 9 -2.1918 -0.2816
5 17 10 -4.0935 -5.3608
5 17 11 1.6208 2.5487
5 17 12 1.9464 5.0237
5 17 13 3.1127 -4.0174
5 17 14 3.2202 -3.0268
5 18 0 2.1365 -7.1169
5 18 1 -2.5688 -3.8363
5 18 2 -2.4364 0.8039
5 18 3 3.3337 -4.8401
5 18 4 -3.5110 -4.2374
5 18 5 1.0758 -1.2316
5 18 6 -5.2221 -0.1295
5 18 7 -1.5260 -1.3705
5 18 8 -10.7795 -3.6821
5 18 9 6.3013 -6.1805
5 18 10 -6.7919 0.5078
5 18 11 4.2475 0.5162
5 18 12 -1.3063 3.5139
5 18 13 -0.5496 1.9595
5 19 0 -0.7171 -10.9483
5 19 1 0.5134 2.2174
5 19 2 0.6064 3.0715
5 19 3 4.1076 -0.6034
5 19 4 -4.2409 -1.5065
5 19 5 -1.4852 4.4877
5 19 6 -3.4402 -0.0575
5 19 7 -3.6434 5.3328
5 19 8 -0.0196 -4.4679
5 19 9 -4.4714 -1.1773
5 19 10 4.2705 3.6304
5 19 11 -1.7685 -2.3191
5 20 0 1.1011 10.1824
5 20 1 -2.6295 3.7743
5 20 2 -7.8484 2.3481
5 20 3 -6.4992 1.4509
5 20 4 -1.3172 5.1897
5 20 5 -1.1814 -1.2366
5 20 6 7.3532 -3.4370
5 20 7 0.8526 -3.1742
5 20 8 -0.6383 2.1046
5 21 0 -0.8547 -4.9424
5 21 1 3.5641 -1.2530
5 21 2 -0.7048 4.9100
5 21 3 0.1656 -2.7374
5 21 4 0.6768 2.6070
5 21 5 1.0019 3.8116
6 0 2 12.2591 -7.2961
6 0 8 -3.5794 4.5765
6 0 9 -6.9790 -17.5720
6 0 12 -1.7661 5.7448
6 0 13 8.7983 9.3590
6 0 14 -2.0074 9.8658
6 0 16 -6.9444 -9.4760
6 0 17 -6.3589 0.3157
6 0 18 -1.2945 -2.0042
6 0 19 3.6983 6.8262
6 0 20 -2.9996 7.5289
6 0 21 2.5972 2.4806
6 0 22 6.0005 -1.7031
6 0 23 -3.2742 -2.9414
6 1 3 -17.0951 0.7269
6 1 4 -6.3115 5.4884
6 1 5 -0.1297 3.3976
6 1 9 -4.9039 1.3261
6 1 11 -0.3479 4.5366
6 1 12 -12.9047 -2.3791
6 1 13 6.6797 -2.1718
6 1 14 14.2736 -3.9913
6 1 15 -1.2746 2.6587
6 1 16 8.6907 6.0947
6 1 17 -0.1991 5.2867
6 1 18 -7.3235 1.2349
6 1 19 2.6526 -2.9157
6 1 20 4.5587 -8.1672
6 1 21 4.2182 0.5044
6 1 22 -1.5631 6.9163
6 1 23 -0.2958 -4.7814
6 2 0 4.0981 -0.2290
6 2 2 11.9300 -6.1035
6 2 3 -22.9288 -7.0053
6 2 4 -9.1981 1.2369
6 2 6 4.6620 -5.3391
6 2 7 8.1929 -2.7690
6 2 8 4.4243 7.9122
6 2 10 1.3698 10.7856
6 2 12 -1.0467 4.7345
6 2 13 2.4392 -1.0682
6 2 14 12.7415 1.2938
6 2 15 2.3762 -0.8505
6 2 16 9.9881 3.1203
6 2 17 1.2464 -0.2197
6 2 18 -7.3837 -1.9722
6 2 19 -4.1304 1.3326
6 2 20 0.0516 -2.2703
6 2 21 6.0692 -3.9705
6 2 22 -8.4612 6.4962
6 2 23 3.3736 -3.7367
6 3 0 -3.9335 1.0101
6 3 1 -0.6697 -4.4878
6 3 3 4.9876 17.7580
6 3 4 -9.9303 3.9874
6 3 5 3.9443 0.0560
6 3 6 0.2512 13.4382
6 3 7 9.0207 2.2836
6 3 9 1.6551 6.3809
6 3 10 5.3921 -4.3823
6 3 12 1.1747 -5.8331
6 3 13 -6.6406 -2.2418
6 3 14 4.6464 -5.5457
6 3 15 -1.1704 -0.7708
6 3 16 3.8251 -3.2985
6 3 17 -3.5609 -1.8661
6 3 18 -0.5394 -1.0638
6 3 19 -0.5585 1.8906
6 3 20 0.3795 7.6182
6 3 21 -1.3727 3.8041
6 3 22 -4.4437 4.1106
6 3 23 4.1887 -4.3971
6 4 1 0.1106 -33.0338
6 4 2 8.0381 7.1398
6 4 3 -4.6304 -1.0923
6 4 4 -0.2758 -7.1718
6 4 7 -0.9400 11.5982
6 4 8 -0.4994 -8.5376
6 4 9 8.6791 2.9873
6 4 11 -2.7889 0.8285
6 4 13 -0.9871 -6.7758
6 4 14 0.5185 3.7321
6 4 15 -3.0915 -3.2831
6 4 16 1.1541 0.2092
6 4 17 2.5320 -0.9986
6 4 18 -5.4226 4.6752
6 4 19 5.5060 -8.3224
6 4 20 4.4770 1.1005
6 4 21 -2.1134 -0.3506
6 4 22 -0.2748 -1.0840
6 4 23 0.7333 2.7568
6 5 4 -3.4278 -14.6693
6 5 6 6.6163 -1.1139
6 5 8 -3.8109 17.2477
6 5 9 -4.6040 -3.9989
6 5 11 2.9211 13.0210
6 5 12 6.9763 -7.4212
6 5 13 7.8203 2.9207
6 5 14 6.0190 4.2034
6 5 15 -2.6565 7.6186
6 5 16 1.8193 -3.6513
6 5 17 2.2681 7.6724
6 5 18 -2.7741 -5.4847
6 5 19 -4.3927 7.0883
6 5 20 -6.4128 1.1212
6 5 21 -1.2982 -1.3038
6 5 22 -1.8211 -2.3562
6 6 0 -7.5233 -0.0509
6 6 1 4.5345 -5.8871
6 6 2 -9.5577 -3.5090
6 6 3 -4.6215 -3.0583
6 6 4 -3.2542 13.8169
6 6 5 -0.2210 10.4340
6 6 6 0.7467 16.2904
6 6 7 -1.3394 -0.2428
6 6 8 2.0976 -1.3204
6 6 9 -3.4711 0.1060
6 6 10 -6.6812 -4.7249
6 6 11 -2.5765 12.5259
6 6 12 3.7237 -4.3477
6 6 13 -4.1020 0.4254
6 6 14 2.8541 -0.3962
6 6 15 -0.2910 -8.1148
6 6 16 0.8242 -0.5917
6 6 17 -1.0898 -5.5691
6 6 18 -0.0169 0.0502
6 6 19 6.1448 5.7920
6 6 20 -2.7448 -2.1211
6 6 21 -0.2840 -2.9179
6 6 22 -0.5281 1.2113
6 7 0 -4.9816 0.4501
6 7 1 1.2169 -4.2429
6 7 2 -1.9067 -2.9207
6 7 3 15.9009 -6.9503
6 7 4 11.5797 4.0098
6 7 5 22.9987 4.5410
6 7 7 7.4453 -2.2987
6 7 8 -6.9463 9.2944
6 7 9 -8.9699 -10.8440
6 7 10 -1.1311 -1.7558
6 7 11 -0.8182 0.0740
6 7 12 -4.0168 -3.4117
6 7 13 -4.9625 3.3700
6 7 14 -0.4708 -2.9996
6 7 15 5.5685 -0.6170
6 7 16 -2.0562 -9.5815
6 7 17 3.6731 1.1815
6 7 18 -0.7395 -1.7367
6 7 19 -1.4189 0.8414
6 7 20 -3.7155 -5.8704
6 7 21 2.0409 -0.3267
6 7 22 -0.0536 -4.9842
6 8 0 -6.4875 1.5995
6 8 1 -6.6513 0.2423
6 8 3 -3.9156 6.3675
6 8 4 -0.6848 -2.3082
6 8 5 8.1774 5.8791
6 8 6 -2.1364 -3.4441
6 8 7 2.3203 -5.6247
6 8 9 -2.5827 -10.8917
6 8 11 -1.7363 -2.6535
6 8 13 -0.8891 1.1010
6 8 14 0.8909 0.2346
6 8 15 -4.9837 2.4714
6 8 16 1.8144 -4.4383
6 8 17 0.0399 2.8607
6 8 18 -1.0669 5.6218
6 8 19 -3.4585 -3.9791
6 8 20 -3.3457 0.3045
6 8 21 4.0161 -1.5840
6 9 1 3.3176 -1.1326
6 9 2 2.5613 2.1291
6 9 3 1.7961 8.9172
6 9 4 3.1735 2.9815
6 9 5 -2.5161 -4.7541
6 9 6 6.8612 -1.2783
6 9 7 -11.7946 -6.9649
6 9 8 -5.6352 6.7035
6 9 9 9.0264 -3.3923
6 9 10 -0.3723 -8.0344
6 9 11 9.6913 5.4384
6 9 12 3.3645 -5.2684
6 9 13 6.7799 -2.3355
6 9 14 1.7270 -0.4950
6 9 15 -10.0114 3.1772
6 9 16 -2.1159 5.3885
6 9 17 4.1790 2.2372
6 9 18 2.8074 -3.6370
6 9 19 4.8916 3.0717
6 9 20 0.1689 -3.7027
6 9 21 9.5190 2.0543
6 10 0 -10.8499 0.4295
6 10 1 -1.6386 -4.8646
6 10 2 3.3216 -0.9275
6 10 3 -6.4192 2.6997
6 10 4 7.1306 2.0313
6 10 5 -1.2560 -0.7628
6 10 6 0.9984 -6.3009
6 10 7 -2.6163 4.1758
6 10 8 -5.2032 -0.0376
6 10 9 2.3141 3.8891
6 10 10 -1.0696 -2.3489
6 10 11 -0.7268 4.2191
6 10 12 -2.3678 1.6073
6 10 13 2.7631 2.6892
6 10 14 -2.1305 5.1361
6 10 15 1.2271 0.0079
6 10 16 0.5360 -3.2851
6 10 17 -3.1223 -0.6215
6 10 18 0.8821 -3.4760
6 10 19 -0.9301 1.2274
6 10 20 3.5616 0.4874
6 11 0 2.8628 0.1750
6 11 1 -0.9275 1.7365
6 11 2 6.9565 -0.9280
6 11 3 -5.2529 1.3285
6 11 4 -3.0684 9.3217
6 11 5 -1.1927 -2.4058
6 11 7 0.4589 -2.1399
6 11 9 -2.7363 -5.0377
6 11 11 -2.3943 8.1805
6 11 12 1.9315 -1.6264
6 11 13 -4.3773 -3.3234
6 11 14 0.7491 -8.2909
6 11 15 -5.7953 1.5831
6 11 16 10.5360 -1.3545
6 11 17 -0.4777 2.1001
6 11 18 -1.7336 2.9406
6 11 19 -1.2349 -4.5043
6 11 20 -5.2539 -2.3923
6 12 0 2.0536 -1.5881
6 12 1 4.3865 -7.1334
6 12 2 1.0113 -0.1041
6 12 3 -11.6148 -1.5766
6 12 4 6.4781 0.8227
6 12 7 -9.0359 11.4499
6 12 9 5.2765 0.0586
6 12 11 -10.3489 2.3360
6 12 13 1.8082 0.8626
6 12 14 -2.2841 -3.0789
6 12 15 -0.8173 2.0411
6 12 16 0.6298 -7.5671
6 12 17 1.4116 -0.1427
6 12 18 -0.3876 -0.3279
6 12 19 4.4606 2.8186
6 13 0 -7.7596 -0.1329
6 13 1 -1.9473 -0.2111
6 13 2 -3.0886 -5.7499
6 13 3 -5.2360 0.7835
6 13 4 -2.5052 -2.5002
6 13 5 -1.0386 -6.7600
6 13 6 8.8132 1.5565
6 13 7 -4.1123 4.3803
6 13 8 10.6664 6.2595
6 13 9 -2.4595 4.0282
6 13 10 -3.5728 -2.4934
6 13 11 1.1568 7.9398
6 13 12 -1.1476 -5.3617
6 13 14 -5.9599 11.1638
6 13 15 -2.1391 4.4210
6 13 16 3.9122 8.1827
6 13 17 1.2603 4.8532
6 13 18 0.1575 -7.1958
6 14 0 7.0106 0.1079
6 14 1 1.0112 -5.5771
6 14 2 3.7541 8.6535
6 14 3 -1.7185 0.8929
6 14 4 2.3903 4.1783
6 14 5 -3.0758 -1.8481
6 14 6 -4.2187 0.4943
6 14 7 -6.3536 7.2679
6 14 8 8.1246 -6.3665
6 14 9 5.3495 -3.8538
6 14 10 4.3330 9.9334
6 14 11 2.6031 -3.4575
6 14 12 7.4850 -0.2777
6 14 13 3.3417 1.5119
6 14 14 2.4154 -3.3138
6 14 15 -4.5013 3.0991
6 14 16 3.6703 -3.7211
6 14 17 -4.6602 -0.0280
6 15 1 -3.4517 -1.3174
6 15 2 -0.7170 -0.3478
6 15 3 -3.7221 -0.0184
6 15 5 2.7127 -5.6338
6 15 6 4.3104 -4.5810
6 15 7 -11.0702 -9.9535
6 15 8 -4.2886 2.9074
6 15 9 -0.7592 -6.6510
6 15 10 1.6641 2.9169
6 15 11 9.6201 -0.4790
6 15 12 7.5193 -2.8844
6 15 13 -0.4821 2.1559
6 15 14 -4.7759 -4.8569
6 15 15 -1.3638 1.4520
6 15 16 -0.8025 0.0753
6 16 0 -2.1482 1.5831
6 16 1 -0.4026 4.6504
6 16 2 -0.0776 -3.3271
6 16 3 1.6554 -2.8419
6 16 4 -5.3799 -1.8033
6 16 6 1.1913 2.0925
6 16 7 2.0391 6.5644
6 16 8 -2.4303 0.3576
6 16 9 0.5826 2.6539
6 16 10 -1.1759 2.8927
6 16 11 -1.6025 -2.5734
6 16 12 4.5062 -5.2534
6 16 13 -1.3519 -6.5866
6 16 14 -2.3093 -7.8870
6 16 15 -3.0059 2.2465
6 17 0 5.4470 0.1013
6 17 1 -1.8805 2.2552
6 17 2 4.4449 3.7785
6 17 3 -5.5567 -3.5108
6 17 4 -3.5031 0.0134
6 17 5 2.2994 -0.8040
6 17 6 -3.2091 -0.7148
6 17 7 2.5295 2.1016
6 17 8 6.7585 -0.3152
6 17 9 -6.1255 -2.8250
6 17 10 -0.6728 -2.4864
6 17 11 0.6551 -0.8052
6 17 12 -0.0358 3.6946
6 17 13 -1.5132 0.6999
6 17 14 -1.5051 2.6299
6 18 0 -4.7513 0.1665
6 18 1 2.5369 -2.8373
6 18 2 6.1865 0.8502
6 18 3 -4.7531 -3.2927
6 18 4 -1.2137 -0.3665
6 18 5 2.8521 -3.8430
6 18 6 -5.6460 -1.7744
6 18 7 -3.7539 -1.5740
6 18 8 -6.5020 -0.8874
6 18 9 -2.0837 3.1256
6 18 10 1.7367 6.3523
6 18 11 2.9033 -1.0489
6 18 12 4.4627 -2.0925
6 19 0 4.2940 0.3134
6 19 1 -2.2389 0.1767
6 19 2 1.0160 0.5532
6 19 3 -5.6300 3.3464
6 19 4 0.5459 -1.1349
6 19 5 4.3774 0.9271
6 19 6 -0.3654 -4.3101
6 19 7 -2.8981 -1.9591
6 19 8 -1.5064 -1.5536
6 19 9 -3.5279 -4.5296
6 19 10 5.4076 1.7607
6 20 0 -1.5895 -3.6309
6 20 1 0.7452 -4.3086
6 20 2 -2.4359 -3.0128
6 20 3 -0.5098 2.0363
6 20 4 1.6235 1.9205
6 20 5 0.2361 1.8666
6 20 6 -0.4526 3.4304
6 20 7 3.9059 1.9980
6 20 8 -6.6034 0.4675
6 21 0 0.5450 -1.0517
6 21 1 -4.8600 3.9489
6 21 2 -0.5150 3.0451
6 21 3 -6.1086 3.6079
6 21 4 -1.7505 -4.3943
7 0 1 8.8408 2.4908
7 0 4 -3.1436 14.7689
7 0 6 -8.3117 12.3881
7 0 7 2.8385 4.7993
7 0 8 21.0632 -19.8881
7 0 9 5.6991 0.7788
7 0 10 0.7160 0.5218
7 0 11 -4.9626 -4.5633
7 0 14 5.3476 -9.2836
7 0 15 4.8666 -6.7417
7 0 16 7.4729 -6.6625
7 0 18 -3.1015 10.0708
7 0 19 -2.6015 3.2954
7 0 20 2.5490 -0.5171
7 0 21 1.9594 -2.2986
7 0 22 3.9128 -6.3060
7 0 23 0.8782 2.3339
7 1 1 -9.9657 8.3927
7 1 3 -18.0437 0.8735
7 1 4 -1.4059 8.2139
7 1 5 11.3053 3.9067
7 1 6 11.7484 14.1365
7 1 7 -11.9874 -2.8341
7 1 8 6.4972 -3.3056
7 1 9 -9.7835 -10.4857
7 1 10 -10.4664 1.5181
7 1 11 5.8480 5.9737
7 1 12 4.7302 8.9260
7 1 13 -0.9186 13.0519
7 1 14 1.9342 -4.7568
7 1 15 -10.7501 1.8020
7 1 16 -4.6660 -7.0405
7 1 17 0.1433 -1.7218
7 1 18 -2.5368 5.5339
7 1 19 -0.8746 0.0059
7 1 20 10.9874 -1.3887
7 1 21 -7.8808 -3.3639
7 1 22 -0.5663 -0.6685
7 1 23 -4.7455 1.9513
7 2 0 0.5892 5.0315
7 2 1 -28.9145 -10.3357
7 2 3 1.8854 -3.4592
7 2 4 6.7701 -1.9238
7 2 7 5.0621 9.9725
7 2 8 5.2256 0.2473
7 2 9 12.0250 -4.8861
7 2 11 12.7582 -2.6914
7 2 12 7.2386 1.7604
7 2 13 -0.7757 1.5812
7 2 14 1.6855 7.2053
7 2 15 0.2368 4.6731
7 2 16 -0.8143 1.5310
7 2 17 -2.4564 -12.1247
7 2 18 -0.2618 4.6689
7 2 19 -0.5857 -5.7885
7 2 20 4.8896 3.0998
7 2 21 -0.3675 3.6954
7 2 22 3.1811 9.4154
7 2 23 1.8556 -2.7711
7 3 1 -6.1217 5.6627
7 3 3 7.6240 3.1569
7 3 4 -1.7345 20.3474
7 3 5 -5.3760 0.6323
7 3 6 2.5436 -9.8456
7 3 7 -3.6684 3.4970
7 3 8 8.9594 -6.5241
7 3 9 -0.3152 -8.0835
7 3 10 1.4095 -4.2214
7 3 11 0.8865 1.9920
7 3 12 1.4069 -9.1061
7 3 13 4.0546 -5.1200
7 3 14 0.8830 1.5524
7 3 15 8.5377 -0.8334
7 3 16 -4.6765 2.9517
7 3 17 1.0123 3.4286
7 3 18 -0.8131 -0.6804
7 3 19 5.5458 0.1508
7 3 20 -1.0216 -2.6342
7 3 21 6.7077 -1.6204
7 3 22 2.2794 -4.3456
7 4 4 -0.4272 -0.1028
7 4 12 -10.1875 -2.4427
7 4 13 -1.4774 2.2249
7 4 14 -3.4736 -8.3873
7 4 15 4.4135 -2.2253
7 4 16 -2.4720 0.6961
7 4 17 3.0783 -6.1576
7 4 18 2.0410 1.1746
7 4 19 -2.4155 -4.0316
7 4 20 -1.3873 1.4498
7 4 21 -2.6086 10.5805
7 4 22 -3.7886 -1.6992
7 5 0 0.6449 1.1523
7 5 1 -12.4933 -5.5905
7 5 2 -7.0893 -4.0082
7 5 4 -8.4814 -13.1248
7 5 5 1.9905 -16.1410
7 5 6 -0.2623 2.9962
7 5 7 5.5213 -5.0222
7 5 9 -5.8566 -2.7722
7 5 10 -5.8472 19.2224
7 5 11 -1.5415 7.4666
7 5 13 -0.1195 9.4908
7 5 14 0.3477 -0.7353
7 5 15 -0.1062 -0.8253
7 5 16 -3.6882 -1.0880
7 5 17 -7.1647 0.6882
7 5 18 5.6627 1.4255
7 5 19 -2.0528 -2.3058
7 5 20 0.4022 -0.9556
7 5 21 1.6855 1.1488
7 5 22 -4.0513 1.1634
7 6 0 0.0611 7.3289
7 6 1 1.0857 4.4543
7 6 7 -5.1316 3.5192
7 6 9 -4.8487 13.4379
7 6 11 -3.4948 -3.2596
7 6 12 6.3436 11.3742
7 6 13 2.9279 -8.7465
7 6 14 6.6795 -2.2206
7 6 15 3.7656 0.0842
7 6 16 -0.7049 -3.9783
7 6 17 5.4185 4.5814
7 6 18 -5.6089 0.9017
7 6 19 -4.0411 -2.2941
7 6 20 4.7281 8.7178
7 6 21 -3.2320 -8.0037
7 6 22 -0.3535 -2.8473
7 7 0 2.1079 2.9476
7 7 1 3.0490 0.4535
7 7 2 -2.7111 7.5505
7 7 3 11.1248 -6.3337
7 7 4 -2.6250 4.2911
7 7 5 -7.8087 -1.9779
7 7 6 4.8110 -4.1612
7 7 7 -0.7577 -4.0761
7 7 8 -3.1605 -3.6983
7 7 9 7.0739 2.2279
7 7 10 -10.3245 -0.3793
7 7 11 -1.7051 -1.8877
7 7 12 -2.3865 3.5919
7 7 13 -1.0774 9.2069
7 7 14 1.9213 -1.2176
7 7 15 7.0085 1.9893
7 7 16 -2.8426 2.2601
7 7 17 3.3101 -6.9635
7 7 18 2.8855 -6.3479
7 7 19 -10.7617 1.5969
7 7 20 0.3326 -2.1756
7 7 21 2.8495 -6.3011
7 8 1 -9.2247 -3.1532
7 8 2 -7.0915 2.0448
7 8 3 8.2068 9.0973
7 8 4 10.7041 -0.9267
7 8 6 1.7990 -11.0207
7 8 7 -14.2717 1.4498
7 8 8 3.8139 4.2193
7 8 10 -3.2406 4.1035
7 8 11 10.7213 1.3896
7 8 12 0.5310 -3.1601
7 8 13 -1.7402 -5.9324
7 8 14 -0.3015 -5.5998
7 8 15 -0.9750 -4.6998
7 8 16 3.8934 12.5603
7 8 17 -1.7613 -4.9236
7 8 18 -2.2537 0.2230
7 8 19 -2.8264 -0.4125
7 8 20 4.1370 2.2861
7 8 21 4.8461 -11.0662
7 9 0 -0.0540 -0.4661
7 9 1 -4.1634 4.3843
7 9 3 -2.8045 18.7616
7 9 4 2.6394 -10.9507
7 9 5 3.1185 -3.0495
7 9 6 5.8308 5.7843
7 9 8 -1.7098 1.3300
7 9 9 -3.2440 -7.0793
7 9 10 1.0911 4.5278
7 9 11 -0.6486 0.1246
7 9 12 -1.6631 -1.2015
7 9 13 -9.5266 2.6308
7 9 14 3.6745 -6.4968
7 9 15 -2.6530 -0.5138
7 9 16 -3.0951 -6.0917
7 9 17 3.4099 0.7618
7 9 18 -7.3030 3.9196
7 9 19 0.3870 3.1430
7 9 20 3.8208 -5.7602
7 10 0 0.7972 7.7441
7 10 1 -14.5184 2.1263
7 10 3 1.3486 6.9876
7 10 4 -4.3000 -1.7870
7 10 5 -3.5738 -2.2663
7 10 6 -4.6466 -1.8855
7 10 7 7.8416 9.3981
7 10 9 4.4006 1.8393
7 10 10 5.9465 3.0616
7 10 11 5.2648 -4.2450
7 10 12 2.2943 4.5968
7 10 13 -1.6418 2.4062
7 10 14 -7.4615 2.3042
7 10 15 -3.1638 7.1547
7 10 16 2.8114 1.2248
7 10 17 -3.1925 -7.1567
7 10 18 -1.1324 -4.8853
7 10 19 0.5048 -3.4502
7 10 20 3.2427 -4.5855
7 11 0 0.0960 9.5288
7 11 1 -6.0899 -3.0188
7 11 2 3.4518 9.7705
7 11 3 7.0298 -1.2776
7 11 4 -3.3992 0.2552
7 11 5 11.5617 0.6646
7 11 6 -4.3551 0.8858
7 11 7 2.4860 14.2920
7 11 8 0.0860 -2.5634
7 11 9 -1.3229 3.9625
7 11 10 0.3074 -3.2779
7 11 11 6.8333 0.7762
7 11 12 -5.1694 0.9724
7 11 13 10.5468 -0.2260
7 11 14 5.1149 5.9899
7 11 15 -6.0097 -5.5664
7 11 16 -5.7772 -0.3486
7 11 17 -4.2759 0.0160
7 11 18 -0.6841 2.0070
7 11 19 4.2395 -1.2265
7 12 1 -3.8271 -2.6960
7 12 2 -1.2592 2.9017
7 12 3 7.8674 1.5330
7 12 4 -2.0088 2.1219
7 12 5 -2.0689 -1.6621
7 12 6 1.1911 1.2755
7 12 7 6.2156 1.1081
7 12 9 -5.6900 1.6031
7 12 10 -1.4804 8.6751
7 12 11 -4.4236 -1.2858
7 12 12 -5.1811 1.4003
7 12 13 -9.9669 2.3595
7 12 14 -8.8466 -2.0296
7 12 15 9.3868 6.9465
7 12 16 5.3919 5.3219
7 12 17 5.7093 -5.7269
7 12 18 -0.7912 8.3128
7 13 0 -1.1600 -4.5645
7 13 1 4.8722 2.0999
7 13 2 8.5430 -3.5436
7 13 3 5.0872 2.2793
7 13 4 4.2047 0.4311
7 13 5 -4.5285 2.5627
7 13 6 -6.8232 3.6365
7 13 7 2.9371 3.3881
7 13 8 -5.4846 1.3068
7 13 9 -1.6073 2.8666
7 13 10 5.0067 -3.7821
7 13 11 -0.0316 -0.4615
7 13 12 -1.1452 -1.0548
7 13 13 10.4940 2.3612
7 13 14 -8.3606 4.8517
7 13 15 7.7018 -1.0185
7 13 16 -4.4311 4.9887
7 13 17 7.4742 3.9116
7 13 18 -1.4963 -2.6956
7 14 0 0.0353 -0.8575
7 14 1 -2.0817 -3.3309
7 14 2 -0.2883 -1.2787
7 14 3 -5.4155 -1.6263
7 14 4 -4.5519 -4.0935
7 14 5 2.8149 -0.4542
7 14 6 4.8988 -4.4853
7 14 7 -1.2667 -0.7713
7 14 8 1.6910 -3.4783
7 14 9 -5.9459 3.4381
7 14 10 -5.2575 4.6896
7 14 11 3.3887 -0.6359
7 14 12 -3.3853 1.0137
7 14 13 -0.9394 4.5251
7 14 14 4.5514 3.9672
7 14 15 3.8364 5.9165
7 14 16 8.0956 -12.8166
7 14 17 0.2445 0.0179
7 15 0 0.1284 5.0231
7 15 1 -0.1818 -5.5633
7 15 2 5.4946 1.5980
7 15 3 2.1415 3.6288
7 15 4 -7.5431 4.0495
7 15 5 1.2326 -2.6856
7 15 6 1.1130 6.0261
7 15 7 4.3093 3.2431
7 15 9 6.7667 1.7038
7 15 10 6.1862 -2.8002
7 15 11 -0.1309 3.5435
7 15 12 3.7870 -9.9389
7 15 13 -4.1652 -3.2877
7 15 14 -8.0026 -3.0505
7 15 15 1.0480 -2.5110
7 15 16 -5.1413 -3.3670
7 16 0 0.0001 -8.0578
7 16 1 9.2341 1.3632
7 16 2 -3.8489 -3.4467
7 16 3 -5.2818 1.4756
7 16 4 4.3861 -0.7532
7 16 5 -3.7558 1.7393
7 16 6 -6.3835 -3.2289
7 16 7 -1.6275 4.0076
7 16 8 4.9587 0.1454
7 16 9 2.2513 -3.7395
7 16 10 9.6935 -0.9152
7 16 11 1.5034 -0.6331
7 16 12 3.4477 -4.7967
7 16 13 -2.5011 -0.1043
7 16 14 -0.3542 2.2116
7 17 0 0.0685 -4.7105
7 17 1 -1.2212 0.9399
7 17 2 -2.1353 -3.5643
7 17 3 -6.3310 -4.2202
7 17 4 -2.6918 0.2631
7 17 5 2.4073 -3.6509
7 17 6 0.2843 2.3477
7 17 7 -1.2400 -3.4080
7 17 8 0.7933 3.0598
7 17 9 -3.3920 -0.0434
7 17 10 -1.8678 0.0503
7 17 11 3.7739 -0.3079
7 17 12 -5.0742 0.8908
7 17 13 -0.8678 -1.7697
7 18 0 -0.0821 1.8226
7 18 1 -2.6663 4.3145
7 18 2 -5.8085 6.7376
7 18 3 1.0497 -0.7432
7 18 4 4.0828 -0.7955
7 18 5 -0.8281 -3.8024
7 18 6 -2.1877 -2.5989
7 18 7 0.2776 0.5196
7 18 8 -1.1347 -6.7282
7 18 9 -0.8501 4.2779
7 18 10 -2.5157 -0.1399
7 18 11 0.6113 -0.8352
7 19 0 0.1601 0.8616
7 19 1 -3.1131 1.0002
7 19 2 -1.0932 -4.5652
7 19 3 -0.9368 5.4768
7 19 4 -0.2649 3.6156
7 19 5 -2.3546 4.4905
7 19 6 0.7931 6.3383
7 19 7 -5.8388 2.1346
7 19 8 4.8591 5.2937
7 19 9 -3.1933 -4.4234
7 20 0 -0.0242 4.4541
7 20 1 1.4723 5.2967
7 20 2 -2.2922 5.3420
7 20 3 2.9456 -6.7094
7 20 4 -2.2092 2.7620
7 20 5 -0.5529 -5.7340
7 20 6 0.1241 3.1157
7 20 7 2.3339 -2.9074
7 21 0 2.8791 0.3320
7 21 1 -3.3587 -2.1341
8 0 2 -6.2036 2.7824
8 0 5 0.3111 3.0863
8 0 8 -12.2032 -1.8542
8 0 11 -9.9562 -2.5033
8 0 12 -7.9276 -1.9142
8 0 15 -0.4479 3.3253
8 0 17 -10.5663 4.4099
8 0 18 -3.1136 0.6300
8 0 19 6.5083 3.3953
8 0 20 1.6709 -2.5844
8 0 21 4.6069 -6.1703
8 0 22 0.0801 0.5613
8 1 1 -2.4444 -6.3893
8 1 3 -1.9081 -12.9986
8 1 4 0.5035 -0.5240
8 1 9 1.1473 -4.7797
8 1 10 -8.0380 17.8283
8 1 11 0.4648 6.5090
8 1 12 -1.4525 -4.6765
8 1 13 4.0507 -3.9725
8 1 14 5.7158 -14.1758
8 1 15 8.0453 -7.2577
8 1 16 6.1709 8.4429
8 1 17 1.8071 7.9787
8 1 18 -0.0799 4.8487
8 1 19 -3.0994 0.8703
8 1 20 2.5432 -11.5722
8 1 21 -0.8552 -2.9647
8 1 22 -1.0362 0.0277
8 2 1 -12.9465 -1.6269
8 2 4 -0.6149 -13.3524
8 2 5 -4.1891 0.9553
8 2 6 -6.5843 4.6997
8 2 8 -0.7326 8.5574
8 2 9 4.7732 1.8853
8 2 10 4.9863 -1.4739
8 2 12 -4.2220 -4.8730
8 2 14 5.8536 1.2197
8 2 15 3.7739 -2.2876
8 2 16 1.9743 2.1434
8 2 18 -0.9512 -0.5676
8 2 19 -11.2310 -1.3564
8 2 20 -6.2870 -0.4028
8 2 21 3.8877 1.6691
8 2 22 4.3804 -1.7766
8 3 4 1.8815 4.6340
8 3 5 13.1261 -2.3503
8 3 6 -6.2642 6.1697
8 3 7 4.5400 0.3097
8 3 9 3.7365 -3.4669
8 3 10 5.8233 -0.7500
8 3 11 -0.4364 0.8276
8 3 13 -0.4807 -3.4724
8 3 14 -7.3269 9.4193
8 3 15 -2.6626 -8.8235
8 3 16 -4.1861 -2.9334
8 3 17 -3.8379 3.4681
8 3 18 0.9890 -8.5397
8 3 19 1.4937 -4.3446
8 3 20 -0.8300 -2.8770
8 3 21 1.0654 -3.8798
8 3 22 1.8387 6.1730
8 4 1 9.9680 -1.1148
8 4 2 -8.5278 5.2697
8 4 5 -8.7923 5.9425
8 4 6 -1.4908 -1.6181
8 4 7 -4.4061 -1.1449
8 4 8 3.5503 -5.7618
8 4 11 6.9272 3.3927
8 4 12 -5.4783 2.9413
8 4 13 1.0319 4.3365
8 4 14 -2.8773 4.6272
8 4 15 -0.6724 -1.7310
8 4 16 -5.6729 -4.0601
8 4 17 2.2350 3.9623
8 4 18 -7.1278 0.7312
8 4 19 -2.2880 0.8213
8 4 20 6.9110 -3.8855
8 4 21 -1.8995 -3.1421
8 4 22 -2.3085 1.7562
8 5 2 -1.6262 4.0968
8 5 3 -6.8599 7.5492
8 5 5 -3.6716 2.6594
8 5 7 -7.7056 -7.3985
8 5 8 -1.4651 5.9480
8 5 9 4.6795 4.1811
8 5 10 -1.0673 -3.1087
8 5 11 -2.7775 13.1103
8 5 12 2.3337 -9.5876
8 5 13 4.8409 -1.2906
8 5 14 -2.7187 -4.3561
8 5 15 2.3720 -6.5008
8 5 16 4.7097 4.9520
8 5 17 -5.4177 -3.4696
8 5 18 -0.9936 1.1057
8 5 19 2.4681 12.4895
8 5 20 -0.0164 1.0001
8 5 21 2.7245 3.0166
8 5 22 -1.9840 2.0167
8 6 1 -6.1151 13.3371
8 6 3 19.5693 2.4854
8 6 5 8.1072 0.6183
8 6 9 -16.3445 0.2624
8 6 11 -0.1584 4.7215
8 6 12 0.9347 2.9995
8 6 13 -0.2346 5.4725
8 6 14 -4.5146 0.8561
8 6 15 0.1855 -0.9238
8 6 16 2.8633 1.7408
8 6 17 0.3607 4.1801
8 6 18 -4.1006 -5.0073
8 6 19 7.6590 -2.6075
8 6 20 -0.1919 -0.2006
8 6 21 -9.6232 1.5068
8 7 1 -2.8211 -4.1378
8 7 3 3.0905 6.7371
8 7 5 16.7905 -0.3871
8 7 6 -7.8187 -10.2331
8 7 7 9.6576 -6.1517
8 7 9 -6.7866 -6.9728
8 7 10 -2.4255 7.7419
8 7 11 -0.3902 7.7796
8 7 12 4.4229 -3.0309
8 7 13 -1.2441 14.0617
8 7 14 -1.9395 0.9672
8 7 15 1.9518 5.3959
8 7 16 1.3764 -10.9486
8 7 17 -1.9200 0.6317
8 7 18 -4.4610 7.3022
8 7 19 0.0717 5.0612
8 7 20 1.0970 -5.6056
8 7 21 -6.6598 1.4413
8 8 0 16.8946 1.3288
8 8 1 2.6389 6.3433
8 8 2 10.2669 3.3584
8 8 3 10.1702 3.1707
8 8 4 -5.2111 -0.8990
8 8 5 -10.1640 -0.7643
8 8 6 -1.0759 -9.0037
8 8 7 -4.1356 -4.0252
8 8 8 -10.4197 -1.7146
8 8 9 5.7558 -7.8159
8 8 10 -3.0358 4.0206
8 8 11 0.2280 4.7951
8 8 12 -2.8453 1.6325
8 8 13 3.7516 0.2001
8 8 14 3.2058 1.0187
8 8 15 4.0468 0.5275
8 8 16 4.8223 -1.7295
8 8 17 -6.2178 0.2342
8 8 18 7.0214 8.5368
8 8 19 4.7112 -1.4404
8 8 20 -10.8482 0.5598
8 8 21 1.5566 -2.6424
8 9 0 -7.4722 -0.6177
8 9 1 7.3660 9.0541
8 9 3 -1.5760 -7.8062
8 9 4 9.7322 -0.8989
8 9 5 -6.1273 -13.1509
8 9 6 -4.7308 -8.8472
8 9 7 10.9226 3.4318
8 9 9 3.2178 4.0145
8 9 10 6.0392 4.8083
8 9 11 -4.8979 -2.1385
8 9 13 2.4029 -5.1567
8 9 14 -3.0405 6.1729
8 9 15 5.0678 -0.4168
8 9 16 5.0987 -7.0321
8 9 17 -3.1536 10.7627
8 9 18 -4.8125 -6.6914
8 9 19 1.3805 -3.4008
8 9 20 -1.7507 -9.3443
8 10 1 -10.6298 5.3477
8 10 2 2.2420 5.1317
8 10 3 -10.0631 -5.4305
8 10 4 -6.4810 8.5370
8 10 5 -2.6067 -15.6591
8 10 7 6.0610 2.5485
8 10 9 0.4142 8.5826
8 10 11 -6.7814 3.8109
8 10 13 0.8596 1.1466
8 10 14 0.1244 -5.5024
8 10 15 1.0999 -4.6084
8 10 16 -3.8197 -5.0270
8 10 17 0.7021 5.7976
8 10 18 -0.4273 -0.8339
8 10 19 -2.5417 -7.2554
8 11 0 2.0749 -0.9452
8 11 1 2.6778 -0.2126
8 11 2 1.1284 0.7610
8 11 3 -1.2652 -5.0086
8 11 4 -5.1639 2.9602
8 11 5 -1.6660 -4.9462
8 11 6 -0.4385 -0.5262
8 11 7 -0.8585 -0.0164
8 11 8 8.8407 1.3960
8 11 9 5.1038 3.3214
8 11 10 2.4068 5.4162
8 11 12 0.8375 3.6206
8 11 13 -6.2483 -3.6049
8 11 14 -3.5248 1.1196
8 11 16 1.0405 -3.0415
8 11 17 0.4935 -0.9457
8 11 18 -4.4977 -5.2203
8 11 19 -2.5086 4.1303
8 12 0 -13.0375 -1.2042
8 12 1 6.5980 1.7402
8 12 2 -0.7461 1.7625
8 12 3 -4.9919 5.1741
8 12 4 3.8648 -8.1513
8 12 5 2.2016 -1.6570
8 12 6 8.6507 -0.0251
8 12 7 4.9105 1.2672
8 12 8 3.4294 3.2027
8 12 9 0.8768 -4.7659
8 12 10 -6.1813 4.0409
8 12 11 3.1814 -3.3023
8 12 12 4.6022 3.7889
8 12 13 8.6408 -0.1119
8 12 14 2.3620 -1.3871
8 12 15 -4.9886 3.1090
8 12 16 -2.9477 4.6711
8 12 17 -0.1955 1.7776
8 12 18 1.9170 -6.3843
8 13 0 1.9558 1.3080
8 13 1 0.5631 5.6746
8 13 2 -7.7473 1.9686
8 13 3 -2.2579 -9.6069
8 13 4 0.2255 -1.1300
8 13 5 -0.3262 -8.6036
8 13 6 -0.2164 2.0951
8 13 7 7.6878 2.5179
8 13 8 12.5486 -4.9872
8 13 9 0.9541 1.1723
8 13 10 2.9120 -1.4566
8 13 11 -2.1545 5.1774
8 13 13 2.2972 6.6526
8 13 14 -1.7365 7.7235
8 13 15 10.3027 -2.2258
8 13 16 3.4322 -5.9528
8 13 17 -6.8317 1.4258
8 14 1 4.2160 0.9527
8 14 2 -5.3278 -0.4158
8 14 3 6.2762 -3.2111
8 14 4 2.1996 -0.2133
8 14 5 3.4350 3.0891
8 14 6 -0.3584 -3.7863
8 14 8 -2.1572 2.4380
8 14 9 -0.6413 -1.7751
8 14 10 -3.3958 -6.1440
8 14 11 4.0194 -6.5081
8 14 12 -3.6226 0.1700
8 14 13 -1.2137 0.0136
8 14 14 0.7942 -0.9153
8 14 15 -4.5679 -1.9631
8 14 16 -0.5935 3.0990
8 15 0 1.5691 0.8546
8 15 1 0.5131 -0.3187
8 15 2 -1.3085 -0.0295
8 15 3 4.5185 4.1273
8 15 4 -8.2408 2.3696
8 15 5 1.5213 -2.1176
8 15 6 -0.6533 5.0550
8 15 7 -0.3590 -3.7428
8 15 8 0.0191 -8.2741
8 15 9 -0.9582 2.9235
8 15 10 3.9551 -2.6648
8 15 11 4.3596 -0.1193
8 15 12 1.2920 -0.1703
8 15 13 0.7080 2.1955
8 15 14 1.8302 -4.4958
8 15 15 -3.6441 -0.4028
8 16 0 7.1859 0.2090
8 16 1 -2.1615 2.1493
8 16 2 5.7299 -10.4989
8 16 3 1.3532 1.4407
8 16 4 1.1611 -12.1366
8 16 5 -2.6124 3.9589
8 16 6 0.6902 -3.8588
8 16 7 4.2489 -0.7156
8 16 8 3.7943 -1.8415
8 16 9 3.4455 -6.6174
8 16 10 0.3359 -4.2233
8 16 11 -0.8189 -5.6507
8 16 12 -3.6089 1.6549
8 16 13 -1.7560 -4.1123
8 16 14 0.1367 2.0726
8 17 0 -0.7471 -0.6358
8 17 1 -2.3373 -0.5662
8 17 2 -3.3458 2.0677
8 17 3 -3.1972 5.1997
8 17 4 3.4993 -4.0407
8 17 5 2.3196 3.3293
8 17 6 -1.9638 -2.3931
8 17 7 -2.6611 -5.6222
8 17 8 -3.7271 -5.9968
8 17 9 -1.7761 2.0143
8 17 10 2.8396 1.2789
8 17 11 2.7077 0.2626
8 17 12 -0.8922 -0.6004
8 18 0 10.8838 -0.0704
8 18 1 2.5714 -7.4066
8 18 2 6.4775 1.8787
8 18 3 -8.7116 -3.7748
8 18 4 -2.0481 3.6995
8 18 5 -6.0839 3.8860
8 18 6 -0.2602 1.0022
8 18 7 -1.5508 3.0773
8 18 8 -0.7069 -2.7284
8 18 9 3.8580 6.6692
8 18 10 1.5655 0.5440
8 18 11 -3.4230 -1.3161
8 19 0 -1.9073 1.1740
8 19 1 0.9613 3.9099
8 19 2 4.7237 1.0215
8 19 3 -2.6928 -5.4253
8 19 4 -2.5537 -6.4697
8 19 5 -4.4359 -0.9499
8 19 6 1.1102 -7.7293
8 19 7 -0.2678 1.1183
8 19 8 -2.3472 0.7701
8 20 0 -3.5186 -1.3248
8 20 1 0.8962 -0.1621
8 20 2 -2.1616 2.4300
8 20 3 0.2372 4.2774
8 20 4 3.3641 2.0305
8 20 5 1.8207 6.8506
9 0 2 7.5793 -12.7647
9 0 3 -4.0423 0.7644
9 0 4 -3.4999 9.2782
9 0 6 5.8939 8.0038
9 0 8 16.7904 -12.5679
9 0 10 -0.8245 0.2636
9 0 11 12.0473 10.0338
9 0 12 -10.9108 9.7228
9 0 14 -6.2749 -5.8317
9 0 15 -11.3032 -6.7784
9 0 16 2.2499 -4.3516
9 0 17 3.5246 8.4357
9 0 18 2.0322 6.2153
9 0 19 5.7801 2.0585
9 0 20 4.1333 -0.2859
9 0 21 -4.7417 -0.7539
9 0 22 -4.5619 -4.0812
9 1 1 -12.0254 0.0091
9 1 2 6.1349 17.2955
9 1 3 7.1918 1.8519
9 1 4 -13.3499 -4.3116
9 1 5 0.5010 -8.5284
9 1 6 9.7521 -7.1002
9 1 7 1.9560 -7.7227
9 1 8 3.4911 18.2013
9 1 9 -4.5723 0.6518
9 1 10 -6.8424 3.1142
9 1 11 2.5270 12.3293
9 1 12 1.6030 -1.9646
9 1 13 5.2462 -3.8338
9 1 14 5.4821 4.3086
9 1 15 -9.4064 -0.6586
9 1 16 -2.7196 3.9588
9 1 17 0.3487 11.1012
9 1 18 -4.1910 -2.3250
9 1 19 -1.6817 -4.2678
9 1 20 2.0617 3.2154
9 1 21 -2.8057 -2.1232
9 1 22 0.0329 -0.6806
9 2 2 -2.3676 4.4944
9 2 4 1.3215 4.7659
9 2 6 9.6738 -0.7034
9 2 7 2.4840 -4.2708
9 2 8 2.1046 -3.6694
9 2 9 -4.9363 1.8844
9 2 10 -3.3568 -9.4558
9 2 11 -6.5037 -0.7784
9 2 12 5.5292 -8.4940
9 2 13 1.9971 -3.9291
9 2 14 8.5550 3.9823
9 2 15 2.6923 -0.7731
9 2 16 0.4392 7.3183
9 2 17 6.0799 -3.2763
9 2 18 -1.5094 -1.3582
9 2 19 4.0167 -1.8541
9 2 20 -5.2235 1.4530
9 2 21 -2.6397 -1.5161
9 2 22 0.0859 0.6754
9 3 1 9.7642 6.7582
9 3 3 1.6180 -10.1203
9 3 4 -7.3313 0.5125
9 3 6 10.2749 7.1275
9 3 7 -2.1750 5.8217
9 3 8 1.5984 -3.2149
9 3 9 -0.7071 1.3230
9 3 11 -11.5406 -7.8877
9 3 12 -1.7431 4.1342
9 3 13 -1.5480 -0.5914
9 3 14 -5.8584 -5.1924
9 3 15 5.9788 4.7317
9 3 16 -3.0588 -4.0217
9 3 17 -0.7017 4.8801
9 3 18 -7.3936 4.7945
9 3 19 -0.3952 2.3182
9 3 20 -0.0610 -0.2805
9 3 21 -0.4092 -5.1658
9 3 22 -0.8672 -3.4034
9 4 0 0.0509 10.4784
9 4 1 6.8367 1.3276
9 4 2 0.0075 1.9898
9 4 4 1.5008 -10.1891
9 4 5 -2.9749 -10.7834
9 4 6 -2.0241 -3.9445
9 4 7 -2.4568 -2.7935
9 4 8 -2.8253 3.9360
9 4 9 6.1249 6.7346
9 4 10 0.3986 7.9316
9 4 11 -1.5943 1.4016
9 4 12 7.4707 0.5265
9 4 13 0.0350 6.8132
9 4 14 -3.2081 -0.7874
9 4 15 -4.1110 4.2398
9 4 16 2.0753 0.9529
9 4 17 -1.2168 0.0734
9 4 18 -5.3067 4.6307
9 4 19 -6.7498 -4.8977
9 4 20 -5.1423 2.5208
9 4 21 4.2666 2.2126
9 5 0 0.9822 3.0136
9 5 1 -6.7272 -0.2317
9 5 2 -12.8635 2.4405
9 5 3 -13.4553 0.7418
9 5 4 -1.2011 -4.9202
9 5 5 -1.1037 4.8554
9 5 6 -0.3709 1.9317
9 5 7 -2.8709 -0.7418
9 5 8 -1.9014 -2.4135
9 5 9 -3.4485 -0.8589
9 5 10 -0.0642 4.2126
9 5 11 2.8349 10.4398
9 5 12 0.7058 2.3404
9 5 13 3.4561 -2.2705
9 5 14 8.4771 -0.1307
9 5 15 1.5409 -2.4113
9 5 16 2.8727 3.7489
9 5 17 0.3259 2.9603
9 5 18 -0.5286 0.5102
9 5 19 5.3199 -5.1967
9 5 20 -3.9927 -5.8791
9 5 21 3.9149 5.2025
9 6 1 -1.7935 -2.1754
9 6 4 8.0719 1.7032
9 6 6 1.2197 -2.9453
9 6 7 -2.7748 -0.5124
9 6 8 4.8707 3.0716
9 6 9 7.9794 4.7742
9 6 12 -6.3048 10.6461
9 6 13 -5.9914 -6.0628
9 6 14 4.4934 -4.3548
9 6 15 -3.5967 -0.8852
9 6 16 2.9723 -6.0324
9 6 17 -5.2317 0.4289
9 6 18 4.4411 -1.3375
9 6 19 -0.7513 -2.4883
9 6 20 0.4975 2.4611
9 6 21 -3.8080 3.1215
9 7 1 10.1060 0.0023
9 7 2 -4.1909 8.3875
9 7 3 10.4219 -3.2094
9 7 6 -8.8658 0.9218
9 7 7 -5.0141 -5.1733
9 7 8 -0.5692 -3.7612
9 7 9 -12.3377 4.4893
9 7 10 6.0982 3.4364
9 7 11 4.9975 2.6430
9 7 12 0.9592 10.5349
9 7 13 5.3443 2.7523
9 7 14 1.2648 1.3575
9 7 15 1.2459 -7.3066
9 7 16 -6.7046 -2.3968
9 7 17 3.2009 3.5028
9 7 18 -2.2272 2.2663
9 7 19 -3.3935 1.9586
9 7 20 -1.1060 5.1950
9 7 21 -0.4931 2.2791
9 8 1 -0.6182 1.6519
9 8 3 -1.7126 4.6490
9 8 4 0.1087 -10.1902
9 8 5 -3.8173 -5.1207
9 8 6 -4.1495 10.4764
9 8 7 2.1041 -7.3667
9 8 9 8.7557 8.8175
9 8 11 -2.8790 6.5978
9 8 12 -8.3610 6.6072
9 8 13 2.5055 -2.6047
9 8 14 -1.8658 1.7914
9 8 15 1.8098 -3.2425
9 8 16 -5.8761 -0.5121
9 8 17 0.3895 -1.9331
9 8 18 2.1579 12.9234
9 8 19 -7.0142 -1.8273
9 8 20 -6.7807 2.5138
9 9 0 0.2585 -7.3288
9 9 1 2.7838 7.5769
9 9 2 9.7699 2.3535
9 9 3 2.1643 -1.5263
9 9 4 -3.7382 7.8327
9 9 5 -5.7997 1.3134
9 9 6 0.1856 4.9877
9 9 7 5.0490 -2.2345
9 9 8 -4.8884 -0.8528
9 9 9 -2.6218 1.6663
9 9 10 6.8757 6.2155
9 9 11 -6.5230 3.8281
9 9 12 -9.0980 6.3380
9 9 13 -2.7021 1.9023
9 9 14 -6.6593 1.1075
9 9 15 -4.5916 -4.0986
9 9 16 0.0297 4.9052
9 9 17 6.9081 -3.7857
9 9 18 -0.2973 -3.0101
9 9 19 -5.7966 4.1746
9 10 0 0.6364 10.7135
9 10 1 -0.9342 -4.3853
9 10 3 -0.6748 -6.5491
9 10 4 4.9400 -5.8280
9 10 5 -2.0359 10.2180
9 10 6 -3.0784 -6.1510
9 10 7 3.6983 0.6690
9 10 9 1.2419 -2.5973
9 10 10 4.8056 -3.0645
9 10 11 -1.5141 1.4393
9 10 12 1.1880 -3.3537
9 10 13 0.3632 -2.8032
9 10 14 1.3926 1.1474
9 10 15 -3.1869 0.1088
9 10 16 -2.9422 2.6218
9 10 17 3.6269 0.3047
9 10 18 -9.7924 8.9110
9 10 19 -3.5988 -0.7159
9 11 0 -0.4391 8.1728
9 11 1 3.6716 1.7117
9 11 2 0.1128 7.7774
9 11 3 7.0446 -1.6936
9 11 4 -5.5367 2.4565
9 11 5 -0.7934 -6.4462
9 11 6 3.9956 -7.5347
9 11 7 -3.2113 2.4633
9 11 8 2.1277 -2.6932
9 11 9 -10.6026 0.0613
9 11 10 -8.2489 0.9856
9 11 11 0.0025 -0.4374
9 11 12 -0.6471 -6.7344
9 11 13 0.4590 -7.4093
9 11 14 -7.2858 -0.5899
9 11 15 7.5006 0.5351
9 11 16 1.2670 3.1438
9 11 17 0.6180 -3.3866
9 11 18 -0.5851 5.5622
9 12 0 0.3064 -8.1571
9 12 1 -1.1741 -3.8987
9 12 2 1.8049 -7.9293
9 12 3 -8.1826 -0.0161
9 12 4 -11.4265 -0.2394
9 12 5 -1.3350 -8.4305
9 12 6 -4.4502 4.3905
9 12 7 1.0342 -6.5793
9 12 8 1.8262 -3.2972
9 12 9 2.4173 7.3089
9 12 10 -2.2547 7.0455
9 12 11 2.9239 5.0925
9 12 12 3.2073 5.9813
9 12 13 0.6397 5.6770
9 12 14 -0.0091 3.9050
9 12 15 2.9519 -3.3511
9 12 16 -1.0426 0.7432
9 12 17 3.8812 2.7697
9 13 0 -0.8427 -1.6949
9 13 1 5.3135 -1.7530
9 13 2 6.9430 1.0534
9 13 3 -1.9321 -8.2477
9 13 4 -0.6564 -0.5522
9 13 5 7.2388 -2.5324
9 13 6 0.0540 7.4554
9 13 7 -2.3608 -6.0926
9 13 8 -1.4945 -3.4823
9 13 9 -6.3221 3.7946
9 13 10 3.6837 4.0169
9 13 11 1.2372 -6.8653
9 13 12 3.4156 -4.8745
9 13 13 0.7158 3.7838
9 13 14 9.0998 2.0114
9 13 15 2.8771 0.3222
9 13 16 5.6184 -2.3283
9 13 17 0.3425 -1.6065
9 14 0 -1.3020 0.4120
9 14 1 -1.0164 -5.1224
9 14 2 -1.8421 0.1588
9 14 3 -9.3007 -0.4868
9 14 4 2.2911 -6.0519
9 14 5 2.3321 1.8454
9 14 6 0.1428 -1.6229
9 14 7 6.2231 1.3927
9 14 8 -2.2796 0.8873
9 14 9 1.2286 -7.8952
9 14 10 -2.3308 -0.4508
9 14 11 1.6194 4.5730
9 14 12 5.5307 3.5675
9 14 13 -7.1511 -2.3984
9 14 14 2.9038 -5.7045
9 14 15 -6.3287 -3.1939
9 14 16 1.9090 -1.0862
9 15 0 0.1750 8.7069
9 15 1 2.9936 1.9637
9 15 2 -12.1275 2.0339
9 15 3 4.7154 -5.4535
9 15 4 -3.5171 -3.3927
9 15 5 2.3928 -0.2973
9 15 6 -3.3529 -3.7968
9 15 7 -0.6285 6.6332
9 15 8 3.5430 -5.7761
9 15 9 -0.7073 -4.6148
9 15 10 -0.6019 0.4901
9 15 11 -4.2585 -2.7252
9 15 12 -1.3783 -0.5286
9 15 13 -3.3956 -2.4428
9 15 14 -2.9878 -1.8933
9 16 0 0.2962 -11.8875
9 16 1 -1.4702 -1.4299
9 16 2 -0.4595 -2.4387
9 16 3 -4.0649 2.8347
9 16 4 9.8406 6.6600
9 16 5 -6.4270 0.5133
9 16 6 -0.4362 3.6613
9 16 7 -1.8394 -0.9837
9 16 8 -5.1217 0.5790
9 16 9 3.2125 -0.5341
9 16 10 1.5553 -2.2874
9 16 11 4.6306 4.7281
9 16 12 -1.3182 -1.1126
9 16 13 -2.6953 -3.4907
9 17 0 0.1119 -5.0707
9 17 1 -2.1752 -2.1250
9 17 2 -0.4165 -5.1139
9 17 3 0.1756 0.3738
9 17 4 -5.2437 7.9787
9 17 5 4.6911 -1.0930
9 17 6 -5.8153 7.8054
9 17 7 5.0614 -9.7060
9 17 8 2.3337 -4.2543
9 17 9 0.6410 -0.1098
9 17 10 -1.5821 -0.0439
9 17 11 -0.1014 -0.4249
9 17 12 6.9593 0.0516
9 18 0 0.2274 6.2261
9 18 1 4.2664 -2.3239
9 18 2 0.8493 0.3326
9 18 3 2.6448 -3.4663
9 18 4 -2.5818 -0.3044
9 18 5 0.5478 -5.4903
9 18 6 -1.6068 0.9189
9 18 7 2.0285 4.4313
9 18 8 -0.8451 -0.4326
9 18 9 4.8419 -4.2273
9 18 10 3.8929 0.0723
9 19 0 2.0746 -8.8928
9 19 1 -2.0354 -4.7380
9 19 2 1.1731 -2.2013
9 19 3 0.5547 3.8278
9 19 4 -3.1833 0.1704
9 19 5 2.5832 0.7066
9 19 6 0.9792 1.2496
9 19 7 1.7716 -0.5082
9 20 0 0.4210 5.5259
9 20 1 4.4107 -3.7876
9 20 2 -4.3973 -0.0408
9 20 3 -2.1805 3.7935
10 0 2 5.9188 8.0333
10 0 3 -1.3493 -8.7168
10 0 7 1.3573 8.6711
10 0 8 -0.4738 -5.0550
10 0 12 -0.0331 -6.2240
10 0 13 1.0674 -4.4212
10 0 14 3.5834 -11.4863
10 0 16 -6.3945 10.9783
10 0 17 -0.8093 4.1414
10 0 18 -0.3929 1.8809
10 0 19 1.0098 -0.6218
10 0 20 6.0625 -7.9786
10 0 21 0.1836 -1.2343
10 1 1 -7.9351 -0.4943
10 1 5 -1.6061 7.4073
10 1 6 16.3093 -0.9935
10 1 7 -14.1334 4.1086
10 1 8 -9.8602 -4.6051
10 1 9 11.6407 7.2595
10 1 11 9.3887 0.8095
10 1 12 7.8949 -3.6287
10 1 13 -11.0260 2.7488
10 1 14 -5.1750 2.7751
10 1 15 2.3544 -4.0317
10 1 16 -5.9566 -2.3424
10 1 17 5.7478 -1.7392
10 1 18 10.5683 1.0758
10 1 19 -4.3972 -8.3822
10 1 20 4.3765 -2.9327
10 1 21 -2.6901 5.4430
10 2 0 -0.0843 0.3017
10 2 3 0.4610 4.7912
10 2 7 5.1386 -2.1883
10 2 9 2.9321 2.2594
10 2 10 0.2704 -8.1843
10 2 11 -3.8209 9.3931
10 2 13 -0.9635 -10.0241
10 2 14 -3.3533 8.8182
10 2 15 -1.5526 -6.0364
10 2 16 -4.1711 -0.2882
10 2 17 -2.4907 3.8196
10 2 18 0.4511 4.7686
10 2 19 -0.3297 4.4626
10 2 20 1.7466 6.2681
10 2 21 -3.4434 2.0497
10 3 0 3.3563 0.9231
10 3 1 8.7684 3.1623
10 3 3 2.8117 10.1084
10 3 4 2.2998 -6.1077
10 3 5 3.0938 2.8912
10 3 6 3.3300 -3.1156
10 3 7 5.5573 -1.6071
10 3 8 -2.3568 -4.5172
10 3 9 -5.1029 0.2041
10 3 10 1.2889 0.2983
10 3 11 1.1596 -2.1932
10 3 12 -0.2139 5.8710
10 3 13 5.0330 2.0386
10 3 14 0.9702 3.6660
10 3 15 2.0167 -1.6575
10 3 16 0.1458 -3.2416
10 3 17 0.0703 4.1289
10 3 18 6.0455 1.5157
10 3 19 -2.6714 4.3471
10 3 20 4.2359 8.7345
10 3 21 0.1084 1.0085
10 4 3 -4.4204 7.4764
10 4 7 3.9625 -2.3755
10 4 9 -7.1626 -10.1475
10 4 10 -1.8213 -5.3264
10 4 11 4.5945 -8.0281
10 4 12 1.6308 1.8187
10 4 13 -2.3954 11.5418
10 4 14 -3.4325 -0.1135
10 4 15 2.3915 -0.7415
10 4 16 -0.7064 -2.3457
10 4 17 4.7560 -0.3196
10 4 18 5.3801 6.0321
10 4 19 -2.4655 -3.0160
10 4 20 -2.9109 2.6021
10 4 21 1.6740 0.4276
10 5 1 1.5835 7.8743
10 5 5 5.0167 -3.7259
10 5 6 6.9308 4.1172
10 5 7 -7.7008 -1.1514
10 5 8 -5.6832 -1.5678
10 5 9 -0.4120 2.4665
10 5 11 -3.2002 0.4069
10 5 12 0.4897 -4.4658
10 5 13 5.9719 1.8009
10 5 14 -6.0070 -0.3787
10 5 15 -2.0581 -2.4784
10 5 16 1.9053 4.8738
10 5 17 8.7331 3.0177
10 5 18 -5.1682 -2.2329
10 5 19 5.5628 1.0810
10 5 20 -0.9664 1.4610
10 5 21 -1.7421 -0.4581
10 6 0 -2.0565 0.0505
10 6 3 0.1430 8.2120
10 6 5 1.4154 0.1148
10 6 6 2.6594 4.2079
10 6 7 -0.7950 -4.1768
10 6 9 -3.6710 12.7683
10 6 10 1.0384 5.7122
10 6 11 0.9757 4.6705
10 6 12 4.6635 8.7341
10 6 13 0.7531 -4.8536
10 6 14 7.0905 -1.7569
10 6 15 0.4898 2.3174
10 6 16 -4.8895 -7.1943
10 6 17 -1.0824 4.7657
10 6 18 2.0879 -1.0441
10 6 19 -2.8533 -0.0021
10 6 20 2.6214 4.1990
10 7 0 8.2800 -0.5279
10 7 1 -4.1293 -2.2538
10 7 2 8.4769 -13.3276
10 7 3 -4.3522 -5.1390
10 7 4 -1.1207 -1.9346
10 7 5 -8.4375 -1.6505
10 7 6 -0.1793 0.1174
10 7 7 0.3622 -4.9040
10 7 9 15.6652 -2.3309
10 7 10 0.7940 6.5908
10 7 11 -2.5808 5.6468
10 7 12 12.6058 8.6234
10 7 13 0.2774 -0.8240
10 7 14 0.6526 1.6114
10 7 15 8.3296 -2.5814
10 7 16 -3.4639 -0.6536
10 7 17 3.5167 -0.3449
10 7 18 1.2949 -6.7768
10 7 19 -1.1779 9.9751
10 7 20 -0.9279 2.3584
10 8 0 6.3373 1.4647
10 8 1 8.4261 -1.6009
10 8 3 -6.1059 -7.1038
10 8 4 6.7087 -3.5085
10 8 5 1.6825 9.4515
10 8 7 2.1851 5.4854
10 8 9 7.3389 12.2267
10 8 11 1.5212 0.2009
10 8 13 3.6539 2.1329
10 8 14 -1.0803 -5.9740
10 8 15 -8.3591 -6.6739
10 8 16 3.7857 -2.2668
10 8 17 1.6001 -4.4970
10 8 18 -0.2298 0.7906
10 8 19 3.5239 2.1642
10 8 20 -2.4905 -2.0680
10 9 1 -8.4355 4.5583
10 9 2 -7.2390 -4.6424
10 9 3 -12.8611 -1.4993
10 9 4 -14.9835 0.0456
10 9 5 2.7616 -6.8594
10 9 7 -0.9565 3.9445
10 9 8 6.2142 -4.4105
10 9 9 4.9525 -2.8423
10 9 11 2.9692 -0.8507
10 9 12 -7.4525 -1.6501
10 9 13 -3.6016 3.2910
10 9 14 0.9980 2.3704
10 9 15 -4.5244 -2.9266
10 9 16 8.4918 -2.9167
10 9 17 -10.8685 5.9079
10 9 18 -2.2094 0.4976
10 9 19 -3.6170 9.4894
10 10 0 6.6084 -0.1695
10 10 1 2.4491 4.6029
10 10 2 -0.9106 5.9415
10 10 3 -0.6357 3.3560
10 10 4 6.8825 13.0607
10 10 5 3.0235 -3.3662
10 10 6 -5.1097 1.3592
10 10 7 0.0646 -0.6886
10 10 8 2.1060 2.5759
10 10 9 -2.2938 11.4592
10 10 10 0.6518 3.0859
10 10 11 -4.0022 2.8666
10 10 12 -0.1263 2.2460
10 10 13 -7.6036 -10.6373
10 10 14 -0.2019 2.0816
10 10 15 -4.9201 -1.2568
10 10 16 1.0221 -4.7299
10 10 17 -5.9415 0.4540
10 10 18 2.1912 1.3371
10 11 1 -0.7994 -3.7062
10 11 2 -4.1751 -8.2604
10 11 3 1.6376 1.4458
10 11 5 3.9602 -0.1811
10 11 7 4.3706 -0.6492
10 11 8 -8.8063 0.4343
10 11 9 5.0913 -3.6909
10 11 11 0.2239 3.8337
10 11 12 -5.4388 1.5937
10 11 13 0.9160 7.7806
10 11 14 -1.4011 -7.4343
10 11 15 -1.0146 -1.5424
10 11 16 -4.2284 1.9681
10 11 17 0.4683 4.8773
10 12 0 5.0888 -1.1717
10 12 1 -2.9313 -0.8070
10 12 2 1.6250 -0.0054
10 12 3 -3.1035 -2.5079
10 12 4 6.8540 -4.1796
10 12 5 -5.3943 4.1276
10 12 6 7.2604 -5.5519
10 12 7 6.1977 -2.6887
10 12 9 2.6140 6.7984
10 12 10 2.2673 -1.7434
10 12 11 3.3441 -7.5461
10 12 13 -1.3156 9.6132
10 12 14 2.8449 -3.6993
10 12 15 -0.2203 2.5028
10 12 16 5.0562 -3.6502
10 12 17 -2.2133 6.3792
10 13 0 4.7344 -0.2685
10 13 1 6.0615 1.2357
10 13 2 -2.9687 1.3515
10 13 3 4.3154 -0.4517
10 13 4 -9.4629 -1.3735
10 13 5 1.6301 -6.0094
10 13 6 0.4646 1.4643
10 13 7 -4.8778 -3.0024
10 13 8 4.3270 -2.0715
10 13 9 1.3531 -2.6257
10 13 10 2.2600 3.3557
10 13 11 -0.0159 -1.1331
10 13 12 7.4472 3.7837
10 13 13 -0.0250 3.6618
10 13 14 -4.6210 -0.8721
10 13 15 -6.4762 4.4746
10 13 16 5.8691 2.3735
10 14 0 4.9434 -0.2699
10 14 1 -0.6969 1.0009
10 14 2 8.8413 1.6978
10 14 3 -0.9577 3.7189
10 14 4 0.3536 -3.7842
10 14 5 3.4352 5.2290
10 14 6 4.9078 0.7896
10 14 7 -1.9940 -3.9133
10 14 8 -11.1504 2.0078
10 14 9 -2.6591 5.5406
10 14 10 -0.3110 -6.7302
10 14 11 -1.5224 2.9544
10 14 12 -2.3273 9.9598
10 14 13 4.0917 4.8124
10 14 14 2.4074 -1.5733
10 14 15 3.4785 0.2150
10 15 1 -1.6400 -6.1674
10 15 2 -3.5212 -9.1612
10 15 3 9.5434 1.3411
10 15 4 -0.8763 -10.9652
10 15 5 -0.1429 7.3128
10 15 6 0.2184 2.4002
10 15 7 -6.8019 -2.9868
10 15 8 -4.6690 0.6213
10 15 9 0.5454 -3.9207
10 15 10 4.0546 5.5707
10 15 11 2.9559 0.3028
10 15 12 2.9809 -1.5833
10 15 13 -3.9658 0.9328
10 15 14 0.2379 -2.4876
10 16 0 -3.0615 -1.1364
10 16 1 -9.5979 4.4179
10 16 2 -2.2174 0.3041
10 16 3 -14.9184 -2.1494
10 16 4 4.7071 -0.0402
10 16 5 -8.8269 3.4506
10 16 6 5.9993 -4.5923
10 16 7 3.6338 -7.8270
10 16 8 -11.0222 -5.0839
10 16 9 1.4888 -5.8054
10 16 10 0.8870 -1.8221
10 16 11 -1.5438 2.3657
10 16 12 -10.0009 -1.8759
10 17 0 1.3353 0.2305
10 17 1 -6.3591 -1.8521
10 17 2 4.8091 0.5152
10 17 3 -1.6270 -3.4233
10 17 4 -2.4914 6.4432
10 17 5 -5.8543 6.0362
10 17 6 1.1965 5.8510
10 17 7 -0.9921 3.3173
10 17 8 11.0981 3.7096
10 17 9 2.6537 7.3093
10 17 10 1.7077 0.0425
10 17 11 4.4111 -5.3802
10 18 0 -4.2622 -0.7474
10 18 1 -1.5346 -10.6491
10 18 2 -2.1224 1.0411
10 18 3 7.4406 1.0273
10 18 4 -3.0755 5.8022
10 18 5 -0.2380 1.5104
10 18 6 3.6454 -0.9789
10 18 7 -5.2704 -2.4435
10 19 0 1.8458 1.5857
10 19 1 -4.7962 -3.6196
10 19 2 -4.8710 2.9859
10 19 3 -1.0045 2.3692
10 19 4 -5.5447 2.7953
10 19 5 1.4136 4.4896
11 0 1 -17.5421 -1.5806
11 0 2 -10.2138 11.3633
11 0 4 1.6123 -7.0053
11 0 6 4.3475 -6.4425
11 0 8 -2.6731 10.2241
11 0 9 -12.9297 -5.2620
11 0 10 -0.0923 -0.5600
11 0 11 12.8323 15.0413
11 0 12 -6.7225 -7.9646
11 0 13 3.4215 10.8191
11 0 14 -2.0534 4.9983
11 0 15 -11.3599 0.5672
11 0 16 -4.8361 3.0761
11 0 17 3.9796 10.9642
11 0 18 3.2530 -4.8139
11 0 19 5.8431 -3.8755
11 0 20 7.9580 -0.3724
11 0 21 -4.6015 -5.4151
11 1 1 14.3097 -7.7385
11 1 2 -14.6830 2.9318
11 1 5 -1.6657 -4.0411
11 1 6 -6.1278 -6.2215
11 1 7 5.0536 -17.6870
11 1 8 -14.0277 4.6521
11 1 9 9.7806 4.1411
11 1 10 1.7473 1.5963
11 1 11 -4.4086 3.7374
11 1 12 12.6519 -20.2125
11 1 13 -2.0206 0.4313
11 1 14 -4.2374 5.0943
11 1 15 0.7603 -2.1980
11 1 16 4.6966 11.8842
11 1 17 -0.2435 3.1353
11 1 18 0.2893 -5.3191
11 1 19 -0.4704 -1.3827
11 1 20 -0.8143 -2.5575
11 1 21 1.5268 -2.5583
11 2 2 -15.5011 -4.4582
11 2 3 7.4005 -2.6331
11 2 4 2.3287 -1.7645
11 2 6 7.5368 3.2216
11 2 7 -2.7812 -1.0232
11 2 8 -11.6140 -1.3219
11 2 9 -7.7813 3.7240
11 2 10 -8.0531 0.3913
11 2 11 -10.0661 -5.3924
11 2 12 4.7148 2.4767
11 2 13 1.5981 0.4171
11 2 14 3.7468 -4.0421
11 2 15 2.0556 -1.8448
11 2 16 -1.4098 -1.1310
11 2 17 2.7967 -4.8073
11 2 18 -0.2222 -7.9148
11 2 19 6.6349 -1.2812
11 2 20 5.6817 -1.9020
11 2 21 6.5313 0.5540
11 3 0 -0.1474 -20.0348
11 3 1 -3.0771 -3.9050
11 3 3 10.6774 -4.0929
11 3 4 -5.5845 2.1560
11 3 6 -3.6104 7.1588
11 3 8 -0.4763 -0.9843
11 3 9 -4.9106 4.0748
11 3 10 -1.0224 0.9738
11 3 11 -1.4471 0.9670
11 3 12 -2.1845 7.1872
11 3 13 -2.6393 0.9747
11 3 14 -2.7949 -3.6631
11 3 15 -8.2060 8.1366
11 3 16 -2.3113 -2.5310
11 3 17 -3.8557 -2.1787
11 3 18 2.0940 2.8491
11 3 19 2.2960 -1.7778
11 3 20 -5.1552 2.3525
11 3 21 5.8497 2.0618
11 4 1 12.6218 6.9992
11 4 2 3.8629 -5.1770
11 4 4 -9.4357 6.0825
11 4 6 1.1257 -10.6460
11 4 8 3.7241 5.7598
11 4 9 4.4266 -3.6569
11 4 10 7.6524 -3.0476
11 4 11 -0.9458 0.1541
11 4 12 4.8342 5.8176
11 4 13 0.2922 -4.2365
11 4 14 4.0904 -6.0698
11 4 15 5.2442 4.4733
11 4 16 2.1083 -0.9454
11 4 17 0.4281 -6.6017
11 4 18 3.0494 0.9701
11 4 19 0.4425 4.2896
11 4 20 -3.5418 -0.3320
11 5 0 -0.6805 -2.6670
11 5 1 -1.8374 9.7536
11 5 2 -2.2971 6.0889
11 5 3 -2.2412 4.8439
11 5 4 1.2440 -1.9052
11 5 5 4.0046 5.2963
11 5 6 3.7325 -2.7228
11 5 7 -1.1412 -2.7784
11 5 8 -7.7666 5.4195
11 5 9 4.9282 -5.8757
11 5 10 -0.6134 3.3586
11 5 11 1.9359 2.5848
11 5 12 4.3325 -0.6929
11 5 13 -10.4349 -5.8168
11 5 14 -3.0621 1.5845
11 5 15 -10.1049 -11.0026
11 5 16 -3.5255 2.7276
11 5 17 -2.3833 0.5060
11 5 18 -0.6667 -1.3718
11 5 19 -5.1979 3.6387
11 5 20 2.9500 -2.4785
11 6 0 -0.1063 2.6816
11 6 3 -0.5937 -7.9838
11 6 4 9.2589 2.8234
11 6 5 1.8331 -1.0693
11 6 7 -0.0691 2.2423
11 6 9 8.5881 -10.3087
11 6 10 2.2855 0.7272
11 6 11 2.4482 5.2406
11 6 12 1.9674 4.9575
11 6 13 0.3275 -0.2557
11 6 14 -1.1636 6.0783
11 6 15 -5.1058 -1.1820
11 6 16 3.0829 -0.4492
11 6 17 -0.0424 -6.3684
11 6 18 -2.7304 11.2622
11 6 19 -2.4155 -0.6737
11 6 20 2.4360 2.9410
11 7 0 -0.4998 10.0755
11 7 1 3.4941 8.7093
11 7 2 6.5502 -1.9853
11 7 3 8.1312 5.5911
11 7 4 -3.1609 6.6458
11 7 6 -5.1336 4.4576
11 7 7 -3.3240 11.7489
11 7 8 3.4605 5.4686
11 7 9 2.7694 2.4097
11 7 10 3.2110 5.6477
11 7 11 -4.5165 -1.4398
11 7 12 -0.7344 -3.2241
11 7 13 8.9428 -2.1074
11 7 14 -1.1464 -1.1844
11 7 15 2.4038 -0.0965
11 7 16 -3.4813 0.6555
11 7 17 3.4349 6.9008
11 7 18 3.1996 0.2645
11 7 19 3.5017 4.0803
11 8 1 4.4362 3.1319
11 8 2 -5.1034 8.0159
11 8 3 -0.3827 -2.2128
11 8 5 5.6240 -2.0955
11 8 7 4.4626 -2.9476
11 8 8 2.4740 0.1043
11 8 9 0.1497 -0.7524
11 8 11 2.9871 0.4020
11 8 12 -2.1153 -3.2970
11 8 13 1.9771 -0.7317
11 8 14 -2.4032 -0.7941
11 8 15 0.3866 -0.5687
11 8 16 -0.8547 -4.0530
11 8 17 0.7037 0.4976
11 8 18 -2.5511 7.0615
11 8 19 1.8126 -0.5344
11 9 0 0.1490 -5.7088
11 9 1 2.0300 -7.4461
11 9 2 -2.5110 -4.4142
11 9 3 7.3488 1.6053
11 9 4 4.2457 -0.6202
11 9 5 6.8130 -0.1949
11 9 6 4.0891 1.8657
11 9 7 2.5336 -4.2342
11 9 8 -2.0840 -6.3295
11 9 9 1.6991 -6.7876
11 9 10 -7.1489 0.1423
11 9 11 -0.6155 9.0449
11 9 12 10.2252 2.0104
11 9 13 2.2364 12.2519
11 9 14 -1.8639 -3.7168
11 9 15 -1.8451 -0.3842
11 9 16 -13.1009 4.3007
11 9 17 5.9828 4.1275
11 9 18 -2.0797 -2.7802
11 10 0 -1.7930 5.6028
11 10 1 -1.5106 4.8179
11 10 2 -0.7616 5.9185
11 10 3 -0.0844 -8.9837
11 10 4 7.4321 -0.6501
11 10 5 -1.6071 -3.7924
11 10 6 -1.9762 -3.2724
11 10 7 -3.9461 3.3986
11 10 8 -0.5881 5.8093
11 10 9 -6.2634 -6.6911
11 10 11 -2.5161 -3.7753
11 10 12 2.2609 7.3091
11 10 13 1.9915 8.8231
11 10 14 0.9306 0.3545
11 10 15 -2.2771 1.0469
11 10 16 0.4323 -3.2718
11 10 17 6.6354 3.1562
11 10 18 -2.8718 -1.5092
11 11 0 -0.6519 -12.5236
11 11 1 1.9775 -1.6032
11 11 2 2.1709 -5.9333
11 11 3 2.7787 -0.0163
11 11 4 -13.5320 0.8330
11 11 5 6.4231 -9.8769
11 11 6 3.4200 2.5522
11 11 7 -6.8300 -5.4515
11 11 8 4.0291 6.3407
11 11 9 3.0563 6.2751
11 11 10 7.0676 1.2494
11 11 11 1.4883 0.6338
11 11 12 -2.3385 -0.2402
11 11 13 0.3976 0.4014
11 11 14 1.5348 -0.6697
11 11 15 -4.6624 6.1237
11 11 16 1.6450 2.6530
11 11 17 3.4363 -5.3572
11 12 1 -4.3860 6.6194
11 12 3 0.3770 -1.5965
11 12 4 -3.2075 -2.3614
11 12 5 1.4286 -0.6012
11 12 6 -1.8284 2.5828
11 12 7 6.4321 3.7367
11 12 8 0.4518 3.6853
11 12 9 4.3811 1.4335
11 12 11 7.3510 0.5920
11 12 12 3.6779 -0.0724
11 12 13 6.2016 -4.9301
11 12 14 -3.6544 3.4753
11 12 15 4.6494 -1.1750
11 12 16 4.6083 0.9247
11 13 0 0.0614 -3.8950
11 13 1 1.8559 -5.5135
11 13 2 -2.5428 -2.9896
11 13 3 -1.3617 -2.4310
11 13 4 8.2972 -6.9288
11 13 6 5.4495 -4.3380
11 13 7 -1.5855 1.3914
11 13 8 -2.8221 10.4295
11 13 9 5.1241 -6.6303
11 13 10 -3.0658 -0.6665
11 13 11 -7.3124 4.4748
11 13 12 4.2806 -1.2818
11 13 13 -1.2025 -1.1891
11 13 14 -0.5324 1.8735
11 13 15 1.9443 -9.5650
11 14 0 0.1139 -0.7761
11 14 1 -1.6133 -6.7336
11 14 2 2.9997 1.3902
11 14 3 0.7786 -1.0992
11 14 4 -5.8487 1.0693
11 14 5 -4.7731 1.0099
11 14 6 3.1478 1.8652
11 14 7 -2.1117 -0.3055
11 14 8 -2.9644 -2.6204
11 14 9 -5.2123 4.7466
11 14 10 -0.1113 -2.4052
11 14 11 6.3583 7.4993
11 14 12 -1.6655 5.3703
11 14 13 -2.5917 3.2949
11 14 14 -1.6536 2.1733
11 15 0 0.1220 3.8651
11 15 1 8.9779 10.9055
11 15 2 -8.9272 3.8242
11 15 3 -2.7593 4.6313
11 15 4 3.1965 -0.1177
11 15 5 -0.5086 1.8902
11 15 6 1.0855 0.4682
11 15 7 -6.2200 2.5541
11 15 8 4.6909 -0.7831
11 15 9 2.9280 -2.9564
11 15 10 -3.5196 0.5703
11 15 11 5.7670 -2.0027
11 15 12 1.0584 -2.4932
11 15 13 -1.6613 3.2637
11 16 0 0.1693 0.5941
11 16 1 -4.8162 0.1213
11 16 2 5.5724 -3.1488
11 16 3 -7.1495 -5.6710
11 16 4 3.9986 6.7023
11 16 5 9.9708 -1.0967
11 16 6 -0.4537 6.8367
11 16 7 2.1117 1.1038
11 16 8 -0.1705 3.6138
11 16 9 3.1085 -2.1290
11 16 10 10.7938 -1.5816
11 16 11 -0.5516 3.4003
11 17 0 1.0254 4.8106
11 17 1 -1.9237 0.7572
11 17 2 -4.0010 2.8784
11 17 3 5.1776 -2.5725
11 17 4 -1.8930 5.9397
11 17 5 5.2813 -1.9420
11 17 6 -0.5415 -6.3650
11 17 7 -0.8131 -6.2106
11 17 8 -1.2085 -4.0805
11 17 9 -1.2913 -2.8613
11 18 0 -3.9341 -2.1757
11 18 1 3.4833 -0.2652
11 18 2 -9.2375 1.7661
11 18 3 -6.0164 1.7017
11 18 4 1.2513 3.5539
11 18 5 1.7868 2.8719
11 18 6 3.5778 -3.9916
11 18 7 5.9027 0.3821
11 19 0 -1.1781 2.5529
11 19 1 -3.1077 -0.1135
11 19 2 -5.0975 -0.3002
11 19 3 -0.2868 -0.7601
12 0 2 0.1243 3.3697
12 0 5 0.0072 4.9520
12 0 6 16.2763 -6.6700
12 0 8 -0.6184 -1.6053
12 0 9 10.8005 11.8748
12 0 11 8.5304 -6.0797
12 0 12 -5.5520 -2.4150
12 0 13 -13.4557 0.1696
12 0 14 -1.0338 -4.0695
12 0 15 0.9712 5.2348
12 0 16 0.1935 4.1878
12 0 17 8.9474 7.7646
12 0 18 -6.7737 0.3565
12 0 19 -4.4304 -3.1154
12 0 20 -0.0340 -2.8089
12 1 1 -14.2018 12.6178
12 1 2 -2.9198 7.0156
12 1 3 8.9452 0.0605
12 1 4 1.5182 -10.3001
12 1 5 7.8401 -14.6884
12 1 6 12.6925 10.2474
12 1 7 -3.4218 -7.8155
12 1 8 8.2142 6.4183
12 1 9 -3.1850 17.1536
12 1 10 3.4988 -16.4113
12 1 11 -0.5550 -0.2749
12 1 12 7.7298 3.3019
12 1 13 2.0403 -1.1190
12 1 14 -6.2416 9.7389
12 1 15 -3.0981 6.6829
12 1 16 -0.1290 -0.8135
12 1 17 4.2413 1.2163
12 1 18 1.6347 -1.1653
12 1 19 -0.0564 -10.5726
12 1 20 -2.2576 0.2121
12 2 4 6.3571 -3.2113
12 2 5 8.0679 1.9638
12 2 6 -0.5725 -1.5635
12 2 8 -5.3287 -9.0073
12 2 9 -4.0796 -1.1015
12 2 10 3.7554 -8.6419
12 2 11 -5.6976 -1.4616
12 2 12 4.4190 6.0298
12 2 14 -4.6995 1.6751
12 2 15 0.1999 0.4977
12 2 16 1.5309 3.8350
12 2 17 -3.4185 8.2846
12 2 18 4.9988 -0.7934
12 2 19 3.8734 -2.4782
12 2 20 3.6751 8.1412
12 3 1 2.0784 -0.2717
12 3 3 -7.1423 -7.3112
12 3 4 6.4983 3.8056
12 3 5 0.1895 -4.6825
12 3 7 2.0426 0.6452
12 3 9 -5.3486 -3.7392
12 3 10 1.9797 2.2547
12 3 11 0.9721 -3.1120
12 3 12 9.5105 2.3927
12 3 13 1.4330 -1.5421
12 3 14 2.7201 -3.5873
12 3 15 2.4165 -0.3780
12 3 16 2.4974 0.7392
12 3 17 3.4875 -0.9407
12 3 18 3.3221 -2.8683
12 3 19 2.1685 -2.1931
12 3 20 2.3903 -2.4001
12 4 0 4.4933 1.3939
12 4 1 -1.0853 -6.7261
12 4 2 3.8152 1.2542
12 4 4 5.8037 -0.2007
12 4 5 0.1297 2.6814
12 4 7 -5.1051 -3.4231
12 4 8 -5.6544 8.0190
12 4 9 -9.9267 -2.2440
12 4 11 1.6919 5.5266
12 4 12 -2.8569 -4.8056
12 4 13 6.8927 0.4309
12 4 14 0.3519 -1.2868
12 4 15 0.5724 5.2750
12 4 16 -2.2222 4.4135
12 4 17 -4.4773 -2.6127
12 4 18 -1.8367 -3.8328
12 4 19 4.0741 4.8011
12 4 20 -2.0353 -0.3488
12 5 0 30.9770 1.1122
12 5 2 -4.4268 -5.9666
12 5 3 -0.1392 -0.2638
12 5 5 10.3862 -8.1814
12 5 6 8.2658 4.1626
12 5 7 0.7080 2.0195
12 5 8 8.1429 0.2992
12 5 9 -10.6922 2.8058
12 5 10 1.0496 -4.2921
12 5 11 0.4965 7.2404
12 5 12 -3.8365 0.8796
12 5 13 -4.9646 -2.2478
12 5 14 5.0200 1.0691
12 5 15 -2.6865 -1.9965
12 5 16 -1.2748 -4.6665
12 5 17 2.1154 -2.2204
12 5 18 -1.3174 -7.1316
12 5 19 6.1324 3.1934
12 6 1 -2.6663 1.7528
12 6 3 -1.8224 -5.1504
12 6 4 3.6313 4.3191
12 6 7 0.3348 3.5053
12 6 9 6.0632 4.3020
12 6 11 5.5622 -2.5357
12 6 12 -0.4600 -0.3487
12 6 13 -5.7246 -2.2363
12 6 14 -4.3137 0.8046
12 6 15 -3.1699 5.9481
12 6 16 1.6831 -0.4638
12 6 17 1.5298 -3.7679
12 6 18 -2.0771 1.7327
12 6 19 -0.5863 -1.2955
12 7 0 -1.6367 -1.1873
12 7 1 -9.5287 -5.3329
12 7 3 -2.9491 -5.4464
12 7 4 1.6362 2.2004
12 7 5 5.1290 3.8651
12 7 6 -3.8596 -5.1361
12 7 7 -3.4368 -0.8785
12 7 9 1.9349 1.6822
12 7 10 7.8275 1.5312
12 7 11 5.8827 3.1284
12 7 12 3.3302 -4.7612
12 7 13 6.0848 -4.2366
12 7 14 -1.8182 -4.4576
12 7 15 0.4324 -8.2480
12 7 16 -0.6672 -0.0798
12 7 17 -0.2965 -0.9134
12 7 18 0.2863 0.5716
12 7 19 -6.4484 1.5359
12 8 0 -1.6814 0.3513
12 8 1 0.9320 -2.6784
12 8 2 -3.3100 -2.2546
12 8 3 -4.7858 -2.7752
12 8 4 0.9097 -1.0420
12 8 5 2.5982 -3.1029
12 8 6 14.1981 3.0223
12 8 7 -1.8665 5.0777
12 8 8 9.2044 -3.0726
12 8 9 -4.7721 -6.2949
12 8 10 -6.6633 -2.8661
12 8 11 0.9713 2.1451
12 8 12 -3.5364 -8.1767
12 8 13 4.2783 -2.3318
12 8 14 1.7286 -7.1211
12 8 15 -6.1439 3.5758
12 8 16 3.7211 4.3644
12 8 17 -4.6213 2.1486
12 8 18 -4.8851 3.8331
12 9 0 -5.6095 -0.4692
12 9 1 2.8683 7.5601
12 9 2 0.4759 7.3635
12 9 3 -6.3526 -0.0717
12 9 4 2.9938 8.8608
12 9 5 5.8849 -5.2511
12 9 6 1.5993 0.1641
12 9 7 0.1317 0.9498
12 9 8 4.0366 2.2168
12 9 9 -2.7200 1.1320
12 9 10 -6.1977 -3.8103
12 9 11 -3.8485 5.6115
12 9 12 1.0128 1.2672
12 9 13 4.0085 -2.8632
12 9 14 3.6054 1.5950
12 9 15 -0.6548 5.1508
12 9 16 1.3326 2.7230
12 9 17 -10.9105 -3.1983
12 9 18 2.4961 9.2884
12 10 1 5.1313 2.0969
12 10 2 4.1226 -0.2254
12 10 3 8.0409 -2.7723
12 10 4 4.7261 -3.1009
12 10 5 3.9591 -5.2170
12 10 6 -4.5018 -8.1335
12 10 7 1.7401 -3.5650
12 10 8 2.2866 -2.5545
12 10 9 1.9469 -4.4218
12 10 11 7.1914 -0.0889
12 10 12 0.3338 1.4571
12 10 13 3.5245 1.4314
12 10 14 -6.7383 -3.0837
12 10 15 5.6472 7.2982
12 10 16 4.4415 3.2351
12 10 17 -6.5032 -0.6208
12 11 1 4.5926 -3.0846
12 11 2 -1.1558 4.9984
12 11 3 -9.1640 0.1638
12 11 4 -1.8094 -9.8007
12 11 5 -8.2566 -3.8128
12 11 6 -0.4488 -5.4890
12 11 7 -0.5046 -3.9020
12 11 8 -0.0781 0.7613
12 11 9 -4.9362 -1.8815
12 11 10 0.4364 -2.3164
12 11 11 2.5342 3.9028
12 11 12 5.0881 -3.8596
12 11 13 -4.7520 6.4827
12 11 14 -0.9633 2.9707
12 11 15 -5.0110 1.1046
12 11 16 -4.3475 -4.2755
12 12 0 2.8254 -0.3907
12 12 1 3.6816 -2.8025
12 12 2 -7.8777 2.1897
12 12 3 -1.0478 -3.9927
12 12 4 3.7356 -4.0404
12 12 5 -1.2931 -4.2535
12 12 6 7.0510 -4.1809
12 12 7 -3.6221 2.0660
12 12 8 2.6650 0.2718
12 12 9 3.9869 -6.7951
12 12 10 -4.3573 -1.7805
12 12 11 -1.7455 3.8375
12 12 12 4.6834 7.3632
12 12 13 -1.8182 -0.9916
12 12 14 4.2340 2.1532
12 12 15 -2.4190 7.0371
12 13 0 6.8792 -0.3142
12 13 1 -3.1669 -0.2869
12 13 3 7.5768 -6.4499
12 13 4 -2.8365 -4.2634
12 13 5 5.7901 5.4408
12 13 6 -1.4197 -0.4146
12 13 7 -2.2916 2.2784
12 13 8 -8.3049 8.5790
12 13 9 3.5580 -7.0327
12 13 10 2.4572 5.1383
12 13 11 0.8290 -3.4446
12 13 12 -0.1036 9.5300
12 13 13 3.7711 0.5249
12 13 14 3.4525 5.5669
12 14 0 10.8630 -0.0196
12 14 1 -8.0115 -4.3273
12 14 2 2.8755 -0.8811
12 14 3 -4.4447 2.8217
12 14 4 3.6616 -4.0667
12 14 5 -2.2208 -3.3312
12 14 6 -3.3719 -7.1521
12 14 8 -1.0474 1.0179
12 14 9 -3.0135 2.1298
12 14 10 5.9224 0.3680
12 14 11 6.5824 3.1557
12 14 12 -1.0562 -0.3724
12 14 13 6.3092 -2.6595
12 15 0 -9.4937 1.3690
12 15 1 1.2689 1.0810
12 15 2 -1.7039 -7.6179
12 15 3 -2.9659 0.0863
12 15 4 1.9987 7.0725
12 15 5 -4.0910 6.4904
12 15 6 2.3294 3.0953
12 15 7 -8.9904 0.9813
12 15 8 -0.6204 -3.0299
12 15 9 1.3699 2.0625
12 15 10 0.8511 -0.4783
12 15 11 0.3749 -0.5004
12 15 12 4.8864 4.3711
12 16 0 -0.7944 -0.3806
12 16 1 -6.1980 -2.5414
12 16 2 5.2948 8.8219
12 16 3 -3.2014 -2.6250
12 16 4 -0.9878 1.5170
12 16 5 -4.5320 -0.1650
12 16 6 1.6132 1.7069
12 16 7 0.5451 -0.9617
12 16 8 -0.7804 -6.8222
12 16 9 -0.1677 -5.6782
12 16 10 -2.2320 -2.9877
12 17 0 5.1706 -0.6121
12 17 1 -1.6969 -0.6610
12 17 2 -3.9237 0.1795
12 17 3 3.6794 2.3238
12 17 4 0.6647 4.1333
12 17 5 7.7900 -2.7464
12 17 6 5.5559 0.3358
12 17 7 -2.2428 -3.6601
12 17 8 0.9370 4.1545
12 18 0 -7.9899 0.1389
12 18 1 3.7809 0.3084
12 18 2 -1.1227 1.7091
12 18 3 -7.3886 8.9256
12 18 4 4.7542 -1.4922
12 18 5 2.6840 2.9693
13 0 1 4.4298 8.9313
13 0 4 -14.8691 -12.9917
13 0 5 -4.8310 -6.1783
13 0 6 -8.1663 -11.3461
13 0 7 1.5478 6.2515
13 0 8 -10.3365 18.1666
13 0 9 3.8220 -5.2556
13 0 10 -6.0602 -0.5531
13 0 11 -3.0526 2.2236
13 0 12 12.1082 -13.6904
13 0 13 -0.9000 10.9919
13 0 14 1.1495 8.5853
13 0 15 2.7803 0.8024
13 0 16 3.9893 5.2947
13 0 17 -0.1720 -0.5519
13 0 18 4.3397 -7.6912
13 0 19 -1.9681 -9.0125
13 1 1 3.9161 7.2490
13 1 2 -4.8294 -7.2608
13 1 3 3.0694 1.8857
13 1 4 13.1267 1.6303
13 1 5 -14.2146 11.3315
13 1 6 -16.1285 -4.6253
13 1 7 -8.3730 10.2489
13 1 8 -12.0919 -3.5731
13 1 9 -0.0979 -3.6689
13 1 10 3.5642 -0.0861
13 1 11 -10.1342 -7.4379
13 1 12 -2.1869 -3.3670
13 1 13 -7.1298 -0.8400
13 1 14 -10.7032 -1.4882
13 1 15 9.4362 -0.5112
13 1 16 2.9348 -0.0690
13 1 17 3.3726 -1.0229
13 1 18 -1.0814 0.0561
13 1 19 -6.4301 -4.6295
13 2 1 -0.0794 0.2197
13 2 2 2.7398 -8.6101
13 2 6 1.3276 6.3176
13 2 7 0.4788 -3.3647
13 2 8 2.5102 0.6629
13 2 9 -0.0841 5.2621
13 2 10 -5.6857 9.0399
13 2 11 2.0999 5.8094
13 2 12 -1.8435 5.8964
13 2 13 -3.8342 -4.1561
13 2 14 -5.8054 -6.7065
13 2 15 -1.8721 0.4158
13 2 16 -2.0883 2.8408
13 2 17 -2.5069 -0.0762
13 2 18 -0.0863 -1.0988
13 2 19 -1.5342 -1.6375
13 3 0 -0.4343 -1.2896
13 3 1 -13.9000 -3.3705
13 3 2 -0.1994 -3.5337
13 3 3 8.4520 -2.4166
13 3 4 -4.3846 5.5712
13 3 5 8.0453 1.0832
13 3 6 -2.3157 -8.5328
13 3 7 0.7501 8.3827
13 3 8 -1.3715 1.0627
13 3 9 -2.4078 7.4306
13 3 10 12.4201 10.9701
13 3 11 9.5572 1.9824
13 3 12 1.3440 4.2595
13 3 13 3.1722 5.3696
13 3 14 -0.6617 2.0829
13 3 15 0.5265 3.9068
13 3 16 3.6927 0.0997
13 3 17 0.6278 -0.1243
13 3 18 -8.7211 2.3103
13 3 19 -1.4726 1.5949
13 4 1 4.0039 -4.4091
13 4 2 -4.3084 -2.4786
13 4 4 4.9972 1.9275
13 4 5 -3.6130 4.5591
13 4 6 -3.0543 -2.1935
13 4 8 1.3308 -5.9968
13 4 9 1.5078 -3.0313
13 4 10 -2.2007 1.8416
13 4 11 1.8163 -4.7389
13 4 12 -5.0824 2.5597
13 4 13 -0.9545 -1.2331
13 4 14 -0.8795 -2.6292
13 4 15 -4.4653 4.2593
13 4 16 3.1643 -0.1325
13 4 17 -0.8180 0.8056
13 4 18 0.3401 3.3860
13 4 19 0.2959 -3.2582
13 5 1 -0.4046 1.2540
13 5 4 0.7710 4.0037
13 5 5 7.2894 -1.4056
13 5 6 -6.2705 3.3314
13 5 7 -5.7884 9.4427
13 5 9 2.1746 1.0442
13 5 10 1.1156 -1.0103
13 5 11 1.8581 -0.0162
13 5 12 -2.0734 -3.6467
13 5 13 -1.1659 -2.1518
13 5 14 1.1455 3.0798
13 5 15 2.7306 0.7452
13 5 16 -1.4406 3.6341
13 5 17 -5.9711 3.3669
13 5 18 -1.3748 4.4246
13 5 19 0.0759 -0.1197
13 6 0 0.0611 -2.5406
13 6 1 -1.3792 -1.1025
13 6 3 4.7139 -1.8194
13 6 8 -11.6918 -4.6716
13 6 9 -3.2163 4.9579
13 6 10 -2.5395 -1.6035
13 6 11 1.2743 -4.8597
13 6 12 -4.9844 2.1065
13 6 13 4.2789 9.9101
13 6 14 -2.7427 -0.8882
13 6 15 8.4202 0.4319
13 6 16 0.6002 0.8948
13 6 17 3.8513 -3.4940
13 6 18 1.7499 -3.3948
13 7 0 -1.3578 3.5105
13 7 1 2.0767 -5.3473
13 7 2 9.7426 2.0404
13 7 3 3.4904 -3.4564
13 7 4 -2.2737 -2.1215
13 7 5 5.6111 -2.5778
13 7 6 -4.6320 -1.7068
13 7 7 5.4878 2.8168
13 7 8 7.2285 1.0450
13 7 9 -2.5691 1.7364
13 7 10 2.0097 9.6603
13 7 11 1.7768 -1.2907
13 7 12 -0.8410 0.3338
13 7 13 1.5225 -3.0879
13 7 14 -3.4275 1.0612
13 7 15 3.0037 -1.5260
13 7 16 1.4664 -6.2677
13 7 17 0.4998 9.2859
13 7 18 7.0453 -1.4784
13 8 1 3.4680 2.7222
13 8 2 1.0340 -1.2454
13 8 3 -6.3292 3.0392
13 8 4 -10.3845 -5.6256
13 8 5 -0.5779 -6.7964
13 8 6 -2.5283 -1.8209
13 8 7 0.9615 -0.7638
13 8 8 -2.7750 -7.6849
13 8 9 7.8136 0.7290
13 8 10 -2.6320 -1.5270
13 8 11 2.0966 2.0128
13 8 12 6.9488 0.6282
13 8 13 2.4483 6.3499
13 8 14 0.8053 -6.5248
13 8 15 4.3759 -1.8502
13 8 16 -1.9341 -1.9794
13 8 17 -1.7125 5.0356
13 9 0 -0.5570 -1.0306
13 9 1 -5.5982 2.2606
13 9 2 0.6953 0.7280
13 9 3 -3.6570 6.7292
13 9 4 4.1025 -6.3987
13 9 5 0.5038 2.6697
13 9 6 -4.3400 0.8398
13 9 7 0.8243 4.0570
13 9 8 -3.7679 -6.8726
13 9 9 -7.6623 2.4304
13 9 10 3.8087 1.1317
13 9 11 4.5899 -1.5418
13 9 12 1.0243 -6.2089
13 9 13 3.5416 -2.9036
13 9 14 6.5949 3.8156
13 9 15 3.7746 -0.7908
13 9 16 -0.0497 1.6248
13 9 17 4.2524 4.4348
13 10 0 0.4487 -0.2238
13 10 1 2.9296 -3.8884
13 10 3 -1.1318 -1.9750
13 10 4 2.4554 -10.4897
13 10 5 3.8097 -5.4898
13 10 6 4.6896 0.8958
13 10 7 -1.1394 0.4382
13 10 9 -4.3106 7.2998
13 10 10 -4.2932 7.4472
13 10 11 10.0886 -0.2199
13 10 13 -5.2730 -4.8501
13 10 14 9.0574 -3.8633
13 10 15 -6.1822 2.6327
13 10 16 -4.0819 7.0229
13 11 0 0.2062 1.5095
13 11 1 -9.7461 3.0488
13 11 2 -4.7126 1.2113
13 11 3 0.9203 -5.0813
13 11 4 -10.5442 -6.2218
13 11 5 0.5902 1.6247
13 11 6 0.8415 2.5815
13 11 7 5.7142 -2.2671
13 11 8 4.7484 -5.4784
13 11 9 2.0612 -2.0828
13 11 10 -4.3289 -4.8287
13 11 11 4.3544 -0.9481
13 11 12 3.0732 1.4367
13 11 13 2.5220 4.0218
13 11 14 -0.0663 5.0821
13 11 15 6.9130 -8.2884
13 12 0 -0.0612 -3.9598
13 12 1 2.0181 3.5601
13 12 2 2.1145 2.8451
13 12 3 -10.4678 -0.0115
13 12 4 8.7747 -7.8976
13 12 5 0.1816 0.7087
13 12 6 -5.2780 0.6673
13 12 7 -1.1933 9.4132
13 12 8 2.2752 0.8353
13 12 9 -1.6647 9.4408
13 12 10 1.7108 -1.2228
13 12 11 1.8114 1.4091
13 12 12 -4.1704 -4.5148
13 12 13 3.5694 -1.8694
13 12 14 -1.3519 3.2032
13 13 0 0.6216 4.3871
13 13 1 -0.9389 2.4393
13 13 2 -1.6741 0.4832
13 13 3 1.2148 -3.8771
13 13 4 2.5859 -1.9664
13 13 5 7.0166 -6.5294
13 13 6 1.7169 -1.8144
13 13 7 1.3408 -1.6078
13 13 8 -0.0786 0.4229
13 13 9 -8.1539 2.8343
13 13 10 1.8930 -1.7678
13 13 11 4.2717 -0.7893
13 13 12 0.0775 -0.4834
13 13 13 -3.4403 1.3439
13 14 0 0.0480 3.3496
13 14 1 -0.2471 1.6346
13 14 2 -5.9872 -4.2137
13 14 3 4.8094 -5.2501
13 14 4 1.9716 2.7399
13 14 5 -4.3803 7.1933
13 14 6 -2.0713 12.0747
13 14 7 -1.4619 4.8651
13 14 8 -0.0914 -0.8513
13 14 9 -7.6352 -2.0214
13 14 10 4.1849 -0.9657
13 14 11 1.6750 1.8159
13 14 12 0.8794 -3.1929
13 15 0 0.1797 4.4922
13 15 1 2.2341 1.4053
13 15 2 -0.5189 0.8391
13 15 3 -7.3068 3.8782
13 15 4 -2.9395 -2.5623
13 15 5 -5.7583 -1.7228
13 15 6 -4.6261 -0.6675
13 15 7 0.1614 -1.2804
13 15 8 1.9192 0.3902
13 15 9 1.5783 -5.6220
13 15 10 -1.7530 -4.1037
13 16 0 -0.4368 8.3506
13 16 1 -0.4754 -6.0014
13 16 2 -2.5742 2.5567
13 16 3 1.1792 6.1772
13 16 4 -0.0192 4.3199
13 16 5 1.8313 -1.0483
13 16 6 1.0324 -7.5327
13 16 7 -6.6835 -4.6785
13 16 8 -2.7816 1.8773
13 17 0 2.6928 -4.5504
13 17 1 0.2810 -2.0892
13 17 2 -6.5434 -1.4243
13 17 3 4.4356 5.3292
13 17 4 -0.2400 2.6547
13 17 5 0.5193 2.5636
13 17 6 -5.8733 1.0727
13 18 0 -0.2686 -5.4980
13 18 1 4.4351 5.0563
14 0 2 0.7833 -5.8476
14 0 3 13.4952 -0.4106
14 0 4 -1.1473 -13.3413
14 0 6 -4.2791 12.6922
14 0 7 -11.4789 -6.0348
14 0 8 5.9427 4.2061
14 0 9 6.7697 4.6209
14 0 10 4.4541 -12.9308
14 0 11 5.3390 2.6195
14 0 12 9.1691 4.1209
14 0 13 -8.5193 1.2244
14 0 14 -1.5872 7.2587
14 0 15 0.8842 2.3766
14 0 16 5.6446 -6.4169
14 0 17 5.3701 8.7023
14 0 18 0.4547 -2.7323
14 0 19 -2.5606 8.4607
14 1 1 3.8942 17.2721
14 1 2 1.6309 -6.1399
14 1 3 -13.5938 5.2583
14 1 4 -6.6695 -7.4460
14 1 5 2.4674 -8.5780
14 1 6 -6.5890 3.8340
14 1 7 9.3771 -6.6595
14 1 8 8.4944 2.1512
14 1 9 -3.6691 -1.4304
14 1 10 -2.9118 -13.1429
14 1 11 -5.6708 -6.1424
14 1 12 -1.7121 8.7718
14 1 13 9.0767 -5.2739
14 1 14 2.6668 11.0710
14 1 15 -1.8991 2.9734
14 1 16 6.6012 -0.1955
14 1 17 -0.6405 0.3605
14 1 18 -1.9580 -0.9318
14 2 0 -1.8664 -0.1959
14 2 1 -5.6006 15.2097
14 2 2 3.7088 -6.6803
14 2 3 -6.9597 -1.0209
14 2 4 7.6130 -3.0934
14 2 5 1.1369 -7.5361
14 2 6 -3.3589 2.5754
14 2 7 -1.0884 -0.1218
14 2 9 -5.7919 6.0025
14 2 10 7.8601 4.5491
14 2 11 5.0193 -1.7174
14 2 12 6.2494 4.3907
14 2 13 1.3182 -2.7040
14 2 14 4.5149 2.2556
14 2 15 1.3919 -0.2375
14 2 16 1.8657 2.4767
14 2 17 2.1254 -6.5815
14 2 18 -0.0024 -0.5904
14 3 0 15.1411 -0.5345
14 3 1 -6.6481 -8.5154
14 3 4 -1.8264 4.8927
14 3 5 -3.9007 -5.5632
14 3 6 -5.5614 -4.0978
14 3 7 -8.8077 -0.8009
14 3 8 6.0807 -0.4093
14 3 9 1.3112 -6.0139
14 3 10 -2.8289 3.1101
14 3 11 3.5210 1.2857
14 3 12 -4.0963 -6.7434
14 3 13 1.5619 -2.8809
14 3 14 -3.4303 -3.7904
14 3 15 2.6342 -1.9397
14 3 16 7.4531 1.1565
14 3 17 1.4457 -1.5496
14 3 18 4.5710 -2.7897
14 4 0 -0.4228 -1.5795
14 4 1 -1.7526 -1.9407
14 4 5 1.1660 -0.4796
14 4 6 -0.3343 9.1764
14 4 7 5.5990 13.8099
14 4 9 7.1398 5.2829
14 4 10 3.8673 7.6055
14 4 11 4.6276 -2.2074
14 4 12 0.1037 1.6688
14 4 13 4.7998 -5.6649
14 4 14 -0.6481 -4.3049
14 4 15 -1.2531 -6.3917
14 4 16 1.2768 -5.7922
14 4 17 -3.3342 -2.7083
14 4 18 -5.0679 5.7014
14 5 1 -9.7573 3.4145
14 5 2 -1.7545 -2.2270
14 5 3 -7.0497 0.2854
14 5 4 6.6820 -0.9621
14 5 5 -4.8998 3.3771
14 5 6 -1.0370 2.0347
14 5 7 -5.2555 -3.0758
14 5 8 5.4054 -4.7050
14 5 9 -3.2881 4.2419
14 5 10 -1.9131 1.6274
14 5 11 1.0602 -3.8958
14 5 12 2.2476 2.9164
14 5 13 -5.9293 3.3127
14 5 14 -2.0555 2.2850
14 5 15 -2.5751 -1.2811
14 5 16 -4.0394 -3.1288
14 5 17 2.9620 -2.6926
14 5 18 -7.0800 -4.7270
14 6 0 -5.1966 0.2856
14 6 1 1.2119 0.9543
14 6 2 8.5634 -1.8367
14 6 3 0.6556 2.1675
14 6 4 1.5386 8.9178
14 6 5 -5.6594 -2.0609
14 6 6 -10.8562 6.1471
14 6 7 0.9325 -4.9672
14 6 8 -3.9472 -5.3198
14 6 9 5.0774 -4.6990
14 6 10 -0.6970 -2.0683
14 6 11 -2.8005 3.2762
14 6 12 -1.7766 -2.6834
14 6 13 1.4521 -3.8973
14 6 14 -1.1547 -1.6554
14 6 15 0.6231 -6.1556
14 6 16 -2.2261 3.8408
14 6 17 -3.2576 -0.4536
14 7 0 -1.8340 -1.5019
14 7 1 4.7877 0.1761
14 7 2 3.0889 -4.0183
14 7 3 4.1155 7.5304
14 7 4 -7.7883 3.3460
14 7 5 -5.2352 -2.0430
14 7 6 -5.7252 0.2522
14 7 8 4.5715 7.4514
14 7 9 0.2022 -0.5331
14 7 10 1.6184 -1.1690
14 7 11 3.3268 0.8215
14 7 12 -5.3878 3.4335
14 7 13 5.1915 -3.6531
14 7 14 1.5893 -0.5698
14 7 15 -0.2884 -2.8043
14 7 16 4.7904 -1.9879
14 7 17 -0.9508 -0.0102
14 8 0 -0.5319 -1.5113
14 8 1 4.2982 1.8709
14 8 3 -3.2636 3.1901
14 8 4 -0.4575 1.6145
14 8 5 -6.0369 -10.7937
14 8 6 -0.4314 6.5612
14 8 7 4.0185 -1.9062
14 8 9 3.8935 -0.0029
14 8 10 -2.2440 4.8137
14 8 11 2.5367 -0.0215
14 8 12 2.3077 -3.9850
14 8 13 -3.2233 3.0501
14 8 14 2.4663 -6.8915
14 8 15 -2.8366 3.0240
14 8 16 3.8305 -1.0208
14 9 0 4.5544 0.3145
14 9 1 5.4316 4.9802
14 9 2 -5.8029 0.7922
14 9 3 6.1925 1.2030
14 9 4 -3.6759 -5.0882
14 9 5 8.0721 -3.4775
14 9 6 4.8098 -4.9197
14 9 7 4.3953 -5.4212
14 9 8 -5.8787 1.4850
14 9 9 4.6461 -1.5065
14 9 10 7.6100 7.8150
14 9 11 -0.6492 0.9057
14 9 12 4.8496 -3.2082
14 9 13 9.5393 1.2763
14 9 14 -4.1636 -2.9294
14 9 15 -1.0902 1.2084
14 9 16 1.1864 2.3050
14 10 0 3.8677 0.0310
14 10 1 2.2491 4.5174
14 10 2 4.7152 -1.3098
14 10 3 -4.3534 0.0377
14 10 4 -7.5698 -5.8705
14 10 5 -3.5556 -4.4835
14 10 6 1.6415 3.2141
14 10 7 -1.4948 -9.7415
14 10 8 -7.4262 -2.7490
14 10 9 -2.2505 -4.6864
14 10 10 1.9519 -1.3499
14 10 11 0.0558 -3.9691
14 10 12 1.6035 2.5526
14 10 13 -1.7116 -3.3437
14 10 14 3.8350 -2.1577
14 10 15 -0.1847 1.2095
14 11 0 7.7240 0.9004
14 11 1 0.7180 -3.5117
14 11 2 0.0353 -0.0095
14 11 3 -2.6708 -4.1863
14 11 4 -8.7647 -2.1698
14 11 5 -3.8478 -0.6754
14 11 6 -6.7124 4.7967
14 11 7 -4.4863 8.3697
14 11 8 -4.8955 7.7365
14 11 9 5.4716 7.2711
14 11 10 -5.7555 11.5403
14 11 11 -8.7913 2.3613
14 11 12 7.5815 6.5903
14 11 13 -2.8986 1.2619
14 11 14 -2.4270 1.2073
14 12 0 0.2525 0.6318
14 12 1 -1.5520 3.5833
14 12 2 -4.3844 -0.5236
14 12 3 -0.6758 -5.8351
14 12 4 8.1509 -4.2839
14 12 5 9.1580 -1.5532
14 12 6 -0.2875 -2.6924
14 12 7 -0.2384 5.5682
14 12 8 -1.9096 -5.2903
14 12 9 4.0001 7.8138
14 12 10 4.8273 2.1334
14 12 11 -1.9656 -3.2847
14 12 12 0.7733 4.7101
14 12 13 4.0786 -0.1832
14 13 0 -0.0822 -0.7349
14 13 1 -4.5583 -4.4345
14 13 2 0.5708 -3.8843
14 13 3 -5.1331 -4.6078
14 13 4 -1.0607 -2.1598
14 13 5 -1.1362 12.2937
14 13 6 -5.0038 3.0096
14 13 7 1.9529 9.5263
14 13 8 -4.3607 -0.6893
14 13 9 5.1640 1.5977
14 13 10 -1.8189 -2.6303
14 13 11 4.4994 -0.9002
14 13 12 1.2057 -0.1211
14 14 0 2.9490 -0.4005
14 14 1 3.4029 1.5745
14 14 2 3.9160 2.3373
14 14 3 4.1635 0.6711
14 14 4 0.0923 7.4388
14 14 5 -9.3555 2.6839
14 14 6 -0.8507 4.3455
14 14 7 -3.4122 1.8755
14 14 8 3.0505 1.1739
14 14 9 1.2994 0.9036
14 14 10 -2.5840 -4.1620
14 14 11 -5.4088 1.4427
14 15 0 -11.4059 0.8462
14 15 1 -2.4897 -1.0301
14 15 2 -3.4355 -1.2208
14 15 3 2.4441 1.2974
14 15 4 1.2795 6.3793
14 15 5 7.5169 1.2183
14 15 6 4.4651 7.7759
14 15 7 -1.4792 -1.2927
14 15 8 -2.7120 -4.0251
14 15 9 -1.6827 0.9652
14 16 0 -8.1665 0.8085
14 16 1 -2.1894 -1.5274
14 16 2 -2.8009 -2.7261
14 16 3 2.8128 5.5429
14 16 4 -4.1353 -1.7684
14 16 5 -4.3345 -4.9668
14 16 6 -0.9761 3.1913
14 16 7 1.5041 0.9865
14 17 0 0.1859 -3.0361
14 17 1 4.7993 1.3123
14 17 2 2.6072 5.3604
14 17 3 2.4402 1.3326
15 0 3 4.3763 13.0278
15 0 4 -4.4720 -1.0547
15 0 5 -18.6765 8.3559
15 0 6 1.1802 -0.6472
15 0 8 4.0582 1.3506
15 0 9 13.2898 2.9494
15 0 10 -3.3021 -0.0164
15 0 11 -12.4818 -6.2117
15 0 12 3.1102 -0.7103
15 0 13 -3.2906 -1.7444
15 0 14 0.2981 1.1163
15 0 15 10.8095 1.6428
15 0 16 -1.9496 0.0720
15 0 17 -2.3846 -0.6321
15 0 18 -5.8392 -0.1792
15 1 0 -0.0948 -0.5285
15 1 1 2.7869 -2.7993
15 1 2 5.1616 1.1119
15 1 3 -3.0082 -11.2188
15 1 4 12.3070 5.0880
15 1 6 8.4237 11.0298
15 1 7 -3.6034 9.2801
15 1 8 -0.5636 -8.1804
15 1 9 -0.9758 1.6275
15 1 10 -3.8615 9.1572
15 1 11 0.7800 -8.3792
15 1 12 -4.6927 7.3091
15 1 13 0.0438 14.9702
15 1 14 -2.3702 -7.2808
15 1 15 -2.7552 6.8403
15 1 16 -1.5828 -4.9812
15 1 17 -0.3980 -2.7368
15 1 18 -3.6868 5.4179
15 2 0 -2.0575 1.0753
15 2 2 -4.4123 2.1099
15 2 3 5.0141 0.3613
15 2 4 3.1328 4.5296
15 2 6 -8.2324 -5.7168
15 2 7 5.9695 0.0649
15 2 8 -1.7957 -7.4824
15 2 9 6.7070 -6.3089
15 2 10 7.1879 3.1214
15 2 11 5.3408 -5.5479
15 2 12 3.6165 2.1601
15 2 13 -1.6511 1.1056
15 2 14 -3.1212 3.8435
15 2 15 -2.5950 4.9821
15 2 16 4.8019 -2.2488
15 2 17 1.6699 -1.4928
15 3 0 -0.2515 3.0452
15 3 1 -1.7207 3.2548
15 3 2 -7.5196 1.8196
15 3 3 0.7864 -2.2573
15 3 4 -0.6821 -12.2134
15 3 5 -4.7399 6.2543
15 3 6 10.9444 -8.8248
15 3 7 -1.6533 5.3818
15 3 8 0.8276 4.1732
15 3 9 -1.3177 5.9118
15 3 10 8.3522 -4.5251
15 3 11 4.6112 -1.2860
15 3 12 4.9753 -10.2632
15 3 13 5.6956 -3.1508
15 3 14 -4.0828 5.2419
15 3 15 -2.1549 4.6701
15 3 16 2.7461 -0.9172
15 3 17 -3.7341 0.9482
15 4 3 3.7797 6.4665
15 4 4 -3.2463 1.2463
15 4 7 9.1681 -3.1658
15 4 8 -3.3248 3.1668
15 4 9 -6.8013 1.5801
15 4 10 -1.4682 3.7861
15 4 11 -4.3729 2.3706
15 4 12 -3.7496 2.3797
15 4 13 4.1237 3.6331
15 4 14 2.1939 -0.8029
15 4 15 -3.2401 -3.7804
15 4 16 0.0589 0.5799
15 4 17 -4.5997 4.3263
15 5 0 0.0821 -3.1776
15 5 1 3.6236 -3.0968
15 5 2 -3.2699 -1.5431
15 5 3 11.6357 -5.7110
15 5 4 -0.1435 -1.1123
15 5 5 3.2252 7.2681
15 5 6 0.9637 0.3758
15 5 7 -5.2283 -1.8883
15 5 8 -0.4034 1.9516
15 5 9 4.0483 -2.3596
15 5 10 1.0180 -5.0257
15 5 11 1.4300 -2.4391
15 5 12 6.0869 -7.4075
15 5 13 -1.8589 2.6427
15 5 14 -0.4366 -0.0734
15 5 15 2.4655 -5.5505
15 5 16 -2.5654 -3.3786
15 5 17 -0.9451 1.9524
15 6 1 4.0230 -5.3221
15 6 2 -0.9094 0.5316
15 6 3 2.1642 -3.1297
15 6 4 -1.8367 0.4460
15 6 5 -2.7702 3.6574
15 6 6 1.7393 7.6779
15 6 7 -4.7279 2.2314
15 6 8 -4.9856 -1.8891
15 6 9 1.3875 0.6997
15 6 10 -2.9563 6.9761
15 6 11 1.0123 -1.5078
15 6 12 2.1682 5.3267
15 6 13 2.1235 2.5167
15 6 14 -2.0491 -2.3689
15 6 15 0.7234 1.1942
15 6 16 -4.2269 -2.4102
15 7 0 -0.3571 -8.9358
15 7 1 1.6490 -1.9570
15 7 2 -1.5077 4.6083
15 7 3 0.4132 -0.3422
15 7 4 -11.3640 -6.4074
15 7 6 -5.1662 -0.7006
15 7 7 -0.6655 0.3859
15 7 8 2.1125 2.6470
15 7 9 1.1748 -2.6958
15 7 10 7.1787 6.3038
15 7 11 1.1627 -3.9780
15 7 12 3.4495 -0.6799
15 7 13 0.6689 4.0681
15 7 14 1.8175 -6.3146
15 7 15 2.7616 -4.8291
15 7 16 -3.1046 -0.3126
15 8 0 0.3598 -2.8007
15 8 1 -2.5299 4.3283
15 8 2 -1.4665 1.1794
15 8 3 -7.3499 4.4539
15 8 4 0.9834 0.7456
15 8 6 13.0702 0.3909
15 8 7 0.3253 -1.5732
15 8 8 3.0868 3.3331
15 8 9 0.2349 7.1339
15 8 10 6.1847 -5.5192
15 8 11 -0.7804 -1.8577
15 8 12 -0.3901 -3.4237
15 8 13 0.1990 -8.6803
15 8 14 6.3265 -1.2306
15 8 15 -1.8900 -3.4663
15 9 0 0.0041 7.3929
15 9 1 -1.7502 1.7497
15 9 2 1.2644 -1.0034
15 9 3 -3.1672 -1.1589
15 9 4 8.1967 -2.2443
15 9 5 -5.3090 9.4060
15 9 6 3.2178 1.7693
15 9 7 1.6098 -2.9708
15 9 8 -1.1760 2.2356
15 9 9 3.2310 2.0111
15 9 10 -0.4918 1.9059
15 9 11 6.4906 0.5275
15 9 12 -0.5639 2.4179
15 9 13 1.1080 -8.5941
15 9 14 -2.0992 -4.8647
15 9 15 -4.8849 -0.1519
15 10 0 -0.0785 -3.1898
15 10 1 -1.2224 -0.9392
15 10 2 -1.1008 0.5711
15 10 3 -2.0644 -5.3090
15 10 4 1.0058 0.5182
15 10 5 -0.0001 -4.1873
15 10 6 -3.8635 -4.2012
15 10 7 4.2181 6.5324
15 10 8 -0.5107 -0.8624
15 10 9 7.4125 1.3255
15 10 10 7.4676 -6.6699
15 10 11 -0.8643 7.3337
15 10 12 1.1196 0.8502
15 10 13 3.1273 -1.2959
15 10 14 -1.7536 3.8015
15 11 0 0.4845 0.2430
15 11 1 0.5843 -6.9454
15 11 2 -0.8639 3.5324
15 11 3 -1.4513 6.2236
15 11 4 -0.5797 -1.7159
15 11 5 0.1064 -6.1629
15 11 6 2.7831 -0.2993
15 11 7 -0.9390 0.3738
15 11 8 -3.3253 0.9866
15 11 9 1.3206 3.0397
15 11 10 5.3078 -5.0368
15 11 11 -1.2686 1.4088
15 11 12 0.8827 -4.4274
15 11 13 3.1507 -0.8565
15 12 0 0.1836 4.6658
15 12 1 1.5798 2.3974
15 12 2 1.2285 -8.1859
15 12 3 -7.7889 -4.6624
15 12 4 -1.7723 2.6650
15 12 5 -2.6935 -1.0851
15 12 6 2.8853 6.4295
15 12 7 -0.5067 0.7409
15 12 8 1.0710 3.5972
15 12 9 0.3831 -1.7892
15 12 10 0.4924 3.3624
15 12 11 -1.8975 3.9860
15 12 12 -1.0918 -6.3807
15 13 0 0.2654 -2.0318
15 13 1 1.3475 0.2486
15 13 2 0.0860 2.9309
15 13 3 6.0632 -2.1669
15 13 4 -4.5637 -9.4311
15 13 5 -5.6007 0.3406
15 13 6 -0.5649 6.1925
15 13 7 -3.6263 -5.6670
15 13 8 1.9534 2.5495
15 13 9 1.5904 -5.2109
15 13 10 -8.0072 -1.1825
15 13 11 -2.8778 4.6563
15 14 0 -0.4532 7.2648
15 14 1 0.8092 -7.0296
15 14 2 -10.9027 -3.1505
15 14 3 -2.3391 7.1746
15 14 4 1.2580 0.4667
15 14 5 -2.5411 4.0850
15 14 6 2.2978 2.3679
15 14 7 1.6403 -1.8941
15 14 8 -3.2367 3.2868
15 14 9 -4.7084 -7.5185
15 15 0 1.3755 5.5568
15 15 1 1.3633 1.5566
15 15 2 0.3625 5.7391
15 15 3 -0.3041 -1.3105
15 15 4 -2.9069 5.8449
15 15 5 -1.7079 5.0928
15 15 6 -1.5069 -2.7727
15 15 7 -1.6713 -0.4981
15 16 0 0.0272 -0.2755
15 16 1 -1.6222 -0.7593
15 16 2 5.8654 -2.1694
15 16 3 3.0246 2.4963
15 16 4 0.6646 2.7787
16 0 0 4.7048 6.3814
16 0 1 4.4227 13.4952
16 0 2 3.4905 -5.8230
16 0 3 -9.8380 5.9957
16 0 5 -0.0876 -4.5401
16 0 6 -10.3059 13.2038
16 0 7 7.9617 -0.6298
16 0 8 -2.8956 3.3915
16 0 9 -5.3403 -0.6249
16 0 10 1.5605 -13.1375
16 0 11 -3.7681 -7.6839
16 0 12 -6.4986 4.6276
16 0 13 5.8785 -3.4998
16 0 14 -1.6977 7.6422
16 0 15 0.6519 -0.5102
16 0 16 8.5435 -5.7308
16 0 17 -4.4401 -2.7655
16 1 0 10.6869 -1.7420
16 1 1 2.5315 -0.0684
16 1 2 8.7848 2.3801
16 1 3 -15.4740 1.8720
16 1 4 -4.2270 -1.2347
16 1 6 -8.4036 -12.5373
16 1 7 9.6127 0.9382
16 1 8 0.0936 -1.4894
16 1 9 -8.3523 -3.9585
16 1 10 -2.2093 2.7515
16 1 11 -1.8558 4.8940
16 1 12 -10.1454 -4.2103
16 1 13 11.0979 0.5024
16 1 14 0.9234 -2.4222
16 1 15 3.6602 0.3437
16 1 16 2.7693 2.3345
16 2 0 1.9261 -0.4105
16 2 1 -3.8573 -1.3524
16 2 2 6.6527 -2.9659
16 2 4 -8.0245 -1.9998
16 2 6 -7.3608 -0.1459
16 2 7 0.4251 -9.3407
16 2 8 2.3258 1.8590
16 2 9 3.7874 1.1408
16 2 10 1.3269 -1.2349
16 2 11 0.9918 0.2803
16 2 12 3.9905 -6.0390
16 2 13 1.8783 -7.4560
16 2 14 -2.6399 -3.6844
16 2 15 1.2703 1.5398
16 2 16 -3.3963 -1.2586
16 3 0 -2.9707 0.7568
16 3 1 -0.8526 -5.5097
16 3 2 -10.9402 3.6007
16 3 3 8.0418 -5.3151
16 3 4 2.5404 3.9071
16 3 5 -6.2611 0.1043
16 3 6 1.8535 6.3945
16 3 7 -11.6350 -3.8517
16 3 8 2.1506 -6.0411
16 3 9 8.2006 -4.2576
16 3 10 2.7047 0.8173
16 3 11 -7.1627 2.2151
16 3 12 -8.3293 0.3041
16 3 13 -7.9150 -2.0562
16 3 14 -0.7477 2.6232
16 3 15 -5.3243 -4.2228
16 3 16 -0.3633 -8.3537
16 4 0 -8.5464 -2.5601
16 4 1 -4.6226 3.3836
16 4 2 -2.3489 -0.4340
16 4 3 -0.8735 1.8987
16 4 4 0.8076 6.5380
16 4 5 1.3637 -3.3869
16 4 6 3.8795 -5.8450
16 4 7 -2.0731 2.5170
16 4 8 6.3889 5.1807
16 4 9 -3.0499 2.5662
16 4 10 1.5048 2.7915
16 4 11 7.7460 -2.6430
16 4 12 0.1630 1.9528
16 4 13 -4.2129 -2.1695
16 4 14 -1.5306 -2.8729
16 4 15 -1.0895 1.8556
16 4 16 -2.0870 1.3397
16 5 0 -3.1538 -0.6171
16 5 1 -3.7858 -3.7482
16 5 2 4.6876 1.4035
16 5 3 3.3098 -1.6914
16 5 4 -2.9169 6.5490
16 5 5 1.2236 2.9409
16 5 6 5.7755 0.4628
16 5 7 0.7826 -6.0226
16 5 8 6.1198 5.4261
16 5 9 -2.7161 7.2026
16 5 10 -3.0235 0.7791
16 5 11 -5.0238 6.2274
16 5 12 4.0547 -3.2153
16 5 13 -0.3289 -0.3917
16 5 14 -6.5346 2.8396
16 5 15 -3.9048 0.8532
16 5 16 -3.1592 6.5025
16 6 1 2.7134 -7.4653
16 6 2 0.0127 2.3130
16 6 3 0.6295 3.6493
16 6 4 -1.1450 1.1269
16 6 5 0.3545 1.8609
16 6 6 -4.5845 -0.5973
16 6 7 -0.4543 -4.4856
16 6 8 -2.3599 -3.4771
16 6 9 2.1161 -2.2933
16 6 10 -1.3193 -3.4325
16 6 11 1.2957 2.7536
16 6 12 -3.8824 3.1986
16 6 13 -1.2880 -3.9772
16 6 14 2.4038 0.2504
16 6 15 -4.1902 -0.9800
16 7 0 -0.2351 0.6060
16 7 1 2.8588 -1.3094
16 7 2 -0.6663 1.0431
16 7 3 0.9262 2.9060
16 7 4 -4.5714 -6.1696
16 7 5 4.5050 1.7735
16 7 6 4.4680 -6.3811
16 7 7 3.2034 2.6447
16 7 8 7.1500 -0.1854
16 7 9 10.7490 -6.3488
16 7 10 -1.9236 3.6160
16 7 11 2.3459 -0.1675
16 7 12 1.6623 -2.2883
16 7 13 -2.0061 2.9757
16 7 14 -4.2393 -3.3047
16 7 15 0.8676 -0.5485
16 8 0 1.0635 -0.9114
16 8 1 -0.0045 2.9528
16 8 2 0.0945 3.8601
16 8 3 -1.4173 4.7317
16 8 4 -3.4598 -2.5743
16 8 5 -3.5353 2.4085
16 8 6 -3.3962 -0.4987
16 8 7 -3.5500 -2.2884
16 8 8 -0.4919 7.1640
16 8 9 -4.7532 -4.3479
16 8 10 3.0406 -5.2173
16 8 11 -10.1579 12.2717
16 8 12 3.4719 -5.4612
16 8 13 2.7614 -3.8880
16 8 14 -3.2261 -1.7473
16 9 0 -1.9420 0.3303
16 9 1 -0.9115 2.8019
16 9 2 1.9663 -6.7477
16 9 3 0.1622 3.1217
16 9 4 2.7875 -5.1274
16 9 5 7.0599 -3.6344
16 9 6 4.0255 3.0922
16 9 7 0.8308 -2.4695
16 9 8 2.2270 1.3501
16 9 9 -1.1304 6.0409
16 9 10 -9.5318 -2.0619
16 9 11 4.6204 -3.1910
16 9 12 1.4562 0.1080
16 9 13 -4.9473 -6.7089
16 10 1 -1.8610 -3.7561
16 10 2 -2.9602 1.8736
16 10 3 -2.0476 -4.3731
16 10 4 -2.5048 6.1952
16 10 5 -1.8586 0.7913
16 10 6 -5.4632 5.5261
16 10 7 1.7101 3.7457
16 10 8 2.8555 3.0625
16 10 9 1.4472 -4.6244
16 10 10 0.5490 3.8065
16 10 11 0.2428 -2.1415
16 10 12 5.2895 -2.9339
16 11 0 -2.3540 0.4450
16 11 1 2.3455 -3.3036
16 11 2 -3.5324 0.8446
16 11 3 0.5702 -1.5067
16 11 4 1.9494 -2.1917
16 11 6 1.2539 2.2021
16 11 7 -1.7627 3.2717
16 11 8 6.3577 3.8555
16 11 9 -1.8070 -0.6614
16 11 10 2.6986 3.5694
16 11 11 7.3518 4.5756
16 12 0 -4.5073 -0.0873
16 12 1 -4.0141 -2.3974
16 12 2 -4.6627 -5.7696
16 12 3 6.3939 -4.4151
16 12 4 -2.5917 -1.8218
16 12 5 -5.8091 3.6753
16 12 6 5.4968 0.9849
16 12 7 -1.9034 4.5321
16 12 8 6.6375 -2.8448
16 12 9 -4.8324 -2.6149
16 12 10 2.3078 0.9706
16 13 0 5.1139 -0.3151
16 13 1 1.6294 -3.7537
16 13 2 -5.9120 4.6292
16 13 3 4.8251 -0.5114
16 13 4 -2.7331 3.8930
16 13 5 2.2732 5.5103
16 13 6 2.6377 0.4344
16 13 7 0.8826 0.2401
16 13 8 -3.2088 -0.9358
16 13 9 -3.5794 2.1086
16 14 0 -4.7671 0.2867
16 14 1 2.5556 -7.1699
16 14 2 4.3573 -2.8473
16 14 3 3.6598 2.3951
16 14 4 -4.2913 4.8019
16 14 5 3.4136 -1.7914
16 14 6 2.5061 2.6504
16 14 7 2.4926 -3.5179
16 15 0 -2.2366 -0.2440
16 15 1 -4.9857 4.9495
16 15 2 -1.7908 1.6499
16 15 3 1.3004 -1.0201
16 15 4 -0.2347 -1.6078
17 0 1 6.4759 1.8739
17 0 2 9.1746 -15.2369
17 0 3 1.2998 -6.0336
17 0 4 4.8424 10.5216
17 0 5 -6.8457 -4.6840
17 0 6 4.5409 8.5984
17 0 7 2.2098 -2.0117
17 0 9 4.9577 -0.0103
17 0 10 -9.1199 0.7405
17 0 11 -5.1706 -2.2279
17 0 12 -6.2322 11.2578
17 0 13 -1.3234 5.8841
17 0 14 0.3734 -5.3802
17 0 15 3.3171 2.4248
17 1 0 3.8661 -0.5723
17 1 1 -3.4408 -6.4280
17 1 4 -7.8417 10.2888
17 1 5 3.0268 -0.6927
17 1 6 11.2488 0.9996
17 1 7 -8.4798 7.1091
17 1 8 7.2362 -2.7451
17 1 9 -3.1011 -8.5161
17 1 10 -14.7618 -1.2529
17 1 11 12.0541 2.9651
17 1 12 0.8035 5.1006
17 1 13 -4.3432 7.2841
17 1 14 6.3141 0.9324
17 1 15 -6.3604 -1.0961
17 2 0 -1.0478 3.9222
17 2 1 -0.8919 0.6420
17 2 2 1.7554 1.1462
17 2 3 -1.8777 -1.3207
17 2 4 -4.7851 -1.9384
17 2 6 -5.5988 -4.6425
17 2 7 -0.4942 3.2235
17 2 8 -6.1294 -2.1505
17 2 9 -6.0733 1.2375
17 2 10 4.8394 -3.7888
17 2 11 6.4536 0.1767
17 2 12 -0.3467 -2.8027
17 2 13 -1.0407 1.2288
17 2 14 -7.4015 4.5339
17 2 15 3.2671 0.3088
17 3 0 1.0292 2.7011
17 3 1 -0.0054 6.5140
17 3 2 2.2292 5.7770
17 3 3 -1.8158 -1.5699
17 3 4 5.1013 4.8505
17 3 5 -6.0240 -1.7484
17 3 6 2.7457 -7.5137
17 3 7 2.1061 -2.4927
17 3 8 4.3869 -3.0993
17 3 9 -0.0607 -0.9830
17 3 10 -1.0729 6.5643
17 3 11 -3.6322 1.2449
17 3 12 0.8506 -0.4156
17 3 13 -0.2626 2.5959
17 3 14 1.1351 2.8226
17 3 15 3.7920 2.8693
17 4 0 -0.1083 -1.3045
17 4 1 0.3108 -1.5266
17 4 2 4.4634 3.3024
17 4 3 0.1391 -8.3999
17 4 4 2.1083 -1.9655
17 4 5 7.3720 -3.2124
17 4 6 3.3622 -5.0780
17 4 7 3.5848 -1.5309
17 4 8 -3.5552 3.0312
17 4 9 7.9836 3.1089
17 4 10 9.2340 6.4406
17 4 11 5.8564 2.6934
17 4 12 -0.9551 -2.9847
17 4 13 -4.9943 7.1358
17 4 14 3.7330 0.0163
17 4 15 2.2369 -2.7157
17 5 0 1.0269 -9.2635
17 5 1 -6.1056 -2.2933
17 5 2 -2.5464 -10.1290
17 5 3 4.0646 6.0563
17 5 4 -2.9631 1.5318
17 5 5 -3.3726 2.4365
17 5 6 -2.9846 -2.3986
17 5 7 -5.0375 0.8867
17 5 8 -7.8582 -3.7574
17 5 9 -5.5846 -2.4857
17 5 10 -6.0364 -0.0009
17 5 11 3.3964 -1.8771
17 5 12 -0.4416 -5.4819
17 5 13 -1.5762 -2.9209
17 5 14 -5.1004 -3.4251
17 6 0 0.8952 -0.9693
17 6 1 -4.7054 5.9813
17 6 2 2.5784 -0.2615
17 6 3 0.6215 1.3053
17 6 4 -0.7454 -0.6247
17 6 5 6.0792 0.8146
17 6 6 -6.0102 4.5638
17 6 7 3.1183 -3.6519
17 6 8 7.4836 3.8682
17 6 9 3.2659 6.0456
17 6 10 4.8935 2.1189
17 6 11 1.8365 1.0594
17 6 12 -5.8995 6.8980
17 6 13 -1.1617 3.3599
17 6 14 0.9745 -1.3447
17 7 0 0.1579 -1.3437
17 7 1 2.3933 2.9699
17 7 2 -2.0111 -3.4622
17 7 3 6.1760 6.2252
17 7 4 -6.3645 -2.3937
17 7 5 1.7430 6.6573
17 7 6 -0.1330 -8.3345
17 7 7 -9.7413 3.4990
17 7 8 -1.9408 -8.5127
17 7 9 6.1447 1.6998
17 7 10 0.8390 6.0184
17 7 11 -2.3128 -2.9016
17 7 12 1.0563 4.7353
17 7 13 -4.5436 -1.0663
17 8 0 -0.3095 15.8918
17 8 1 -7.4562 -0.1776
17 8 2 -0.2683 -1.4977
17 8 3 0.5681 -4.3488
17 8 4 3.4798 2.8001
17 8 5 -3.3808 -0.7119
17 8 6 7.1203 -3.3073
17 8 7 11.6188 -9.9116
17 8 8 1.5911 -5.4498
17 8 9 -3.2232 1.7174
17 8 10 1.3238 1.0444
17 8 11 -4.7933 7.3694
17 8 12 -4.5794 0.1108
17 8 13 -2.9295 -6.9712
17 9 0 -1.0440 -3.5077
17 9 1 -0.4555 -2.5067
17 9 2 7.3905 5.5995
17 9 3 -1.9728 6.0968
17 9 4 -3.0010 1.5977
17 9 5 -4.6102 -2.2087
17 9 6 -5.9166 -1.3890
17 9 7 4.4775 7.7868
17 9 8 6.2692 -10.2616
17 9 9 8.4459 6.3575
17 9 10 -4.2095 -6.2017
17 9 11 4.2369 1.8078
17 9 12 -4.5404 -4.6680
17 10 0 0.3563 -5.0598
17 10 1 0.2445 -0.8634
17 10 3 -0.5690 -1.9651
17 10 4 -7.2489 -4.3071
17 10 5 4.1801 -7.7400
17 10 6 7.3705 -9.7323
17 10 7 -1.1237 1.5377
17 10 8 -2.2580 -6.4394
17 10 9 -1.3008 4.6704
17 10 10 2.5820 -0.1851
17 10 11 -5.2489 -7.6389
17 11 0 0.3801 5.1049
17 11 1 -2.5291 -0.1499
17 11 2 0.0330 4.1965
17 11 3 -10.3121 -12.3421
17 11 4 -1.5623 -6.5995
17 11 5 1.8369 1.9577
17 11 6 6.8740 0.3417
17 11 7 2.7968 -5.6687
17 11 8 -0.6310 -5.0961
17 11 9 -2.0871 0.4728
17 11 10 -3.4775 -1.0609
17 12 0 0.3219 5.2140
17 12 1 -7.4328 5.9803
17 12 2 -2.7233 -2.4414
17 12 3 -3.3728 -7.6167
17 12 4 -1.3791 1.2513
17 12 5 3.3733 5.1559
17 12 6 -5.7947 3.2419
17 12 7 -3.0478 -1.3531
17 12 8 -0.9684 1.0207
17 13 0 1.2819 -3.6173
17 13 1 -0.6393 -4.9454
17 13 2 -4.6641 -2.1701
17 13 3 0.5820 -6.9885
17 13 4 6.5808 6.3232
17 13 5 0.7640 5.7434
17 13 6 0.5014 0.5854
17 14 0 -3.3081 -0.5870
17 14 1 -0.7758 2.4077
17 14 2 5.5289 -6.3502
17 14 3 -4.2237 0.7944
18 0 0 6.0395 -2.3811
18 0 1 8.0175 2.4300
18 0 2 7.4784 1.2883
18 0 4 -0.6732 2.9784
18 0 6 -5.9618 -3.0579
18 0 8 0.5907 -1.0042
18 0 9 -9.0233 -4.9123
18 0 10 3.0633 2.6705
18 0 11 -7.1718 -1.0499
18 0 12 -2.4185 -0.0522
18 0 13 9.3145 4.4831
18 0 14 -6.3444 -1.8600
18 1 0 1.4398 -3.7339
18 1 1 4.9444 -8.3956
18 1 2 -2.5463 -0.5272
18 1 3 -0.5058 -0.2247
18 1 4 1.0466 0.6194
18 1 5 -8.6826 20.6850
18 1 6 2.3182 -5.6141
18 1 7 -5.2576 -6.3033
18 1 8 -4.2572 -4.1075
18 1 9 -0.4075 -1.8916
18 1 10 -2.8253 9.5233
18 1 11 -1.2879 10.2459
18 1 12 12.1891 0.7680
18 1 13 -0.0183 0.6138
18 1 14 -0.8417 -5.0701
18 2 0 -9.2705 0.1634
18 2 1 2.4885 -6.3811
18 2 2 1.2540 1.2041
18 2 3 2.3528 6.5048
18 2 4 1.5802 7.6633
18 2 5 0.6726 -0.6548
18 2 6 -6.1398 -0.2580
18 2 7 -0.5855 -8.3005
18 2 8 -0.0375 -6.7903
18 2 9 4.1913 -0.2756
18 2 10 1.2411 -1.8351
18 2 11 -5.2061 -4.2698
18 2 12 -2.5399 -0.0631
18 2 13 -5.2319 0.2858
18 2 14 -2.2213 6.4288
18 3 0 -1.2124 0.8845
18 3 1 2.1561 3.7197
18 3 2 -5.6626 -6.0419
18 3 3 5.9204 4.5689
18 3 4 -3.5874 -0.9166
18 3 5 3.1670 2.6805
18 3 6 3.8464 -3.0265
18 3 8 7.5394 16.0699
18 3 9 1.0128 0.2748
18 3 10 4.8702 -0.6734
18 3 11 7.5985 -0.0705
18 3 12 -4.8001 4.5771
18 3 13 -5.8395 6.5977
18 3 14 1.8171 6.9441
18 4 0 3.9687 0.7480
18 4 1 3.9248 2.3776
18 4 2 1.5966 -0.8434
18 4 3 5.4285 5.4835
18 4 4 -0.0121 -6.8476
18 4 5 5.4722 -8.9646
18 4 6 -1.5535 -1.9286
18 4 7 -2.5016 -4.2788
18 4 8 3.9516 0.7494
18 4 9 -2.9936 -0.4897
18 4 10 0.2874 2.0766
18 4 11 6.1468 2.3918
18 4 12 4.5608 -0.5917
18 4 13 0.2198 0.9963
18 5 0 -5.6067 -0.6642
18 5 1 5.8099 1.6169
18 5 2 0.0057 5.6555
18 5 3 4.2309 -5.5463
18 5 4 0.2833 0.3938
18 5 5 2.3244 -5.6256
18 5 6 2.4820 -9.0385
18 5 7 1.4960 7.4566
18 5 8 -2.0896 -0.3162
18 5 9 10.0784 1.3924
18 5 10 3.2534 -4.4103
18 5 11 -1.3933 2.2310
18 5 12 -1.9408 6.0786
18 5 13 2.2354 5.0351
18 6 0 7.9745 0.0574
18 6 1 5.4325 -5.5411
18 6 2 -2.6901 3.4240
18 6 3 0.1307 -8.8050
18 6 4 3.9676 -1.6892
18 6 5 3.4113 -4.7765
18 6 6 -10.4885 -0.6606
18 6 7 -4.1433 1.9012
18 6 8 -7.5339 -3.1473
18 6 9 -3.8666 4.9462
18 6 10 -2.5416 -0.6860
18 6 11 1.1937 1.3263
18 6 12 0.5635 -0.8020
18 7 0 -0.3749 0.2980
18 7 1 1.8597 3.8308
18 7 2 -1.4114 1.7949
18 7 4 -1.0700 -1.7492
18 7 5 -4.6290 -1.0232
18 7 6 1.9560 0.0041
18 7 7 -3.4268 -0.5963
18 7 8 -1.0268 -4.4335
18 7 9 1.6235 -7.3672
18 7 10 -6.6799 4.6337
18 7 11 -1.7149 8.1557
18 7 12 -1.0249 -2.1496
18 8 0 -1.4781 -0.1715
18 8 1 -2.5550 0.1440
18 8 3 3.2553 -1.2394
18 8 4 6.5018 7.6881
18 8 5 -10.1135 8.3340
18 8 6 -8.4120 9.7612
18 8 7 0.2543 0.1281
18 8 8 -2.3239 6.5746
18 8 9 -3.1136 -0.8434
18 8 10 4.6644 5.3347
18 8 11 -3.4693 10.4079
18 9 0 -4.9735 -0.0614
18 9 1 -0.3473 8.4898
18 9 2 3.9567 -3.1792
18 9 3 -4.1445 -3.0727
18 9 4 -3.1402 3.0253
18 9 5 -1.1151 -6.0199
18 9 6 2.5350 -0.4387
18 9 7 -4.3939 -5.3334
18 9 8 -3.0127 0.5291
18 9 9 5.2410 4.4142
18 9 10 -0.4626 4.6166
18 10 0 -1.2582 -0.3580
18 10 1 7.6546 -0.3935
18 10 2 -2.5224 0.4441
18 10 3 -3.2813 1.7713
18 10 4 -6.8072 5.9206
18 10 6 2.0899 -5.9561
18 10 7 8.8665 -7.6146
18 10 8 -2.0433 -1.0957
18 10 9 -1.8621 -9.8009
18 11 0 3.3937 2.3353
18 11 1 4.8137 1.9484
18 11 2 -1.8216 1.9757
18 11 3 -10.2428 -2.3612
18 11 4 -1.3652 -4.7672
18 11 5 3.5880 -5.9691
18 11 6 3.6270 2.6726
18 11 7 -5.6865 0.6872
18 12 0 2.1667 -0.2889
18 12 1 -5.8535 3.3362
18 12 3 -2.5132 1.7214
18 12 4 4.1155 -3.6061
18 12 5 6.4434 -1.6796
18 13 0 -1.1739 -2.9304
18 13 1 3.3999 0.7878
19 0 1 -11.3416 -6.6507
19 0 2 8.1166 -10.0581
19 0 4 -2.1940 7.1793
19 0 5 11.6431 -4.5893
19 0 6 0.4451 5.7854
19 0 7 -3.3633 0.9765
19 0 8 2.2560 -8.8518
19 0 9 -8.6638 0.2628
19 0 10 -5.0625 0.5862
19 0 11 6.4493 8.7941
19 0 12 -2.6645 6.3145
19 1 0 3.5511 -1.7069
19 1 1 -2.1551 -5.8169
19 1 2 -10.2205 4.5188
19 1 3 0.7053 11.6820
19 1 4 -4.5276 -0.6664
19 1 5 8.6264 -1.3032
19 1 6 6.7842 -0.2288
19 1 7 -5.6255 -11.2275
19 1 8 -0.5952 0.3106
19 1 9 -4.6679 4.6220
19 1 10 -1.6379 -1.1761
19 1 11 2.7335 4.9711
19 1 12 0.8379 -6.6706
19 2 0 0.7434 -1.2939
19 2 1 5.5408 -2.3181
19 2 2 2.7708 2.1831
19 2 3 -1.3542 -4.0017
19 2 4 3.1013 2.0882
19 2 5 -0.0140 2.4097
19 2 6 1.3971 0.1195
19 2 7 -0.1794 4.9357
19 2 8 2.3447 -5.7140
19 2 9 1.5147 1.4432
19 2 10 3.8489 3.7194
19 2 11 0.9165 -7.2664
19 2 12 -0.0493 -5.0412
19 3 0 0.3892 -7.7470
19 3 1 -0.0021 -1.9364
19 3 2 4.6434 5.2972
19 3 3 2.4897 -0.6496
19 3 4 1.9467 -1.5158
19 3 5 -5.7336 -5.1719
19 3 6 -2.1519 -3.0040
19 3 7 0.2153 -14.0917
19 3 8 -4.8143 -4.2464
19 3 9 4.7476 -3.6736
19 3 10 -2.4454 -2.5465
19 3 11 -1.2591 -4.8752
19 3 12 4.8251 2.5020
19 4 0 -0.6803 -4.4513
19 4 1 6.0383 1.9587
19 4 2 6.6448 -0.3455
19 4 3 1.5032 5.0132
19 4 4 -2.2253 -1.5214
19 4 5 -2.5018 -6.9997
19 4 6 -2.0780 -2.0140
19 4 7 1.2162 -0.8479
19 4 8 0.4971 -2.5530
19 4 9 4.6630 3.3129
19 4 10 5.9835 -4.0825
19 4 11 -3.4272 -0.4441
19 5 0 -0.1970 -2.3501
19 5 1 -2.5151 -1.7383
19 5 2 7.4326 0.4507
19 5 3 -4.0926 -3.3517
19 5 4 1.5592 -5.4668
19 5 5 -0.5665 -2.7797
19 5 6 -4.9722 -0.0083
19 5 7 1.5234 1.1673
19 5 8 -7.5709 4.3768
19 5 9 4.9731 5.1607
19 5 10 -0.0516 2.5889
19 5 11 1.4163 2.2062
19 6 0 -0.6713 10.5273
19 6 1 2.5717 2.7131
19 6 2 1.5173 3.6020
19 6 3 -7.3921 0.5328
19 6 4 -0.7203 -9.0074
19 6 5 4.0712 5.0255
19 6 6 -4.5296 -2.7436
19 6 7 3.6751 -1.8800
19 6 8 5.4038 -5.5448
19 6 9 3.8996 -0.8745
19 6 10 5.1185 5.7935
19 7 0 0.4264 -4.5046
19 7 1 1.4821 -0.6421
19 7 2 -1.6378 -7.6728
19 7 3 -3.7215 2.4718
19 7 4 -2.0914 -4.6286
19 7 5 -2.7364 3.2543
19 7 6 6.0185 2.2306
19 7 7 -3.4936 0.2434
19 7 8 1.1497 2.8517
19 7 9 -0.4549 -1.2914
19 7 10 -2.4642 2.0570
19 8 0 0.2955 19.6389
19 8 1 0.9602 -0.1683
19 8 2 4.3384 5.0855
19 8 3 -6.2660 3.8274
19 8 4 1.7060 -1.4747
19 8 5 -0.7418 -5.0184
19 8 6 -2.3133 -2.2154
19 8 7 0.2428 -1.6031
19 8 8 -0.5280 3.9930
19 8 9 -5.2775 8.5022
19 9 0 -1.0160 -5.3938
19 9 1 2.6667 -8.8989
19 9 2 -1.0706 -4.4464
19 9 3 -2.6866 2.6280
19 9 4 1.4424 6.0164
19 9 5 3.7413 -3.8560
19 9 6 -0.0442 2.1005
19 9 7 -3.3856 -1.4755
19 10 0 -1.5651 2.9622
19 10 1 1.5674 -0.9156
19 10 2 -3.9443 0.9036
19 10 3 -5.9933 0.1505
19 10 4 0.2532 -3.2339
19 10 5 -5.6249 -1.8877
19 10 6 -3.0191 -0.7146
19 11 0 2.3429 -1.4975
19 11 1 -0.0272 -2.0941
19 11 2 -9.5594 2.8249
19 11 3 1.9727 0.6674
20 0 0 1.0515 -5.0074
20 0 1 1.2055 -5.8107
20 0 2 0.8673 5.6960
20 0 3 -1.4600 7.8162
20 0 4 -5.4816 13.3613
20 0 5 0.6373 1.0262
20 0 6 5.1393 -10.8596
20 0 7 0.8252 -2.1139
20 0 8 -0.7192 -3.8968
20 0 9 -0.7558 -1.7482
20 0 10 -5.3834 11.3867
20 1 0 1.4943 -0.6762
20 1 1 7.5862 2.4619
20 1 2 -7.4991 -0.5241
20 1 3 15.9853 7.1666
20 1 4 -1.1017 -0.1430
20 1 5 3.0625 -2.0454
20 1 6 9.0956 -0.8395
20 1 7 -4.6211 -0.6552
20 1 8 -7.4404 2.1056
20 1 9 6.3522 3.1048
20 1 10 -1.2765 3.2175
20 2 0 -10.6423 0.6329
20 2 1 1.0314 -8.8399
20 2 2 0.7389 2.9161
20 2 4 -1.4553 -0.9163
20 2 5 6.5349 2.4186
20 2 6 3.3875 -7.7462
20 2 7 -1.7413 -2.6987
20 2 8 -6.7500 -0.4155
20 2 9 1.1271 -3.8103
20 2 10 -2.5781 -4.3790
20 3 0 13.6342 0.8606
20 3 1 3.8317 -2.5516
20 3 2 2.1648 -4.6995
20 3 3 0.3552 -0.3868
20 3 4 5.6451 -10.4479
20 3 5 7.7432 -3.7973
20 3 6 -0.6086 1.3084
20 3 7 3.1420 -6.6396
20 3 8 -4.4611 0.2970
20 3 9 4.9303 -3.5799
20 3 10 0.1538 -5.8792
20 4 0 2.5238 1.9420
20 4 1 2.9289 5.5077
20 4 2 4.2628 -3.3137
20 4 3 -0.1823 0.6187
20 4 4 -1.7124 -1.2399
20 4 5 -0.5261 -9.7904
20 4 6 -4.0619 -4.9000
20 4 7 -10.9966 1.7031
20 4 8 0.0130 2.2068
20 4 9 -5.1340 -4.0260
20 5 0 12.4017 -0.8449
20 5 1 3.4524 -0.2522
20 5 2 1.6585 3.2006
20 5 3 4.1821 -1.7694
20 5 4 -6.7184 1.3036
20 5 5 -4.1655 -0.9645
20 5 6 -2.8627 -0.5368
20 5 7 -2.1693 1.3289
20 5 8 1.8983 -4.5020
20 5 9 -0.0625 1.7639
20 6 0 6.2823 -0.1879
20 6 1 -3.0392 -5.2805
20 6 2 -4.6577 -6.7979
20 6 3 -4.7463 -3.2762
20 6 4 -6.5358 -1.9927
20 6 5 -2.6914 -1.2101
20 6 6 -1.4858 -0.1222
20 6 7 -4.4038 3.1180
20 6 8 3.8555 -1.3644
20 7 0 -1.6496 -0.3949
20 7 1 -1.1897 10.6617
20 7 2 -5.3053 2.1057
20 7 3 2.3361 2.5868
20 7 4 2.1042 2.6661
20 7 5 -4.0841 2.4720
20 7 6 3.4424 1.4672
20 7 7 0.3146 -0.8367
20 8 0 0.0918 -1.7025
20 8 1 -3.7546 -0.5846
20 8 2 1.9792 -4.5184
20 8 3 1.3604 2.5372
20 8 4 5.7459 2.0729
20 8 5 -0.3252 -1.2953
20 8 6 7.4171 3.8676
20 9 0 2.7655 1.5318
20 9 1 -0.4451 2.6457
20 9 2 0.7903 1.1675
20 9 3 2.3669 3.3112
20 9 4 -8.5279 1.7153
21 0 1 -10.8838 -6.9077
21 0 2 9.4313 6.0929
21 0 3 -2.6959 -0.1814
21 0 4 2.3778 -3.2291
21 0 5 10.9396 0.0125
21 0 6 2.9528 -4.3053
21 0 7 -3.7431 -7.0713
21 0 8 -0.3549 6.4000
21 1 0 -1.0494 -3.7355
21 1 1 2.0248 -3.6658
21 1 2 -1.3624 3.1926
21 1 3 3.0777 7.9654
21 1 4 1.7161 0.4834
21 1 5 -7.7504 -3.7935
21 1 6 2.8861 -4.7605
21 1 7 -1.4858 -5.5079
21 1 8 -1.9467 6.1864
21 2 0 -1.5824 -1.8568
21 2 1 4.2669 -5.6043
21 2 2 4.9499 4.8535
21 2 3 -2.6581 0.1901
21 2 4 -1.3395 -1.9397
21 2 5 -0.4208 -13.5321
21 2 6 1.5427 -2.9771
21 2 7 0.7454 -1.3743
21 3 0 0.2418 -3.5230
21 3 1 -2.0912 6.3920
21 3 2 -0.3287 3.2266
21 3 3 -1.5927 3.3234
21 3 4 2.4808 0.4440
21 3 5 2.9766 -3.0929
21 3 6 -9.6948 -0.9476
21 3 7 -1.7413 1.2048
21 4 0 1.0352 -12.5285
21 4 1 7.1692 -0.6359
21 4 2 5.5188 -3.7810
21 4 3 1.3003 -5.1473
21 4 4 4.9879 -1.6846
21 4 5 -1.4614 2.1051
21 4 6 0.5838 0.2715
21 5 0 -0.4520 7.8802
21 5 1 4.3383 -2.8951
21 5 2 -2.8342 1.5259
21 5 3 -3.2590 -5.2999
21 5 4 0.2686 -2.6977
21 5 5 -4.2705 -1.6325
21 6 0 4.3734 1.5938
21 6 1 3.3190 -0.4944
21 6 2 -2.5235 4.6156
21 6 3 -0.4378 1.8172
21 6 4 -0.4165 0.6099
21 7 0 0.3407 0.0552
21 7 1 -2.8578 -1.8719
21 7 2 -3.5903 -3.5168
22 0 0 10.7922 -3.3049
22 0 1 -5.7654 4.6088
22 0 2 0.0286 2.4899
22 0 3 11.7560 3.1690
22 1 0 0.4960 -1.6737
22 1 1 0.7903 5.7931
22 1 2 6.5042 -3.2689
22 1 3 5.1012 5.0305
22 2 0 -6.2360 -0.1668
22 2 1 -5.8205 -3.1438
22 2 2 4.5085 -1.3520
22 3 0 3.9707 -3.4642
22 3 1 0.7093 -0.8288
0 0 0 0.0 0.0
;
_shelx_fab_checksum              31002
_olex2_submission_special_instructions 'No special instructions were received'
loop_
_space_group_symop_operation_xyz
'x, y, z'
'-x+1/2, -y, z+1/2'
'-x, y+1/2, -z+1/2'
'x+1/2, -y+1/2, -z'
loop_
_atom_site_label
_atom_site_type_symbol
_atom_site_fract_x
_atom_site_fract_y
_atom_site_fract_z
_atom_site_U_iso_or_equiv
_atom_site_adp_type
_atom_site_occupancy
_atom_site_site_symmetry_order
_atom_site_calc_flag
_atom_site_refinement_flags_posn
_atom_site_refinement_flags_adp
_atom_site_refinement_flags_occupancy
_atom_site_disorder_assembly
_atom_site_disorder_group
Bi01 Bi 1.09907(2) 0.87639(3) 0.65086(3) 0.02983(11) Uani 1 1 d . . . . .
O1 O 1.1165(4) 0.8782(4) 0.5406(4) 0.0270(16) Uani 1 1 d . U . . .
H1A H 1.083110 0.909014 0.520715 0.040 Uiso 1 1 d R U . . .
H1B H 1.160985 0.899109 0.530480 0.040 Uiso 1 1 d R U . . .
O2 O 1.0130(6) -0.0330(6) 0.6163(6) 0.053(3) Uani 1 1 d . U . . .
N004 N 0.4956(5) 0.3772(7) 0.6133(5) 0.036(2) Uani 1 1 d . U . . .
O005 O 0.2025(7) 0.7728(6) 0.6447(8) 0.088(4) Uani 1 1 d . . . . .
C006 C 0.8467(8) 0.5953(7) 0.7211(8) 0.042(4) Uani 1 1 d . U . . .
H006 H 0.833638 0.568933 0.762009 0.051 Uiso 1 1 calc R U . . .
N007 N 0.7302(5) 0.3744(6) 0.6467(5) 0.034(2) Uani 1 1 d . U . . .
C008 C 0.7748(6) 0.4371(6) 0.6510(8) 0.027(3) Uani 1 1 d . U . . .
C009 C 0.2998(9) 0.0641(7) 0.5958(9) 0.041(4) Uani 1 1 d . U . . .
N1 N 0.6115(6) 0.2561(5) 0.6325(5) 0.027(2) Uani 1 1 d . U . . .
H1 H 0.611717 0.305247 0.637590 0.032 Uiso 1 1 calc R U . . .
C00B C 0.9820(8) -0.0001(7) 0.6742(8) 0.048(4) Uani 1 1 d D U . . .
C00C C 0.9284(6) 0.0575(6) 0.6660(7) 0.028(3) Uani 1 1 d D U . . .
C00D C 0.2307(8) 0.0091(7) 0.5856(7) 0.034(3) Uani 1 1 d . U . . .
C00E C 0.8569(7) 0.4143(6) 0.6591(8) 0.034(3) Uani 1 1 d . U . . .
H00E H 0.899488 0.446910 0.660260 0.041 Uiso 1 1 calc R U . . .
C00F C 0.8379(8) 0.6166(10) 0.5924(8) 0.053(4) Uani 1 1 d D U . . .
H00F H 0.819381 0.603825 0.547880 0.064 Uiso 1 1 calc R U . . .
O3 O 0.2023(5) -0.0208(5) 0.6394(5) 0.036(2) Uani 1 1 d . . . . .
C00H C 0.8956(10) 0.0743(7) 0.5998(8) 0.044(4) Uani 1 1 d . U . . .
H00H H 0.912673 0.048905 0.559566 0.053 Uiso 1 1 calc R U . . .
O00I O 1.0042(6) -0.0235(6) 0.7334(7) 0.055(3) Uani 1 1 d . U . . .
C00J C 0.8142(7) 0.1760(6) 0.6489(10) 0.038(3) Uani 1 1 d D U . . .
C00K C 0.9010(9) 0.6576(7) 0.7217(7) 0.037(3) Uani 1 1 d . U . . .
H00K H 0.921030 0.674192 0.764569 0.045 Uiso 1 1 calc R U . . .
C00L C 0.9892(8) 0.7563(6) 0.6653(8) 0.026(3) Uani 1 1 d . U . . .
C00M C 0.7579(6) 0.2355(5) 0.6427(7) 0.031(3) Uani 1 1 d D U . . .
C00N C 0.8579(7) 0.3329(7) 0.6647(7) 0.035(3) Uani 1 1 d . U . . .
H00N H 0.899570 0.300656 0.673715 0.042 Uiso 1 1 calc R U . . .
O00O O 0.2109(7) -0.0075(7) 0.5273(6) 0.075(4) Uani 1 1 d . . . . .
O00P O 1.0081(6) 0.7858(6) 0.6139(7) 0.056(3) Uani 1 1 d . . . . .
C00Q C 0.8905(10) 0.6761(8) 0.6019(8) 0.047(4) Uani 1 1 d D U . . .
H00Q H 0.902109 0.705957 0.562639 0.056 Uiso 1 1 calc R U . . .
C00R C 0.7779(6) 0.3126(6) 0.6528(9) 0.034(3) Uani 1 1 d . U . . .
C00S C 0.8331(7) 0.1332(9) 0.5949(6) 0.034(3) Uani 1 1 d . U . . .
H00S H 0.807060 0.139720 0.552431 0.041 Uiso 1 1 calc R U . . .
C00T C 0.4473(6) 0.3211(6) 0.6103(6) 0.021(3) Uani 1 1 d . U . . .
O00U O 1.0116(6) 0.7802(6) 0.7192(7) 0.058(3) Uani 1 1 d . . . . .
C00V C 0.5729(7) 0.1363(7) 0.6296(7) 0.034(3) Uani 1 1 d . U . . .
H00V H 0.540023 0.094178 0.632818 0.041 Uiso 1 1 calc R U . . .
C00W C 0.9247(7) 0.6938(7) 0.6598(9) 0.039(3) Uani 1 1 d . U . . .
C00X C 0.8134(6) 0.5758(6) 0.6544(10) 0.036(3) Uani 1 1 d D U . . .
C00Y C 0.3815(7) 0.1573(7) 0.5429(7) 0.040(4) Uani 1 1 d . U . . .
H00Y H 0.399174 0.180692 0.501884 0.048 Uiso 1 1 calc R U . . .
N00Z N 0.6151(6) 0.4974(5) 0.6305(6) 0.039(3) Uani 1 1 d . U . . .
H00Z H 0.614253 0.448023 0.631020 0.047 Uiso 1 1 calc R U . . .
C010 C 0.4119(7) 0.1787(6) 0.6059(7) 0.027(3) Uani 1 1 d . U . . .
C011 C 0.6737(7) 0.2143(7) 0.6343(7) 0.036(4) Uani 1 1 d . U . . .
C012 C 0.3978(9) 0.6133(8) 0.5386(7) 0.049(3) Uani 1 1 d . U . . .
H012 H 0.427526 0.597081 0.500605 0.059 Uiso 1 1 calc R U . . .
C013 C 0.3130(8) 0.6595(7) 0.6503(10) 0.050(3) Uani 1 1 d . U . . .
H013 H 0.286733 0.676373 0.690188 0.060 Uiso 1 1 calc R U . . .
C014 C 0.7531(6) 0.5201(5) 0.6537(8) 0.029(3) Uani 1 1 d D U . . .
C015 C 0.3699(7) 0.4242(7) 0.6019(8) 0.038(3) Uani 1 1 d . U . . .
H015 H 0.326133 0.455138 0.603176 0.046 Uiso 1 1 calc R U . . .
O016 O 0.2079(7) 0.7672(6) 0.5190(7) 0.071(3) Uani 1 1 d . U . . .
C017 C 0.8521(7) 0.1612(7) 0.7133(8) 0.032(3) Uani 1 1 d . U . . .
H017 H 0.838284 0.189159 0.753105 0.038 Uiso 1 1 calc R U . . .
C018 C 0.5457(8) 0.2140(7) 0.6217(7) 0.037(4) Uani 1 1 d . U . . .
C019 C 0.4504(9) 0.4471(8) 0.6088(8) 0.045(4) Uani 1 1 d . U . . .
C01A C 0.6792(6) 0.5425(5) 0.6375(7) 0.025(3) Uani 1 1 d D U . . .
C01B C 0.4734(7) 0.2367(7) 0.6101(8) 0.033(3) Uani 1 1 d . U . . .
C01C C 0.3235(7) 0.0860(6) 0.6614(7) 0.032(3) Uani 1 1 d . U . . .
H01C H 0.302554 0.062949 0.701316 0.038 Uiso 1 1 calc R U . . .
C01D C 0.6494(8) 0.1307(13) 0.6320(8) 0.066(5) Uani 1 1 d . U . . .
H01D H 0.680070 0.086772 0.632162 0.079 Uiso 1 1 calc R U . . .
C01E C 0.4699(7) 0.5174(7) 0.6123(7) 0.031(3) Uani 1 1 d . U . . .
C01F C 0.6518(6) 0.6159(7) 0.6328(6) 0.032(3) Uani 1 1 d D U . . .
H01F H 0.685910 0.657219 0.633472 0.039 Uiso 1 1 calc R U . . .
C01G C 0.3726(8) 0.6035(7) 0.6599(8) 0.045(4) Uani 1 1 d . U . . .
H01G H 0.382133 0.583289 0.704413 0.054 Uiso 1 1 calc R U . . .
C01H C 0.2931(8) 0.6883(7) 0.5901(7) 0.032(3) Uani 1 1 d . U . . .
C01J C 0.4135(8) 0.5810(6) 0.6063(7) 0.031(3) Uani 1 1 d . U . . .
C01K C 0.2363(10) 0.7529(8) 0.5856(9) 0.061(5) Uani 1 1 d . U . . .
C01L C 0.5741(7) 0.6284(12) 0.6272(6) 0.047(4) Uani 1 1 d . U . . .
H01L H 0.545756 0.673749 0.626706 0.056 Uiso 1 1 calc R U . . .
C01N C 0.9117(7) 0.1039(6) 0.7187(7) 0.035(3) Uani 1 1 d . U . . .
H01N H 0.939279 0.099451 0.760627 0.042 Uiso 1 1 calc R U . . .
C01O C 0.3246(7) 0.1012(6) 0.5385(8) 0.038(3) Uani 1 1 d . U . . .
H01O H 0.303442 0.089270 0.494832 0.046 Uiso 1 1 calc R U . . .
C01Q C 0.5492(8) 0.5472(7) 0.6221(7) 0.036(3) Uani 1 1 d . U . . .
C01R C 0.3743(8) 0.3416(7) 0.5925(8) 0.046(4) Uani 1 1 d . U . . .
H01R H 0.334895 0.309185 0.577235 0.055 Uiso 1 1 calc R U . . .
C01T C 0.3781(8) 0.1416(8) 0.6678(7) 0.045(4) Uani 1 1 d . U . . .
H01T H 0.394234 0.156499 0.712536 0.054 Uiso 1 1 calc R U . . .
C01V C 0.3408(9) 0.6673(8) 0.5265(9) 0.053(4) Uani 1 1 d . U . . .
H01V H 0.332499 0.689089 0.482360 0.063 Uiso 1 1 calc R U . . .
loop_
_atom_site_aniso_label
_atom_site_aniso_U_11
_atom_site_aniso_U_22
_atom_site_aniso_U_33
_atom_site_aniso_U_23
_atom_site_aniso_U_13
_atom_site_aniso_U_12
Bi01 0.01864(17) 0.02236(16) 0.0485(2) 0.0002(3) -0.0006(2) 0.0005(2)
O1 0.021(3) 0.024(2) 0.037(3) -0.002(2) 0.001(2) 0.002(2)
O2 0.052(3) 0.053(3) 0.053(3) 0.0004(14) -0.0005(14) 0.0009(14)
N004 0.031(5) 0.035(4) 0.044(6) -0.017(5) -0.007(4) 0.016(6)
O005 0.103(10) 0.094(8) 0.068(9) 0.032(8) 0.046(9) 0.075(7)
C006 0.030(7) 0.044(7) 0.053(8) 0.018(6) 0.002(6) -0.006(6)
N007 0.037(5) 0.023(4) 0.041(5) 0.010(6) -0.008(5) -0.012(5)
C008 0.024(6) 0.028(5) 0.028(6) -0.011(6) 0.000(6) -0.008(4)
C009 0.041(8) 0.030(6) 0.050(8) -0.004(6) 0.013(7) -0.007(6)
N1 0.029(6) 0.019(4) 0.031(6) -0.002(4) -0.010(4) 0.002(4)
C00B 0.051(8) 0.053(7) 0.039(9) 0.017(6) -0.012(6) -0.020(7)
C00C 0.018(6) 0.029(5) 0.038(8) -0.008(5) 0.001(5) 0.016(5)
C00D 0.035(7) 0.034(6) 0.034(8) -0.017(6) 0.013(6) 0.008(5)
C00E 0.037(7) 0.020(5) 0.045(8) 0.009(6) 0.006(6) -0.012(5)
C00F 0.042(7) 0.063(9) 0.054(8) -0.013(9) 0.024(6) 0.004(8)
O3 0.035(5) 0.043(5) 0.029(6) 0.014(5) 0.002(5) 0.003(4)
C00H 0.043(8) 0.027(6) 0.063(9) -0.019(6) 0.007(8) 0.008(7)
O00I 0.055(4) 0.055(4) 0.056(4) 0.001(3) -0.005(3) 0.008(2)
C00J 0.038(7) 0.021(5) 0.056(8) -0.015(7) -0.001(7) 0.010(5)
C00K 0.043(7) 0.043(6) 0.027(6) -0.004(5) -0.005(7) -0.006(7)
C00L 0.038(7) 0.009(5) 0.031(8) 0.010(5) -0.008(6) -0.009(5)
C00M 0.029(6) 0.024(5) 0.038(7) 0.007(6) -0.021(6) -0.001(5)
C00N 0.031(7) 0.034(6) 0.039(8) -0.004(6) -0.009(6) -0.007(5)
O00O 0.077(8) 0.092(8) 0.055(7) -0.025(7) 0.011(6) -0.060(7)
O00P 0.030(6) 0.063(7) 0.075(9) -0.002(6) -0.016(5) -0.032(5)
C00Q 0.062(9) 0.051(7) 0.028(7) -0.003(6) 0.007(7) -0.001(8)
C00R 0.016(5) 0.037(6) 0.049(7) -0.017(7) -0.001(6) 0.002(5)
C00S 0.035(6) 0.034(7) 0.033(6) 0.007(7) -0.021(5) 0.008(7)
C00T 0.010(5) 0.025(5) 0.029(6) 0.016(5) -0.008(5) -0.004(4)
O00U 0.048(7) 0.051(6) 0.074(9) -0.009(6) 0.024(6) -0.023(5)
C00V 0.028(6) 0.013(6) 0.060(8) 0.001(6) 0.006(5) -0.006(5)
C00W 0.020(6) 0.038(6) 0.060(9) 0.009(7) -0.003(6) -0.006(5)
C00X 0.017(6) 0.037(6) 0.054(8) -0.002(7) -0.006(7) -0.003(5)
C00Y 0.035(8) 0.051(7) 0.034(7) -0.001(6) 0.006(5) -0.022(6)
N00Z 0.039(7) 0.021(4) 0.056(7) -0.008(5) 0.022(5) 0.012(4)
C010 0.009(6) 0.026(5) 0.047(7) -0.013(5) 0.003(5) 0.006(5)
C011 0.029(7) 0.037(6) 0.043(9) -0.011(6) 0.019(6) 0.003(5)
C012 0.044(6) 0.041(7) 0.062(7) -0.008(7) 0.009(7) 0.003(8)
C013 0.052(8) 0.056(7) 0.041(7) -0.004(8) 0.001(8) 0.012(6)
C014 0.027(6) 0.026(5) 0.033(6) 0.018(6) 0.019(6) 0.011(4)
C015 0.018(6) 0.037(6) 0.061(8) -0.002(6) -0.002(6) 0.011(5)
O016 0.072(4) 0.071(4) 0.071(4) 0.000(3) 0.001(3) 0.008(3)
C017 0.020(6) 0.027(6) 0.049(8) -0.009(6) 0.000(6) -0.009(5)
C018 0.041(8) 0.022(6) 0.049(8) -0.005(5) 0.024(6) 0.001(6)
C019 0.040(8) 0.042(7) 0.053(8) 0.010(6) -0.019(7) 0.007(6)
C01A 0.011(5) 0.025(5) 0.037(8) -0.013(5) -0.007(5) -0.009(4)
C01B 0.018(6) 0.026(6) 0.054(8) -0.002(6) -0.002(6) 0.000(5)
C01C 0.030(6) 0.038(6) 0.028(7) 0.012(5) 0.001(5) -0.014(5)
C01D 0.054(8) 0.071(8) 0.073(10) -0.003(10) -0.016(7) -0.004(9)
C01E 0.022(6) 0.028(6) 0.044(8) -0.004(6) -0.007(5) 0.015(5)
C01F 0.033(6) 0.014(5) 0.049(8) -0.005(6) -0.001(5) -0.002(6)
C01G 0.053(7) 0.056(9) 0.025(7) 0.019(7) 0.003(6) 0.007(6)
C01H 0.021(6) 0.036(6) 0.039(7) -0.002(6) 0.006(6) 0.011(5)
C01J 0.031(3) 0.031(3) 0.032(3) 0.0003(14) 0.0008(14) 0.0008(14)
C01K 0.062(9) 0.058(8) 0.063(9) 0.017(7) 0.009(8) 0.039(7)
C01L 0.041(7) 0.039(6) 0.060(8) 0.010(8) -0.001(5) -0.011(7)
C01N 0.029(7) 0.024(6) 0.052(7) -0.006(5) -0.017(6) 0.003(5)
C01O 0.036(7) 0.025(6) 0.054(8) -0.008(5) 0.003(6) -0.021(5)
C01Q 0.022(6) 0.036(6) 0.050(8) 0.006(6) -0.015(5) 0.006(5)
C01R 0.042(8) 0.036(6) 0.061(9) 0.004(6) -0.015(6) 0.002(6)
C01T 0.049(8) 0.053(8) 0.033(8) -0.023(6) -0.011(5) 0.000(6)
C01V 0.058(9) 0.045(7) 0.055(9) 0.006(7) -0.014(7) 0.008(7)
loop_
_atom_type_symbol
_atom_type_description
_atom_type_scat_dispersion_real
_atom_type_scat_dispersion_imag
_atom_type_scat_source
C C 0.0033 0.0016 'International Tables Vol C Tables 4.2.6.8 and 6.1.1.4'
H H 0.0000 0.0000 'International Tables Vol C Tables 4.2.6.8 and 6.1.1.4'
N N 0.0061 0.0033 'International Tables Vol C Tables 4.2.6.8 and 6.1.1.4'
O O 0.0106 0.0060 'International Tables Vol C Tables 4.2.6.8 and 6.1.1.4'
Bi Bi -4.1077 10.2566 'International Tables Vol C Tables 4.2.6.8 and 6.1.1.4'
loop_
_geom_angle_atom_site_label_1
_geom_angle_atom_site_label_2
_geom_angle_atom_site_label_3
_geom_angle
_geom_angle_site_symmetry_1
_geom_angle_site_symmetry_3
_geom_angle_publ_flag
O1 Bi01 O2 78.3(3) . 1_565 ?
O1 Bi01 O005 82.2(4) . 1_655 ?
O1 Bi01 O3 78.7(3) . 1_665 ?
O1 Bi01 C00L 101.7(4) . . ?
O1 Bi01 O00P 79.0(4) . . ?
O1 Bi01 O00U 125.9(4) . . ?
O2 Bi01 O005 160.5(4) 1_565 1_655 ?
O2 Bi01 O3 87.0(3) 1_565 1_665 ?
O2 Bi01 C00L 95.8(4) 1_565 . ?
O2 Bi01 O00P 86.6(3) 1_565 . ?
O2 Bi01 O00U 102.1(4) 1_565 . ?
O005 Bi01 C00L 87.4(4) 1_655 . ?
O005 Bi01 O00U 88.6(4) 1_655 . ?
O3 Bi01 O005 90.0(3) 1_665 1_655 ?
O3 Bi01 C00L 177.3(3) 1_665 . ?
O3 Bi01 O00U 154.9(4) 1_665 . ?
O00P Bi01 O005 89.0(4) . 1_655 ?
O00P Bi01 O3 157.6(4) . 1_665 ?
O00P Bi01 C00L 23.2(4) . . ?
O00P Bi01 O00U 47.5(4) . . ?
O00U Bi01 C00L 24.4(4) . . ?
Bi01 O1 H1A 110.0 . . ?
Bi01 O1 H1B 110.5 . . ?
H1A O1 H1B 103.4 . . ?
C00B O2 Bi01 108.7(8) . 1_545 ?
C00T N004 C019 106.4(9) . . ?
C01K O005 Bi01 122.6(10) . 1_455 ?
C00K C006 H006 121.6 . . ?
C00X C006 H006 121.6 . . ?
C00X C006 C00K 116.8(12) . . ?
C008 N007 C00R 106.8(8) . . ?
N007 C008 C00E 109.9(9) . . ?
N007 C008 C014 130.2(10) . . ?
C00E C008 C014 119.7(9) . . ?
C01C C009 C00D 121.3(13) . . ?
C01O C009 C00D 116.6(14) . . ?
C01O C009 C01C 120.7(12) . . ?
C011 N1 H1 123.5 . . ?
C011 N1 C018 113.1(10) . . ?
C018 N1 H1 123.5 . . ?
O2 C00B C00C 119.0(12) . . ?
O00I C00B O2 118.0(12) . . ?
O00I C00B C00C 123.0(14) . . ?
C00B C00C C00H 121.6(12) . . ?
C01N C00C C00B 120.5(13) . . ?
C01N C00C C00H 117.6(10) . . ?
O3 C00D C009 117.5(13) . . ?
O00O C00D C009 119.2(13) . . ?
O00O C00D O3 123.0(13) . . ?
C008 C00E H00E 126.7 . . ?
C00N C00E C008 106.6(10) . . ?
C00N C00E H00E 126.7 . . ?
C00Q C00F H00F 121.5 . . ?
C00Q C00F C00X 117.0(13) . . ?
C00X C00F H00F 121.5 . . ?
C00D O3 Bi01 130.0(9) . 1_445 ?
C00C C00H H00H 120.3 . . ?
C00C C00H C00S 119.3(12) . . ?
C00S C00H H00H 120.3 . . ?
C00S C00J C00M 121.3(15) . . ?
C00S C00J C017 117.2(10) . . ?
C017 C00J C00M 121.4(14) . . ?
C006 C00K H00K 119.1 . . ?
C00W C00K C006 121.8(13) . . ?
C00W C00K H00K 119.1 . . ?
O00P C00L Bi01 53.1(7) . . ?
O00P C00L O00U 119.3(13) . . ?
O00P C00L C00W 117.2(13) . . ?
O00U C00L Bi01 66.5(8) . . ?
O00U C00L C00W 122.8(13) . . ?
C00W C00L Bi01 170.0(10) . . ?
C00J C00M C011 119.4(9) . . ?
C00R C00M C00J 121.1(10) . . ?
C00R C00M C011 119.1(9) . . ?
C00E C00N H00N 128.6 . . ?
C00E C00N C00R 102.7(11) . . ?
C00R C00N H00N 128.6 . . ?
C00L O00P Bi01 103.8(10) . . ?
C00F C00Q H00Q 116.9 . . ?
C00W C00Q C00F 126.2(15) . . ?
C00W C00Q H00Q 116.9 . . ?
N007 C00R C00M 126.6(10) . . ?
N007 C00R C00N 113.7(9) . . ?
C00M C00R C00N 119.5(10) . . ?
C00H C00S H00S 119.2 . . ?
C00J C00S C00H 121.6(11) . . ?
C00J C00S H00S 119.2 . . ?
N004 C00T C01B 122.3(10) . . ?
N004 C00T C01R 114.7(10) . . ?
C01R C00T C01B 121.6(11) . . ?
C00L O00U Bi01 89.1(9) . . ?
C018 C00V H00V 123.2 . . ?
C01D C00V H00V 123.2 . . ?
C01D C00V C018 113.5(14) . . ?
C00K C00W C00L 117.9(13) . . ?
C00Q C00W C00K 118.5(12) . . ?
C00Q C00W C00L 123.5(14) . . ?
C006 C00X C00F 119.2(10) . . ?
C006 C00X C014 117.7(14) . . ?
C014 C00X C00F 123.0(14) . . ?
C010 C00Y H00Y 119.3 . . ?
C010 C00Y C01O 121.4(13) . . ?
C01O C00Y H00Y 119.3 . . ?
C01A N00Z H00Z 126.0 . . ?
C01A N00Z C01Q 107.9(9) . . ?
C01Q N00Z H00Z 126.0 . . ?
C00Y C010 C01B 121.1(12) . . ?
C00Y C010 C01T 115.5(10) . . ?
C01T C010 C01B 123.3(12) . . ?
N1 C011 C00M 131.6(11) . . ?
N1 C011 C01D 107.9(12) . . ?
C00M C011 C01D 120.3(11) . . ?
C01J C012 H012 118.2 . . ?
C01V C012 H012 118.2 . . ?
C01V C012 C01J 123.6(13) . . ?
C01G C013 H013 117.7 . . ?
C01H C013 H013 117.7 . . ?
C01H C013 C01G 124.6(16) . . ?
C00X C014 C008 118.3(9) . . ?
C01A C014 C008 120.1(9) . . ?
C01A C014 C00X 119.5(9) . . ?
C019 C015 H015 128.3 . . ?
C01R C015 H015 128.3 . . ?
C01R C015 C019 103.5(11) . . ?
C00J C017 H017 119.2 . . ?
C00J C017 C01N 121.5(12) . . ?
C01N C017 H017 119.2 . . ?
N1 C018 C00V 102.4(11) . . ?
C01B C018 N1 130.4(11) . . ?
C01B C018 C00V 127.1(12) . . ?
N004 C019 C015 107.0(11) . . ?
C01E C019 N004 131.4(13) . . ?
C01E C019 C015 121.5(13) . . ?
N00Z C01A C014 128.0(9) . . ?
C01F C01A N00Z 104.5(10) . . ?
C01F C01A C014 127.1(10) . . ?
C010 C01B C00T 116.3(10) . . ?
C018 C01B C00T 124.1(11) . . ?
C018 C01B C010 119.1(11) . . ?
C009 C01C H01C 120.3 . . ?
C01T C01C C009 119.3(13) . . ?
C01T C01C H01C 120.3 . . ?
C00V C01D C011 101.9(16) . . ?
C00V C01D H01D 129.1 . . ?
C011 C01D H01D 129.1 . . ?
C019 C01E C01J 122.7(13) . . ?
C019 C01E C01Q 126.2(12) . . ?
C01Q C01E C01J 111.1(11) . . ?
C01A C01F H01F 120.2 . . ?
C01A C01F C01L 119.7(13) . . ?
C01L C01F H01F 120.2 . . ?
C013 C01G H01G 120.0 . . ?
C01J C01G C013 119.9(15) . . ?
C01J C01G H01G 120.0 . . ?
C013 C01H C01K 121.1(14) . . ?
C013 C01H C01V 117.9(12) . . ?
C01K C01H C01V 119.7(13) . . ?
C012 C01J C01E 119.2(12) . . ?
C01G C01J C012 118.8(12) . . ?
C01G C01J C01E 121.6(12) . . ?
O005 C01K O016 125.3(14) . . ?
O005 C01K C01H 116.2(14) . . ?
O016 C01K C01H 115.0(14) . . ?
C01F C01L H01L 131.0 . . ?
C01F C01L C01Q 98.1(14) . . ?
C01Q C01L H01L 131.0 . . ?
C00C C01N C017 121.8(12) . . ?
C00C C01N H01N 119.1 . . ?
C017 C01N H01N 119.1 . . ?
C009 C01O C00Y 121.3(14) . . ?
C009 C01O H01O 119.4 . . ?
C00Y C01O H01O 119.4 . . ?
N00Z C01Q C01E 122.5(11) . . ?
N00Z C01Q C01L 109.6(11) . . ?
C01E C01Q C01L 127.9(11) . . ?
C00T C01R C015 106.1(12) . . ?
C00T C01R H01R 126.9 . . ?
C015 C01R H01R 126.9 . . ?
C010 C01T H01T 119.3 . . ?
C01C C01T C010 121.4(12) . . ?
C01C C01T H01T 119.3 . . ?
C012 C01V C01H 115.0(13) . . ?
C012 C01V H01V 122.5 . . ?
C01H C01V H01V 122.5 . . ?
loop_
_geom_bond_atom_site_label_1
_geom_bond_atom_site_label_2
_geom_bond_distance
_geom_bond_site_symmetry_2
_geom_bond_publ_flag
Bi01 O1 2.114(7) . ?
Bi01 O2 2.266(10) 1_565 ?
Bi01 O005 2.543(9) 1_655 ?
Bi01 O3 2.537(9) 1_665 ?
Bi01 C00L 2.837(12) . ?
Bi01 O00P 2.335(9) . ?
Bi01 O00U 2.603(10) . ?
O1 H1A 0.8746 . ?
O1 H1B 0.8726 . ?
O2 C00B 1.350(16) . ?
N004 C00T 1.286(14) . ?
N004 C019 1.449(17) . ?
O005 C01K 1.312(19) . ?
C006 H006 0.9300 . ?
C006 C00K 1.434(16) . ?
C006 C00X 1.43(2) . ?
N007 C008 1.339(13) . ?
N007 C00R 1.360(15) . ?
C008 C00E 1.483(15) . ?
C008 C014 1.493(14) . ?
C009 C00D 1.543(19) . ?
C009 C01C 1.365(19) . ?
C009 C01O 1.335(18) . ?
N1 H1 0.8600 . ?
N1 C011 1.299(15) . ?
N1 C018 1.370(16) . ?
C00B C00C 1.374(11) . ?
C00B O00I 1.256(16) . ?
C00C C00H 1.408(19) . ?
C00C C01N 1.318(16) . ?
C00D O3 1.247(15) . ?
C00D O00O 1.194(15) . ?
C00E H00E 0.9300 . ?
C00E C00N 1.420(13) . ?
C00F H00F 0.9300 . ?
C00F C00Q 1.390(12) . ?
C00F C00X 1.44(2) . ?
C00H H00H 0.9300 . ?
C00H C00S 1.493(18) . ?
C00J C00M 1.425(10) . ?
C00J C00S 1.308(19) . ?
C00J C017 1.41(2) . ?
C00K H00K 0.9300 . ?
C00K C00W 1.395(19) . ?
C00L O00P 1.150(16) . ?
C00L O00U 1.170(17) . ?
C00L C00W 1.563(16) . ?
C00M C00R 1.400(14) . ?
C00M C011 1.511(16) . ?
C00N H00N 0.9300 . ?
C00N C00R 1.445(15) . ?
C00Q H00Q 0.9300 . ?
C00Q C00W 1.28(2) . ?
C00S H00S 0.9300 . ?
C00T C01B 1.536(15) . ?
C00T C01R 1.356(17) . ?
C00V H00V 0.9300 . ?
C00V C018 1.439(17) . ?
C00V C01D 1.328(16) . ?
C00X C014 1.423(10) . ?
C00Y H00Y 0.9300 . ?
C00Y C010 1.357(17) . ?
C00Y C01O 1.389(14) . ?
N00Z H00Z 0.8600 . ?
N00Z C01A 1.364(14) . ?
N00Z C01Q 1.441(15) . ?
C010 C01B 1.469(16) . ?
C010 C01T 1.464(17) . ?
C011 C01D 1.52(2) . ?
C012 H012 0.9300 . ?
C012 C01J 1.428(17) . ?
C012 C01V 1.381(19) . ?
C013 H013 0.9300 . ?
C013 C01G 1.430(17) . ?
C013 C01H 1.295(19) . ?
C014 C01A 1.373(14) . ?
C015 H015 0.9300 . ?
C015 C019 1.454(18) . ?
C015 C01R 1.450(15) . ?
O016 C01K 1.378(19) . ?
C017 H017 0.9300 . ?
C017 C01N 1.438(15) . ?
C018 C01B 1.330(18) . ?
C019 C01E 1.271(17) . ?
C01A C01F 1.364(11) . ?
C01C H01C 0.9300 . ?
C01C C01T 1.358(16) . ?
C01D H01D 0.9300 . ?
C01E C01J 1.480(16) . ?
C01E C01Q 1.478(18) . ?
C01F H01F 0.9300 . ?
C01F C01L 1.365(16) . ?
C01G H01G 0.9300 . ?
C01G C01J 1.299(18) . ?
C01H C01K 1.496(18) . ?
C01H C01V 1.51(2) . ?
C01L H01L 0.9300 . ?
C01L C01Q 1.48(2) . ?
C01N H01N 0.9300 . ?
C01O H01O 0.9300 . ?
C01R H01R 0.9300 . ?
C01T H01T 0.9300 . ?
C01V H01V 0.9300 . ?
loop_
_geom_torsion_atom_site_label_1
_geom_torsion_atom_site_label_2
_geom_torsion_atom_site_label_3
_geom_torsion_atom_site_label_4
_geom_torsion
_geom_torsion_site_symmetry_1
_geom_torsion_site_symmetry_2
_geom_torsion_site_symmetry_3
_geom_torsion_site_symmetry_4
_geom_torsion_publ_flag
Bi01 O2 C00B C00C 179.3(10) 1_545 . . . ?
Bi01 O2 C00B O00I -0.1(16) 1_545 . . . ?
Bi01 O005 C01K O016 -19(2) 1_455 . . . ?
Bi01 O005 C01K C01H -177.0(10) 1_455 . . . ?
Bi01 C00L C00W C00K -167(5) . . . . ?
Bi01 C00L C00W C00Q 10(6) . . . . ?
O2 C00B C00C C00H 11(2) . . . . ?
O2 C00B C00C C01N -162.4(13) . . . . ?
N004 C00T C01B C010 -179.5(12) . . . . ?
N004 C00T C01B C018 9(2) . . . . ?
N004 C00T C01R C015 -15.9(19) . . . . ?
N004 C019 C01E C01J -179.9(13) . . . . ?
N004 C019 C01E C01Q 0(3) . . . . ?
C006 C00K C00W C00L -175.0(11) . . . . ?
C006 C00K C00W C00Q 7(2) . . . . ?
C006 C00X C014 C008 -85.5(17) . . . . ?
C006 C00X C014 C01A 111.0(15) . . . . ?
N007 C008 C00E C00N -4.3(18) . . . . ?
N007 C008 C014 C00X -176.6(15) . . . . ?
N007 C008 C014 C01A -13(2) . . . . ?
C008 N007 C00R C00M -171.5(18) . . . . ?
C008 N007 C00R C00N 2.5(15) . . . . ?
C008 C00E C00N C00R 5.3(18) . . . . ?
C008 C014 C01A N00Z 13(2) . . . . ?
C008 C014 C01A C01F -175.2(13) . . . . ?
C009 C00D O3 Bi01 -173.2(8) . . . 1_445 ?
C009 C01C C01T C010 0(2) . . . . ?
N1 C011 C01D C00V -0.5(16) . . . . ?
N1 C018 C01B C00T -4(3) . . . . ?
N1 C018 C01B C010 -175.0(13) . . . . ?
C00B C00C C00H C00S 175.2(13) . . . . ?
C00B C00C C01N C017 -175.6(12) . . . . ?
C00C C00H C00S C00J 8(2) . . . . ?
C00D C009 C01C C01T -171.8(12) . . . . ?
C00D C009 C01O C00Y 173.9(11) . . . . ?
C00E C008 C014 C00X 8(2) . . . . ?
C00E C008 C014 C01A 171.8(13) . . . . ?
C00E C00N C00R N007 -5.0(19) . . . . ?
C00E C00N C00R C00M 169.5(15) . . . . ?
C00F C00Q C00W C00K -9(3) . . . . ?
C00F C00Q C00W C00L 173.8(15) . . . . ?
C00F C00X C014 C008 99.2(16) . . . . ?
C00F C00X C014 C01A -64.3(19) . . . . ?
C00H C00C C01N C017 10.9(19) . . . . ?
O00I C00B C00C C00H -169.8(14) . . . . ?
O00I C00B C00C C01N 17(2) . . . . ?
C00J C00M C00R N007 178.2(15) . . . . ?
C00J C00M C00R C00N 5(2) . . . . ?
C00J C00M C011 N1 174.6(16) . . . . ?
C00J C00M C011 C01D 0(2) . . . . ?
C00J C017 C01N C00C -6.8(19) . . . . ?
C00K C006 C00X C00F 2.3(18) . . . . ?
C00K C006 C00X C014 -173.2(11) . . . . ?
C00M C00J C00S C00H 176.0(13) . . . . ?
C00M C00J C017 C01N -176.8(11) . . . . ?
C00M C011 C01D C00V 175.5(13) . . . . ?
O00O C00D O3 Bi01 1(2) . . . 1_445 ?
O00P C00L O00U Bi01 -5.6(15) . . . . ?
O00P C00L C00W C00K -179.9(13) . . . . ?
O00P C00L C00W C00Q -2(2) . . . . ?
C00Q C00F C00X C006 -3(2) . . . . ?
C00Q C00F C00X C014 172.2(13) . . . . ?
C00R N007 C008 C00E 1.1(14) . . . . ?
C00R N007 C008 C014 -174.2(18) . . . . ?
C00R C00M C011 N1 2(2) . . . . ?
C00R C00M C011 C01D -172.7(14) . . . . ?
C00S C00J C00M C00R -116.2(17) . . . . ?
C00S C00J C00M C011 71.6(19) . . . . ?
C00S C00J C017 C01N 2.8(19) . . . . ?
C00T N004 C019 C015 -0.7(14) . . . . ?
C00T N004 C019 C01E 176.6(18) . . . . ?
O00U C00L O00P Bi01 6.4(17) . . . . ?
O00U C00L C00W C00K -9.3(19) . . . . ?
O00U C00L C00W C00Q 168.1(15) . . . . ?
C00V C018 C01B C00T 172.9(12) . . . . ?
C00V C018 C01B C010 1(2) . . . . ?
C00W C00L O00P Bi01 177.3(9) . . . . ?
C00W C00L O00U Bi01 -176.0(11) . . . . ?
C00X C006 C00K C00W -4.5(19) . . . . ?
C00X C00F C00Q C00W 7(3) . . . . ?
C00X C014 C01A N00Z 176.2(14) . . . . ?
C00X C014 C01A C01F -12(2) . . . . ?
C00Y C010 C01B C00T 84.2(15) . . . . ?
C00Y C010 C01B C018 -103.8(16) . . . . ?
C00Y C010 C01T C01C 4.2(18) . . . . ?
N00Z C01A C01F C01L 3.7(17) . . . . ?
C010 C00Y C01O C009 -3(2) . . . . ?
C011 N1 C018 C00V 10.2(14) . . . . ?
C011 N1 C018 C01B -172.7(16) . . . . ?
C011 C00M C00R N007 -10(2) . . . . ?
C011 C00M C00R C00N 176.7(13) . . . . ?
C013 C01G C01J C012 0(2) . . . . ?
C013 C01G C01J C01E -173.4(12) . . . . ?
C013 C01H C01K O005 -7(2) . . . . ?
C013 C01H C01K O016 -166.8(14) . . . . ?
C013 C01H C01V C012 5(2) . . . . ?
C014 C008 C00E C00N 171.6(14) . . . . ?
C014 C01A C01F C01L -169.6(14) . . . . ?
C015 C019 C01E C01J -3(2) . . . . ?
C015 C019 C01E C01Q 177.4(14) . . . . ?
C017 C00J C00M C00R 63(2) . . . . ?
C017 C00J C00M C011 -108.9(15) . . . . ?
C017 C00J C00S C00H -4(2) . . . . ?
C018 N1 C011 C00M 178.1(15) . . . . ?
C018 N1 C011 C01D -6.5(15) . . . . ?
C018 C00V C01D C011 7.0(17) . . . . ?
C019 N004 C00T C01B 177.0(13) . . . . ?
C019 N004 C00T C01R 10.5(15) . . . . ?
C019 C015 C01R C00T 13.7(19) . . . . ?
C019 C01E C01J C012 -91.4(18) . . . . ?
C019 C01E C01J C01G 82.3(19) . . . . ?
C019 C01E C01Q N00Z -1(2) . . . . ?
C019 C01E C01Q C01L -179.3(15) . . . . ?
C01A N00Z C01Q C01E 179.2(13) . . . . ?
C01A N00Z C01Q C01L -2.4(15) . . . . ?
C01A C01F C01L C01Q -4.9(16) . . . . ?
C01B C00T C01R C015 177.5(12) . . . . ?
C01B C010 C01T C01C -177.2(12) . . . . ?
C01C C009 C00D O3 -7.2(19) . . . . ?
C01C C009 C00D O00O 178.7(14) . . . . ?
C01C C009 C01O C00Y 7(2) . . . . ?
C01D C00V C018 N1 -10.7(17) . . . . ?
C01D C00V C018 C01B 172.0(15) . . . . ?
C01F C01L C01Q N00Z 4.1(14) . . . . ?
C01F C01L C01Q C01E -177.7(14) . . . . ?
C01G C013 C01H C01K -173.1(13) . . . . ?
C01G C013 C01H C01V -6(2) . . . . ?
C01H C013 C01G C01J 3(2) . . . . ?
C01J C012 C01V C01H -2(2) . . . . ?
C01J C01E C01Q N00Z 179.0(12) . . . . ?
C01J C01E C01Q C01L 1(2) . . . . ?
C01K C01H C01V C012 172.6(14) . . . . ?
C01N C00C C00H C00S -11(2) . . . . ?
C01O C009 C00D O3 -173.9(12) . . . . ?
C01O C009 C00D O00O 12(2) . . . . ?
C01O C009 C01C C01T -6(2) . . . . ?
C01O C00Y C010 C01B 178.5(11) . . . . ?
C01O C00Y C010 C01T -2.9(17) . . . . ?
C01Q N00Z C01A C014 172.8(14) . . . . ?
C01Q N00Z C01A C01F -0.4(14) . . . . ?
C01Q C01E C01J C012 88.3(15) . . . . ?
C01Q C01E C01J C01G -98.0(16) . . . . ?
C01R C00T C01B C010 -13.9(19) . . . . ?
C01R C00T C01B C018 174.5(15) . . . . ?
C01R C015 C019 N004 -8.0(18) . . . . ?
C01R C015 C019 C01E 174.3(15) . . . . ?
C01T C010 C01B C00T -94.4(15) . . . . ?
C01T C010 C01B C018 77.7(17) . . . . ?
C01V C012 C01J C01E 173.4(13) . . . . ?
C01V C012 C01J C01G 0(2) . . . . ?
C01V C01H C01K O005 -173.5(15) . . . . ?
C01V C01H C01K O016 26(2) . . . . ?
loop_
_twin_individual_id
_twin_individual_mass_fraction_refined
1 0.804(11)
2 0.196(11)
loop_
_smtbx_masks_void_nr
_smtbx_masks_void_average_x
_smtbx_masks_void_average_y
_smtbx_masks_void_average_z
_smtbx_masks_void_volume
_smtbx_masks_void_count_electrons
_smtbx_masks_void_content
1 -0.250 0.000 -0.211 1202.3 289.1 ?
2 0.250 0.500 0.527 1202.3 291.1 ?
