#------------------------------------------------------------------------------
#$Date: 2023-07-05 12:43:05 +0300 (Wed, 05 Jul 2023) $
#$Revision: 284896 $
#$URL: file:///home/coder/svn-repositories/cod/cif/1/56/91/1569120.cif $
#------------------------------------------------------------------------------
#
# This file is available in the Crystallography Open Database (COD),
# http://www.crystallography.net/
#
# All data on this site have been placed in the public domain by the
# contributors.
#
data_1569120
loop_
_publ_author_name
'Dhamija, Avinash'
'Chandel, Dolly'
'Rath, Sankar Prasad'
_publ_section_title
;
 Modulation of supramolecular chirality by stepwise axial coordination in
 a nano-size trizinc(ii)porphyrin trimer.
;
_journal_issue                   22
_journal_name_full               'Chemical science'
_journal_page_first              6032
_journal_page_last               6038
_journal_paper_doi               10.1039/d3sc00858d
_journal_volume                  14
_journal_year                    2023
_chemical_formula_sum            'C132 H128 Cl4 N16 O2 Zn3'
_chemical_formula_weight         2308.41
_space_group_crystal_system      triclinic
_space_group_IT_number           1
_space_group_name_Hall           'P 1'
_space_group_name_H-M_alt        'P 1'
_atom_sites_solution_hydrogens   geom
_audit_creation_method           SHELXL-2018/3
_audit_update_record
;
2022-10-19 deposited with the CCDC.	2023-05-10 downloaded from the CCDC.
;
_cell_angle_alpha                82.663(4)
_cell_angle_beta                 72.777(4)
_cell_angle_gamma                72.012(4)
_cell_formula_units_Z            1
_cell_length_a                   12.967(2)
_cell_length_b                   14.683(2)
_cell_length_c                   17.866(3)
_cell_measurement_reflns_used    999
_cell_measurement_temperature    100(2)
_cell_measurement_theta_max      27.0
_cell_measurement_theta_min      2.5
_cell_volume                     3087.8(8)
_computing_cell_refinement       'Bruker SAINT'
_computing_data_collection       'Bruker APEX'
_computing_data_reduction        'Bruker SAINT'
_computing_molecular_graphics    'SHELXL 5.1, XP (Sheldrick, 1994)'
_computing_publication_material  SHELXL-97
_computing_structure_refinement  'SHELXL-2018/3 (Sheldrick, 2018)'
_computing_structure_solution    'SHELXS-97 (Sheldrick, 2008)'
_diffrn_ambient_temperature      100(2)
_diffrn_measured_fraction_theta_full 0.998
_diffrn_measured_fraction_theta_max 0.998
_diffrn_measurement_device_type  'Bruker SMART APEX'
_diffrn_measurement_method       \w
_diffrn_radiation_type           MoK\a
_diffrn_radiation_wavelength     0.71073
_diffrn_reflns_av_R_equivalents  0.0472
_diffrn_reflns_av_unetI/netI     0.0868
_diffrn_reflns_Laue_measured_fraction_full 0.998
_diffrn_reflns_Laue_measured_fraction_max 0.998
_diffrn_reflns_limit_h_max       15
_diffrn_reflns_limit_h_min       -15
_diffrn_reflns_limit_k_max       17
_diffrn_reflns_limit_k_min       -17
_diffrn_reflns_limit_l_max       21
_diffrn_reflns_limit_l_min       -21
_diffrn_reflns_number            35188
_diffrn_reflns_point_group_measured_fraction_full 0.985
_diffrn_reflns_point_group_measured_fraction_max 0.985
_diffrn_reflns_theta_full        25.000
_diffrn_reflns_theta_max         25.500
_diffrn_reflns_theta_min         2.750
_diffrn_source                   'fine-focus sealed tube'
_exptl_absorpt_coefficient_mu    0.721
_exptl_absorpt_correction_T_max  0.930
_exptl_absorpt_correction_T_min  0.886
_exptl_absorpt_correction_type   multi-scan
_exptl_absorpt_process_details   'SADABS 2.05 (Sheldrick, 2002)'
_exptl_crystal_colour            'dark red'
_exptl_crystal_density_diffrn    1.241
_exptl_crystal_description       block
_exptl_crystal_F_000             1206
_exptl_crystal_size_max          0.180
_exptl_crystal_size_mid          0.140
_exptl_crystal_size_min          0.100
_refine_diff_density_max         0.588
_refine_diff_density_min         -0.553
_refine_diff_density_rms         0.061
_refine_ls_abs_structure_details
;
 Refined as an inversion twin.
;
_refine_ls_abs_structure_Flack   0.066(9)
_refine_ls_extinction_method     none
_refine_ls_goodness_of_fit_ref   1.007
_refine_ls_hydrogen_treatment    constr
_refine_ls_matrix_type           full
_refine_ls_number_parameters     1431
_refine_ls_number_reflns         22655
_refine_ls_number_restraints     3
_refine_ls_restrained_S_all      1.007
_refine_ls_R_factor_all          0.0506
_refine_ls_R_factor_gt           0.0452
_refine_ls_shift/su_max          0.021
_refine_ls_shift/su_mean         0.000
_refine_ls_structure_factor_coef Fsqd
_refine_ls_weighting_details
'w=1/[\s^2^(Fo^2^)+(0.0415P)^2^] where P=(Fo^2^+2Fc^2^)/3'
_refine_ls_weighting_scheme      calc
_refine_ls_wR_factor_gt          0.1058
_refine_ls_wR_factor_ref         0.1086
_reflns_Friedel_coverage         0.974
_reflns_Friedel_fraction_full    0.972
_reflns_Friedel_fraction_max     0.972
_reflns_number_gt                20620
_reflns_number_total             22655
_reflns_threshold_expression     'I > 2\s(I)'
_cod_data_source_file            d3sc00858d2.cif
_cod_data_source_block           shelx_CCDC2
_cod_depositor_comments
'Adding full bibliography for 1569118--1569120.cif.'
_cod_original_cell_volume        3087.6(8)
_cod_database_code               1569120
_shelx_shelxl_version_number     2018/3
_shelx_space_group_comment
;
The symmetry employed for this shelxl refinement is uniquely defined
by the following loop, which should always be used as a source of
symmetry information in preference to the above space-group names.
They are only intended as comments.
;
_shelx_estimated_absorpt_t_min   0.881
_shelx_estimated_absorpt_t_max   0.931
_shelx_res_file
;
TITL 21jana_0m_b.res in P1
    shelx.res
    created by SHELXL-2018/3 at 13:49:39 on 16-Oct-2022
REM Old TITL 21jana_0m in P1
REM Formula found by SHELXT: C128 Cl4 N17 O8 Zn3
CELL 0.71073 12.9666 14.6829 17.8657 82.663 72.777 72.012
ZERR 1 0.002 0.0022 0.0025 0.004 0.004 0.004
LATT -1
SFAC C H Cl N O Zn
UNIT 132 128 4 16 2 3
L.S. 20
PLAN  10
BOND $H
FMAP 2
OMIT -3 51.0
OMIT -2  -2   0
OMIT     2   2   0
OMIT     0   2   2
OMIT    -1  -3   0
OMIT     2  -1   0
OMIT    -2   1   0
OMIT     1   3   0
OMIT     0   3   0
OMIT    -3   0   0
OMIT     0   0   2
OMIT     0   0  -2
OMIT    -1   2   1
OMIT     0  -2  -2
OMIT     1  -1   0
OMIT    -1   1   0
OMIT     3   0   0
OMIT     1  -2  -1
HTAB N1L N2L
bond Zn2 N2L
omit 1 1 2
ACTA 50
LIST 4
TEMP -173.0
SIZE 0.18 0.14 0.10 ! red block
twin
ABIN
WGHT    0.041500
BASF   0.06556
FVAR       0.46587
ZN1   6    0.301463    0.475492    0.857620    11.00000    0.01147    0.01584 =
         0.01912   -0.00226   -0.00180   -0.00400
ZN2   6    0.501310    0.499151    0.480800    11.00000    0.01070    0.01259 =
         0.01485   -0.00092    0.00006   -0.00311
ZN3   6    0.699824    0.529470    0.140344    11.00000    0.01158    0.01500 =
         0.01613   -0.00139   -0.00164   -0.00444
CL1   3    0.891055    0.433597    0.567457    11.00000    0.02806    0.04186 =
         0.03914   -0.01645   -0.01345   -0.00187
CL2   3    0.930664    0.288126    0.292490    11.00000    0.02456    0.04421 =
         0.02722   -0.01359   -0.00502    0.00468
CL3   3    0.084519    0.698787    0.718374    11.00000    0.02384    0.05015 =
         0.02646   -0.01270    0.00071   -0.00127
CL4   3    0.111843    0.580893    0.435746    11.00000    0.03299    0.04731 =
         0.04024   -0.01130   -0.01526   -0.00960
O1    5    0.528639    0.147658    0.672942    11.00000    0.03306    0.01494 =
         0.02117    0.00080   -0.00741   -0.00828
O2    5    0.474525    0.856992    0.331006    11.00000    0.03574    0.01635 =
         0.01945    0.00099   -0.00691   -0.00919
N1    4    0.464103    0.390467    0.855106    11.00000    0.01192    0.01789 =
         0.01845   -0.00239   -0.00277   -0.00422
N1L   4    0.352747    0.531264    0.739206    11.00000    0.01694    0.02587 =
         0.01809   -0.00351   -0.00260   -0.00605
AFIX  23
H1LA  2    0.394098    0.481576    0.707310    11.00000   -1.20000
H1LB  2    0.290311    0.561969    0.722672    11.00000   -1.20000
AFIX   0
N2    4    0.325066    0.575000    0.920512    11.00000    0.01346    0.01768 =
         0.02205   -0.00335   -0.00371   -0.00754
N2L   4    0.581873    0.483276    0.654815    11.00000    0.01949    0.03262 =
         0.04036   -0.01201   -0.00200    0.00008
AFIX  93
H2LC  2    0.653812    0.464137    0.653232    11.00000   -1.20000
H2LD  2    0.546902    0.441068    0.653436    11.00000   -1.20000
AFIX   0
N3    4    0.131469    0.541534    0.895626    11.00000    0.01089    0.01930 =
         0.01741   -0.00010   -0.00040   -0.00335
N3L   4    0.465724    0.511946    0.366676    11.00000    0.01677    0.01690 =
         0.02159    0.00022   -0.00221   -0.00596
AFIX  23
H3LA  2    0.389459    0.533584    0.376140    11.00000   -1.20000
H3LB  2    0.493245    0.559713    0.338735    11.00000   -1.20000
AFIX   0
N4L   4    0.690811    0.460715    0.257486    11.00000    0.01299    0.02374 =
         0.01779   -0.00248   -0.00153   -0.00271
AFIX  23
H4LA  2    0.763770    0.433420    0.258276    11.00000   -1.20000
H4LB  2    0.663320    0.509864    0.290841    11.00000   -1.20000
AFIX   0
N4    4    0.269550    0.351110    0.838110    11.00000    0.01296    0.01762 =
         0.02534   -0.00346   -0.00293   -0.00575
N5    4    0.641247    0.550318    0.448409    11.00000    0.01584    0.01288 =
         0.01343    0.00131   -0.00058   -0.00392
N6    4    0.399968    0.639508    0.500024    11.00000    0.00933    0.01469 =
         0.01313   -0.00127    0.00129   -0.00259
N7    4    0.366988    0.451906    0.548360    11.00000    0.01062    0.01531 =
         0.01635   -0.00164   -0.00112   -0.00076
N8    4    0.607878    0.363549    0.497698    11.00000    0.01493    0.01459 =
         0.01557   -0.00081   -0.00189   -0.00493
N9    4    0.536226    0.610668    0.151844    11.00000    0.01563    0.01654 =
         0.02024   -0.00007   -0.00430   -0.00471
N10   4    0.676408    0.430583    0.078410    11.00000    0.01387    0.01723 =
         0.01459   -0.00295   -0.00177   -0.00274
N11   4    0.871130    0.465104    0.100908    11.00000    0.01385    0.01795 =
         0.02296   -0.00005   -0.00351   -0.00741
N12   4    0.732031    0.652368    0.164100    11.00000    0.01406    0.01666 =
         0.01767   -0.00264   -0.00246   -0.00609
C1    1    0.515751    0.300636    0.826230    11.00000    0.01748    0.01624 =
         0.01596   -0.00085   -0.00351   -0.00505
C1L   1    0.420427    0.598813    0.731898    11.00000    0.01493    0.02812 =
         0.01621    0.00100   -0.00083   -0.00478
AFIX  13
H1LC  2    0.452129    0.584530    0.778168    11.00000   -1.20000
AFIX   0
C2    1    0.640212    0.281941    0.808353    11.00000    0.01274    0.02263 =
         0.02170   -0.00419   -0.00630   -0.00046
C2L   1    0.346569    0.702794    0.737854    11.00000    0.01723    0.02645 =
         0.02346    0.00244    0.00039   -0.00386
AFIX  23
H2LA  2    0.315299    0.721207    0.692029    11.00000   -1.20000
H2LB  2    0.282795    0.709086    0.785820    11.00000   -1.20000
AFIX   0
C3    1    0.656062    0.359948    0.832010    11.00000    0.01483    0.02375 =
         0.01947    0.00003   -0.00527   -0.00417
C3L   1    0.414960    0.769576    0.740595    11.00000    0.03610    0.02411 =
         0.03349   -0.00293   -0.00657   -0.00733
AFIX  23
H3LC  2    0.438142    0.756532    0.789870    11.00000   -1.20000
H3LD  2    0.367770    0.836931    0.739957    11.00000   -1.20000
AFIX   0
C4    1    0.545852    0.425972    0.862826    11.00000    0.01599    0.01897 =
         0.01476   -0.00017   -0.00320   -0.00484
C4L   1    0.519623    0.755122    0.670375    11.00000    0.03266    0.03500 =
         0.03422    0.00831   -0.00653   -0.01895
AFIX  23
H4LC  2    0.495875    0.778847    0.621922    11.00000   -1.20000
H4LD  2    0.566964    0.793688    0.676530    11.00000   -1.20000
AFIX   0
C5L   1    0.589394    0.650990    0.661726    11.00000    0.02274    0.04442 =
         0.02586    0.00520   -0.00141   -0.01256
AFIX  23
H5LA  2    0.651406    0.645065    0.612716    11.00000   -1.20000
H5LB  2    0.623463    0.630211    0.706131    11.00000   -1.20000
AFIX   0
C5    1    0.528452    0.512010    0.898090    11.00000    0.01657    0.01978 =
         0.02068    0.00084   -0.00350   -0.00726
AFIX  43
H5A   2    0.593799    0.524586    0.902842    11.00000   -1.20000
AFIX   0
C6    1    0.427082    0.580090    0.926514    11.00000    0.01662    0.01624 =
         0.01755    0.00033   -0.00482   -0.00448
C6L   1    0.520000    0.585955    0.659771    11.00000    0.01937    0.03692 =
         0.01497    0.00166   -0.00125   -0.00586
AFIX  13
H6LA  2    0.490125    0.605694    0.612779    11.00000   -1.20000
AFIX   0
C7L   1    0.504350    0.431306    0.313186    11.00000    0.02041    0.02008 =
         0.01718   -0.00209   -0.00133   -0.00601
AFIX  13
H7LA  2    0.485259    0.455745    0.262648    11.00000   -1.20000
AFIX   0
C7    1    0.411825    0.668258    0.963575    11.00000    0.02028    0.01355 =
         0.01807    0.00253   -0.00502   -0.00900
C8L   1    0.442165    0.356570    0.352171    11.00000    0.02760    0.03432 =
         0.01624    0.00076   -0.00027   -0.01494
AFIX  23
H8LA  2    0.453454    0.338071    0.405068    11.00000   -1.20000
H8LB  2    0.360400    0.385062    0.358295    11.00000   -1.20000
AFIX   0
C8    1    0.299881    0.715080    0.980329    11.00000    0.02139    0.01912 =
         0.01877   -0.00176   -0.00342   -0.00926
C9    1    0.245495    0.657395    0.952447    11.00000    0.01612    0.02032 =
         0.01557   -0.00003    0.00131   -0.00761
C9L   1    0.484678    0.267462    0.303551    11.00000    0.05174    0.03481 =
         0.02100   -0.00254   -0.00319   -0.02568
AFIX  23
H9LA  2    0.448108    0.218431    0.332397    11.00000   -1.20000
H9LB  2    0.463738    0.284270    0.253504    11.00000   -1.20000
AFIX   0
C10L  1    0.610125    0.226845    0.286655    11.00000    0.05507    0.02176 =
         0.02106   -0.00635   -0.00089   -0.01278
AFIX  23
H10A  2    0.635546    0.171166    0.253008    11.00000   -1.20000
H10B  2    0.630400    0.204111    0.336440    11.00000   -1.20000
AFIX   0
C10   1    0.133129    0.681435    0.955544    11.00000    0.01670    0.01483 =
         0.02114   -0.00275   -0.00083   -0.00319
AFIX  43
H10C  2    0.087307    0.740712    0.978197    11.00000   -1.20000
AFIX   0
C11   1    0.079190    0.629066    0.929401    11.00000    0.00873    0.02157 =
         0.02116    0.00092    0.00113   -0.00334
C11L  1    0.669811    0.300948    0.245876    11.00000    0.03491    0.02211 =
         0.01581   -0.00275    0.00060   -0.00828
AFIX  23
H11A  2    0.652874    0.321405    0.194769    11.00000   -1.20000
H11B  2    0.752276    0.272393    0.235848    11.00000   -1.20000
AFIX   0
C12L  1    0.631256    0.388319    0.296960    11.00000    0.01978    0.01779 =
         0.01560    0.00029   -0.00126   -0.00337
AFIX  13
H12A  2    0.649956    0.366776    0.347993    11.00000   -1.20000
AFIX   0
C12   1   -0.041620    0.655101    0.937260    11.00000    0.01490    0.02710 =
         0.02219    0.00280   -0.00211   -0.00813
C13   1   -0.059739    0.581653    0.908756    11.00000    0.01259    0.02686 =
         0.02110    0.00056   -0.00149   -0.00616
C14   1    0.048040    0.511191    0.883540    11.00000    0.01843    0.02513 =
         0.01793    0.00169   -0.00194   -0.01051
C15   1    0.066637    0.422267    0.854278    11.00000    0.01276    0.02836 =
         0.02936   -0.00336   -0.00306   -0.00956
AFIX  43
H15A  2    0.003508    0.411811    0.843916    11.00000   -1.20000
AFIX   0
C16   1    0.166107    0.346088    0.838061    11.00000    0.01813    0.02296 =
         0.02234    0.00099   -0.00386   -0.00871
C17   1    0.169415    0.250199    0.827274    11.00000    0.01779    0.02435 =
         0.02772   -0.00431   -0.00024   -0.00954
C18   1    0.277063    0.193202    0.824874    11.00000    0.02458    0.02098 =
         0.02097   -0.00524   -0.00028   -0.00954
C19   1    0.341600    0.258978    0.828059    11.00000    0.01409    0.01900 =
         0.01947   -0.00257   -0.00209   -0.00644
C20   1    0.458585    0.235697    0.819539    11.00000    0.01478    0.01690 =
         0.01828   -0.00392   -0.00222   -0.00316
C21   1    0.735608    0.202312    0.764091    11.00000    0.01359    0.02438 =
         0.02847   -0.00510   -0.00247   -0.00075
AFIX  23
H21A  2    0.805512    0.197367    0.778185    11.00000   -1.20000
H21B  2    0.717566    0.140569    0.779049    11.00000   -1.20000
AFIX   0
C22   1    0.753934    0.221762    0.676712    11.00000    0.03965    0.04956 =
         0.03764   -0.00999    0.00232   -0.00776
AFIX 137
H22A  2    0.809093    0.165988    0.648927    11.00000   -1.50000
H22B  2    0.782157    0.277958    0.660860    11.00000   -1.50000
H22C  2    0.682437    0.233953    0.663680    11.00000   -1.50000
AFIX   0
C23   1    0.765993    0.378293    0.825742    11.00000    0.01315    0.02237 =
         0.03827   -0.00655   -0.00805   -0.00088
AFIX 137
H23A  2    0.825634    0.317293    0.821174    11.00000   -1.50000
H23B  2    0.759674    0.409842    0.872706    11.00000   -1.50000
H23C  2    0.784462    0.419725    0.779253    11.00000   -1.50000
AFIX   0
C24   1    0.503318    0.699416    0.978782    11.00000    0.01930    0.02022 =
         0.02370   -0.00230   -0.00471   -0.00783
AFIX  23
H24A  2    0.568502    0.642492    0.979430    11.00000   -1.20000
H24B  2    0.475616    0.726942    1.031293    11.00000   -1.20000
AFIX   0
C25   1    0.542261    0.772520    0.918648    11.00000    0.03075    0.02989 =
         0.04697    0.00611   -0.01440   -0.01558
AFIX 137
H25A  2    0.604058    0.787777    0.930493    11.00000   -1.50000
H25B  2    0.479460    0.830891    0.920114    11.00000   -1.50000
H25C  2    0.568540    0.746336    0.866313    11.00000   -1.50000
AFIX   0
C26   1    0.238681    0.807996    1.020577    11.00000    0.01859    0.02374 =
         0.03486   -0.00756   -0.00268   -0.00355
AFIX 137
H26A  2    0.292581    0.832910    1.034059    11.00000   -1.50000
H26B  2    0.182151    0.797292    1.068510    11.00000   -1.50000
H26C  2    0.201344    0.854464    0.985445    11.00000   -1.50000
AFIX   0
C27   1   -0.127472    0.746040    0.969486    11.00000    0.01476    0.02968 =
         0.03508   -0.00913   -0.00165   -0.00283
AFIX 137
H27A  2   -0.201871    0.735152    0.989481    11.00000   -1.50000
H27B  2   -0.129394    0.796384    0.927813    11.00000   -1.50000
H27C  2   -0.107212    0.765965    1.012208    11.00000   -1.50000
AFIX   0
C28   1   -0.169533    0.573506    0.903169    11.00000    0.01481    0.02657 =
         0.03648   -0.00180   -0.00350   -0.00600
AFIX  23
H28A  2   -0.231666    0.609894    0.945361    11.00000   -1.20000
H28B  2   -0.169190    0.505447    0.910944    11.00000   -1.20000
AFIX   0
C29   1   -0.190200    0.611742    0.824140    11.00000    0.03604    0.04489 =
         0.04938    0.00973   -0.01956   -0.02018
AFIX 137
H29A  2   -0.259866    0.601282    0.821020    11.00000   -1.50000
H29B  2   -0.126859    0.578105    0.782154    11.00000   -1.50000
H29C  2   -0.197204    0.680499    0.818278    11.00000   -1.50000
AFIX   0
C30   1    0.071864    0.218196    0.823103    11.00000    0.02251    0.02103 =
         0.05849   -0.01296   -0.00806   -0.00682
AFIX 137
H30A  2    0.098964    0.151432    0.807573    11.00000   -1.50000
H30B  2    0.036396    0.258895    0.784377    11.00000   -1.50000
H30C  2    0.016614    0.223389    0.874641    11.00000   -1.50000
AFIX   0
C31   1    0.307543    0.084996    0.831753    11.00000    0.02028    0.01713 =
         0.04767   -0.00003    0.00345   -0.00823
AFIX  23
H31A  2    0.388714    0.058329    0.805636    11.00000   -1.20000
H31B  2    0.264529    0.062741    0.804053    11.00000   -1.20000
AFIX   0
C32   1    0.283077    0.046911    0.916372    11.00000    0.06797    0.03111 =
         0.06994    0.00547    0.01111   -0.01242
AFIX 137
H32A  2    0.303717   -0.023237    0.917604    11.00000   -1.50000
H32B  2    0.202601    0.072286    0.942358    11.00000   -1.50000
H32C  2    0.327130    0.067119    0.943735    11.00000   -1.50000
AFIX   0
C33   1    0.526740    0.135132    0.807459    11.00000    0.01834    0.02294 =
         0.01864    0.00109   -0.00176   -0.01014
C34   1    0.563117    0.079225    0.870080    11.00000    0.02565    0.02482 =
         0.02146   -0.00033   -0.00671   -0.00766
AFIX  43
H34A  2    0.539239    0.106006    0.920189    11.00000   -1.20000
AFIX   0
C35   1    0.632183   -0.012941    0.860418    11.00000    0.03617    0.02108 =
         0.03346    0.00855   -0.01583   -0.00574
AFIX  43
H35A  2    0.654101   -0.049586    0.903872    11.00000   -1.20000
AFIX   0
C36   1    0.669921   -0.052575    0.787673    11.00000    0.03023    0.01846 =
         0.04220    0.00110   -0.00582    0.00334
AFIX  43
H36A  2    0.718841   -0.116010    0.781165    11.00000   -1.20000
AFIX   0
C37   1    0.636867   -0.000349    0.723913    11.00000    0.02956    0.02001 =
         0.02996   -0.00288    0.00089   -0.00634
AFIX  43
H37A  2    0.663846   -0.027205    0.673681    11.00000   -1.20000
AFIX   0
C38   1    0.563862    0.091607    0.734757    11.00000    0.01764    0.01934 =
         0.02064    0.00159   -0.00526   -0.00505
C51   1    0.574743    0.282104    0.521520    11.00000    0.02025    0.01587 =
         0.01165   -0.00424   -0.00248   -0.00277
C52   1    0.672832    0.200156    0.510061    11.00000    0.02469    0.01881 =
         0.01753    0.00104   -0.00155   -0.00554
AFIX  43
H52A  2    0.673347    0.134948    0.520417    11.00000   -1.20000
AFIX   0
C53   1    0.764307    0.233197    0.481774    11.00000    0.01401    0.01748 =
         0.02390   -0.00244    0.00025   -0.00230
AFIX  43
H53A  2    0.840955    0.195733    0.469253    11.00000   -1.20000
AFIX   0
C54   1    0.723193    0.335743    0.474340    11.00000    0.01321    0.01912 =
         0.00978   -0.00160   -0.00023   -0.00041
C55   1    0.790844    0.397661    0.444323    11.00000    0.01148    0.02300 =
         0.01252   -0.00474   -0.00058   -0.00206
C56   1    0.752055    0.497763    0.429763    11.00000    0.00899    0.01781 =
         0.01758   -0.00636    0.00090   -0.00159
C57   1    0.822734    0.558729    0.393191    11.00000    0.01428    0.02258 =
         0.02829    0.00016   -0.00285   -0.00786
AFIX  43
H57A  2    0.902486    0.539432    0.373493    11.00000   -1.20000
AFIX   0
C58   1    0.754033    0.648011    0.392368    11.00000    0.02066    0.02345 =
         0.02197   -0.00069    0.00010   -0.01208
AFIX  43
H58A  2    0.776591    0.703791    0.371231    11.00000   -1.20000
AFIX   0
C59   1    0.640288    0.644954    0.428963    11.00000    0.01612    0.01736 =
         0.01643   -0.00421   -0.00201   -0.00431
C60   1    0.545916    0.725028    0.445022    11.00000    0.01809    0.01651 =
         0.01439   -0.00085   -0.00043   -0.00792
C61   1    0.431919    0.721838    0.479967    11.00000    0.01446    0.01784 =
         0.01210   -0.00191    0.00205   -0.00452
C62   1    0.335600    0.804057    0.499060    11.00000    0.02116    0.01204 =
         0.01743   -0.00222   -0.00106   -0.00234
AFIX  43
H62A  2    0.335789    0.869246    0.492364    11.00000   -1.20000
AFIX   0
C63   1    0.244904    0.771257    0.528269    11.00000    0.01647    0.02001 =
         0.01663   -0.00237   -0.00305   -0.00092
AFIX  43
H63A  2    0.168651    0.808957    0.544977    11.00000   -1.20000
AFIX   0
C64   1    0.285166    0.668421    0.529420    11.00000    0.01326    0.01844 =
         0.01313   -0.00163   -0.00274   -0.00209
C65   1    0.217897    0.605209    0.559481    11.00000    0.01140    0.01627 =
         0.01621   -0.00134   -0.00161   -0.00147
C66   1    0.256923    0.506594    0.572056    11.00000    0.01771    0.02110 =
         0.01623   -0.00016   -0.00547   -0.00688
C67   1    0.187289    0.445419    0.613449    11.00000    0.01152    0.02382 =
         0.02380   -0.00340    0.00435   -0.00556
AFIX  43
H67A  2    0.108014    0.465309    0.635764    11.00000   -1.20000
AFIX   0
C68   1    0.255382    0.355438    0.614482    11.00000    0.01610    0.01996 =
         0.02341    0.00265    0.00188   -0.00835
AFIX  43
H68A  2    0.233685    0.300121    0.638373    11.00000   -1.20000
AFIX   0
C69   1    0.368985    0.359158    0.571842    11.00000    0.02236    0.02162 =
         0.01294    0.00153    0.00028   -0.01399
C70   1    0.464867    0.278126    0.555659    11.00000    0.01722    0.01827 =
         0.01117    0.00230   -0.00127   -0.00479
C71   1    0.440578    0.183361    0.571276    11.00000    0.01820    0.01734 =
         0.01557   -0.00319    0.00171   -0.00273
C72   1    0.381586    0.159017    0.527682    11.00000    0.02821    0.02325 =
         0.02247    0.00219   -0.00708   -0.01022
AFIX  43
H72A  2    0.359715    0.202456    0.487189    11.00000   -1.20000
AFIX   0
C73   1    0.353127    0.073582    0.540829    11.00000    0.03533    0.03132 =
         0.03341   -0.00438   -0.00723   -0.01794
AFIX  43
H73A  2    0.311426    0.059252    0.510524    11.00000   -1.20000
AFIX   0
C74   1    0.386572    0.009802    0.598792    11.00000    0.03911    0.02175 =
         0.02767    0.00270   -0.00464   -0.01659
AFIX  43
H74A  2    0.368071   -0.049153    0.607891    11.00000   -1.20000
AFIX   0
C75   1    0.446673    0.029987    0.644072    11.00000    0.03816    0.01405 =
         0.02232    0.00121   -0.00596   -0.00888
AFIX  43
H75A  2    0.469391   -0.014517    0.683741    11.00000   -1.20000
AFIX   0
C76   1    0.473211    0.117422    0.630098    11.00000    0.01833    0.01631 =
         0.02048   -0.00448   -0.00228   -0.00113
C77   1    0.915895    0.355427    0.431222    11.00000    0.01415    0.01932 =
         0.02502   -0.00157   -0.00067   -0.00382
C78   1    0.970125    0.367278    0.484068    11.00000    0.01855    0.02673 =
         0.02954   -0.00271   -0.00666   -0.00518
C79   1    1.083396    0.326453    0.477407    11.00000    0.02109    0.04314 =
         0.04568   -0.00792   -0.01427   -0.00130
AFIX  43
H79A  2    1.116734    0.335026    0.515735    11.00000   -1.20000
AFIX   0
C80   1    1.146831    0.272096    0.412051    11.00000    0.01842    0.05295 =
         0.04565   -0.00405   -0.00936    0.00345
AFIX  43
H80A  2    1.225075    0.243025    0.405986    11.00000   -1.20000
AFIX   0
C81   1    1.100752    0.259454    0.357199    11.00000    0.02017    0.04699 =
         0.03518   -0.00726    0.00076    0.00729
AFIX  43
H81A  2    1.145715    0.222145    0.313067    11.00000   -1.20000
AFIX   0
C82   1    0.985897    0.302099    0.366347    11.00000    0.01649    0.03548 =
         0.02663   -0.00169   -0.00354   -0.00196
C90   1    0.092223    0.649929    0.574960    11.00000    0.01407    0.01670 =
         0.02586   -0.00013   -0.00252   -0.00348
C91   1    0.025959    0.697287    0.642439    11.00000    0.01860    0.02128 =
         0.03000   -0.00305    0.00088   -0.00258
C92   1   -0.088564    0.743302    0.653595    11.00000    0.02034    0.03326 =
         0.04490   -0.00521   -0.00087    0.00090
AFIX  43
H92A  2   -0.131398    0.777372    0.699800    11.00000   -1.20000
AFIX   0
C93   1   -0.138752    0.738781    0.596931    11.00000    0.01402    0.04787 =
         0.06458   -0.00562   -0.00762    0.00472
AFIX  43
H93A  2   -0.216512    0.770785    0.603522    11.00000   -1.20000
AFIX   0
C94   1   -0.077091    0.688275    0.530911    11.00000    0.02271    0.04235 =
         0.05734   -0.00047   -0.02065   -0.00657
AFIX  43
H94A  2   -0.112409    0.682729    0.492776    11.00000   -1.20000
AFIX   0
C95   1    0.037089    0.645475    0.520408    11.00000    0.01938    0.02255 =
         0.04165   -0.00070   -0.00742   -0.00785
C101  1    0.483610    0.701002    0.181553    11.00000    0.01329    0.01951 =
         0.01253    0.00478   -0.00316   -0.00337
C102  1    0.361357    0.719739    0.199475    11.00000    0.01930    0.02148 =
         0.01812    0.00070   -0.00378   -0.00647
C103  1    0.344091    0.641699    0.176337    11.00000    0.01669    0.02095 =
         0.01771   -0.00017   -0.00549   -0.00482
C104  1    0.452661    0.575301    0.144989    11.00000    0.01376    0.01982 =
         0.01703    0.00467   -0.00455   -0.00792
C105  1    0.472172    0.490527    0.108972    11.00000    0.01334    0.02147 =
         0.01345   -0.00066   -0.00430   -0.00886
AFIX  43
H10D  2    0.406848    0.476665    0.105586    11.00000   -1.20000
AFIX   0
C106  1    0.573313    0.423952    0.077552    11.00000    0.01792    0.02147 =
         0.01563    0.00194   -0.00406   -0.01220
C107  1    0.589179    0.335176    0.041577    11.00000    0.02042    0.02456 =
         0.01035   -0.00073   -0.00534   -0.00597
C108  1    0.700335    0.290268    0.021790    11.00000    0.02114    0.02057 =
         0.01385   -0.00023   -0.00416   -0.00462
C109  1    0.753653    0.349643    0.045893    11.00000    0.01523    0.01872 =
         0.01448    0.00222   -0.00229   -0.00605
C110  1    0.870017    0.325540    0.040999    11.00000    0.01367    0.02318 =
         0.01597   -0.00370   -0.00201   -0.00240
AFIX  43
H11C  2    0.916193    0.266782    0.017593    11.00000   -1.20000
AFIX   0
C111  1    0.923204    0.378736    0.066781    11.00000    0.01641    0.01590 =
         0.01476    0.00149   -0.00124   -0.00337
C112  1    1.043481    0.350350    0.060906    11.00000    0.01050    0.02635 =
         0.02441   -0.00325    0.00014   -0.00397
C113  1    1.062157    0.423511    0.089733    11.00000    0.01390    0.02279 =
         0.02868    0.00495   -0.00153   -0.00614
C114  1    0.953737    0.494961    0.115277    11.00000    0.01126    0.01880 =
         0.02423    0.00008   -0.00259   -0.00497
C115  1    0.936277    0.583061    0.144963    11.00000    0.01745    0.02562 =
         0.02725    0.00195   -0.00852   -0.01057
AFIX  43
H11D  2    0.999951    0.594384    0.153772    11.00000   -1.20000
AFIX   0
C116  1    0.836526    0.656145    0.163130    11.00000    0.01888    0.02115 =
         0.02626   -0.00138   -0.00435   -0.01141
C117  1    0.830620    0.754703    0.174426    11.00000    0.02196    0.02328 =
         0.02865   -0.00356   -0.00367   -0.01113
C118  1    0.724677    0.809318    0.177654    11.00000    0.02073    0.01856 =
         0.02575   -0.00256    0.00193   -0.00827
C119  1    0.661146    0.743528    0.175329    11.00000    0.01999    0.02357 =
         0.01427   -0.00169   -0.00316   -0.00875
C120  1    0.543209    0.766034    0.186525    11.00000    0.01678    0.01641 =
         0.01280    0.00133   -0.00277   -0.00334
C121  1    0.268182    0.797681    0.244736    11.00000    0.01428    0.02412 =
         0.03468   -0.00639   -0.00592   -0.00282
AFIX  23
H12B  2    0.197082    0.801349    0.232861    11.00000   -1.20000
H12C  2    0.284799    0.859776    0.228135    11.00000   -1.20000
AFIX   0
C122  1    0.252896    0.780491    0.333739    11.00000    0.03477    0.04630 =
         0.04397   -0.01495    0.00135   -0.00495
AFIX 137
H12D  2    0.187077    0.829789    0.361718    11.00000   -1.50000
H12E  2    0.320264    0.783635    0.346370    11.00000   -1.50000
H12F  2    0.241622    0.717114    0.349750    11.00000   -1.50000
AFIX   0
C123  1    0.233711    0.622952    0.182853    11.00000    0.01336    0.03089 =
         0.03420   -0.00414   -0.00379   -0.00560
AFIX 137
H12G  2    0.171226    0.677263    0.207010    11.00000   -1.50000
H12H  2    0.229082    0.564529    0.215344    11.00000   -1.50000
H12I  2    0.229096    0.614883    0.130438    11.00000   -1.50000
AFIX   0
C124  1    0.497001    0.301671    0.028667    11.00000    0.02202    0.02372 =
         0.02536   -0.00569   -0.00564   -0.00743
AFIX  23
H12J  2    0.522871    0.275838   -0.024398    11.00000   -1.20000
H12K  2    0.430186    0.357709    0.030125    11.00000   -1.20000
AFIX   0
C125  1    0.461516    0.225317    0.088254    11.00000    0.03928    0.04356 =
         0.03654    0.00914   -0.01593   -0.02837
AFIX 137
H12L  2    0.399019    0.210074    0.077410    11.00000   -1.50000
H12M  2    0.437326    0.249420    0.141224    11.00000   -1.50000
H12N  2    0.525399    0.167390    0.084421    11.00000   -1.50000
AFIX   0
C126  1    0.760144    0.196022   -0.017614    11.00000    0.02391    0.02352 =
         0.03097   -0.00987   -0.00326   -0.00672
AFIX 137
H12O  2    0.710381    0.179757   -0.042381    11.00000   -1.50000
H12P  2    0.780184    0.145694    0.021560    11.00000   -1.50000
H12Q  2    0.828729    0.201374   -0.057625    11.00000   -1.50000
AFIX   0
C127  1    1.127448    0.257625    0.029914    11.00000    0.01432    0.03136 =
         0.03356   -0.00778    0.00162   -0.00308
AFIX 137
H12R  2    1.199035    0.269587    0.000076    11.00000   -1.50000
H12S  2    1.098549    0.230749   -0.004374    11.00000   -1.50000
H12T  2    1.139429    0.212169    0.073861    11.00000   -1.50000
AFIX   0
C128  1    1.172144    0.428416    0.097624    11.00000    0.00926    0.02932 =
         0.04052   -0.00041   -0.00338   -0.00811
AFIX  23
H12U  2    1.174129    0.495893    0.090596    11.00000   -1.20000
H12V  2    1.234597    0.391338    0.055978    11.00000   -1.20000
AFIX   0
C129  1    1.188880    0.388245    0.178049    11.00000    0.02681    0.05519 =
         0.05608    0.01101   -0.02074   -0.01851
AFIX 137
H12W  2    1.262163    0.390857    0.181043    11.00000   -1.50000
H12X  2    1.186304    0.321611    0.185274    11.00000   -1.50000
H12Y  2    1.128875    0.426580    0.219260    11.00000   -1.50000
AFIX   0
C130  1    0.930381    0.785658    0.176635    11.00000    0.02184    0.03098 =
         0.05414   -0.01062   -0.00121   -0.01570
AFIX 137
H13A  2    0.913146    0.855491    0.169116    11.00000   -1.50000
H13B  2    0.996282    0.755355    0.134713    11.00000   -1.50000
H13C  2    0.946470    0.766220    0.227511    11.00000   -1.50000
AFIX   0
C131  1    0.692563    0.917708    0.172089    11.00000    0.02317    0.02541 =
         0.04574   -0.01137    0.00661   -0.01153
AFIX  23
H13D  2    0.611791    0.943595    0.199615    11.00000   -1.20000
H13E  2    0.736820    0.940105    0.198641    11.00000   -1.20000
AFIX   0
C132  1    0.713413    0.955457    0.088573    11.00000    0.05107    0.02645 =
         0.06695    0.00295    0.01795   -0.00401
AFIX 137
H13F  2    0.693452    1.025574    0.087345    11.00000   -1.50000
H13G  2    0.667182    0.935789    0.062745    11.00000   -1.50000
H13H  2    0.793230    0.929675    0.061052    11.00000   -1.50000
AFIX   0
C133  1    0.472874    0.869267    0.198171    11.00000    0.01494    0.01352 =
         0.02190    0.00144   -0.00289   -0.00280
C134  1    0.435693    0.921773    0.135918    11.00000    0.03030    0.02270 =
         0.02199    0.00074   -0.00612   -0.00849
AFIX  43
H13I  2    0.459466    0.893537    0.086411    11.00000   -1.20000
AFIX   0
C135  1    0.364832    1.014236    0.144614    11.00000    0.03661    0.02878 =
         0.02862    0.00760   -0.00720   -0.00363
AFIX  43
H13J  2    0.341648    1.050120    0.101303    11.00000   -1.20000
AFIX   0
C136  1    0.328180    1.053679    0.217793    11.00000    0.03462    0.01912 =
         0.04573   -0.00180   -0.00186    0.00721
AFIX  43
H13K  2    0.277057    1.116210    0.224879    11.00000   -1.20000
AFIX   0
C137  1    0.364775    1.003542    0.280676    11.00000    0.03585    0.01903 =
         0.02017   -0.00060   -0.00246    0.00054
AFIX  43
H13L  2    0.339304    1.031135    0.330552    11.00000   -1.20000
AFIX   0
C138  1    0.439323    0.912272    0.269462    11.00000    0.02391    0.01944 =
         0.01985   -0.00162   -0.00039   -0.00716
C151  1    0.531690    0.886826    0.373204    11.00000    0.02299    0.02007 =
         0.01672   -0.00541    0.00274   -0.00778
C152  1    0.556441    0.974349    0.360347    11.00000    0.03911    0.02084 =
         0.02537    0.00175   -0.00080   -0.00950
AFIX  43
H15B  2    0.531894    1.019107    0.321400    11.00000   -1.20000
AFIX   0
C153  1    0.616390    0.995790    0.404083    11.00000    0.04613    0.02052 =
         0.03632   -0.00199   -0.00430   -0.02139
AFIX  43
H15C  2    0.632443    1.055784    0.395281    11.00000   -1.20000
AFIX   0
C154  1    0.653629    0.931751    0.460501    11.00000    0.03578    0.02287 =
         0.03374    0.00093   -0.00781   -0.01639
AFIX  43
H15D  2    0.695843    0.946740    0.490072    11.00000   -1.20000
AFIX   0
C155  1    0.628367    0.845354    0.473204    11.00000    0.01906    0.02333 =
         0.02440   -0.00005   -0.00247   -0.00611
AFIX  43
H15E  2    0.653664    0.800810    0.512016    11.00000   -1.20000
AFIX   0
C156  1    0.566299    0.821873    0.430181    11.00000    0.01659    0.01319 =
         0.02101   -0.00186    0.00516   -0.00282

HKLF 4




REM  21jana_0m_b.res in P1
REM wR2 = 0.1086, GooF = S = 1.007, Restrained GooF = 1.007 for all data
REM R1 = 0.0452 for 20620 Fo > 4sig(Fo) and 0.0506 for all 22655 data
REM 1431 parameters refined using 3 restraints

END

WGHT      0.0416      0.0000

REM Highest difference peak  0.588,  deepest hole -0.553,  1-sigma level  0.061
Q1    1   0.8211  0.4169  0.7449  11.00000  0.05    0.59
Q2    1   0.4535  0.5619  0.4882  11.00000  0.05    0.58
Q3    1   0.2515  0.4374  0.8891  11.00000  0.05    0.58
Q4    1   0.1798  0.5920  0.2522  11.00000  0.05    0.57
Q5    1   0.3554  0.5178  0.8306  11.00000  0.05    0.57
Q6    1   0.4450  0.4676  0.5116  11.00000  0.05    0.54
Q7    1   0.6544  0.4829  0.1622  11.00000  0.05    0.53
Q8    1   0.5546  0.4404  0.4716  11.00000  0.05    0.52
Q9    1   0.7434  0.5746  0.1167  11.00000  0.05    0.50
Q10   1   0.5518  0.5372  0.4529  11.00000  0.05    0.50
;
_shelx_res_checksum              70509
_shelx_fab_file
;
    7    6   21      0.63      0.38
    6    6   21      0.66      0.13
    5    6   21      0.39     -0.07
    4    6   21      0.18      0.19
    7    5   21      0.19      0.70
    6    5   21      0.43      0.30
    5    5   21      0.41     -0.09
    4    5   21      0.33      0.22
    3    5   21      0.20      0.78
    8    4   21     -0.27      0.99
    7    4   21     -0.14      1.10
    6    4   21      0.01      0.28
    5    4   21      0.25     -0.47
    4    4   21      0.56     -0.10
    3    4   21      0.66      0.89
    2    4   21      0.38      1.19
    8    3   21     -0.05      1.18
    7    3   21     -0.48      0.91
    6    3   21     -0.64     -0.48
    5    3   21     -0.20     -1.76
    4    3   21      0.66     -1.46
    3    3   21      1.21      0.06
    2    3   21      1.00      1.01
    7    2   21     -1.54      0.08
    6    2   21     -1.98     -1.78
    5    2   21     -1.29     -3.62
    4    2   21      0.14     -3.61
    2    2   21      1.26      0.03
    1    2   21      0.61      0.36
    7    1   21     -2.50     -0.68
    6    1   21     -2.95     -2.72
    5    1   21     -1.96     -4.91
    4    1   21     -0.07     -5.38
    3    1   21      1.36     -3.60
    2    1   21      1.50     -1.28
    1    1   21      0.80     -0.23
    6    0   21     -2.45     -3.01
    5    0   21     -1.15     -5.13
    3    0   21      2.37     -4.84
    2    0   21      2.25     -2.56
    6   -1   21     -1.37     -2.50
    5   -1   21      0.05     -4.04
    4   -1   21      2.14     -5.07
    2   -1   21      2.74     -3.06
    4   -2   21      2.19     -2.69
    8    8   20     -0.25     -0.36
    7    8   20     -0.10     -0.09
    6    8   20      0.16      0.35
    5    8   20      0.13      0.54
    4    8   20     -0.10      0.36
    9    7   20      0.22     -0.29
    8    7   20     -0.21     -0.55
    7    7   20     -0.19     -0.32
    6    7   20      0.14      0.21
    5    7   20      0.14      0.49
    4    7   20     -0.23      0.37
    3    7   20     -0.37      0.21
    2    7   20     -0.04      0.25
    9    6   20      1.05     -0.18
    8    6   20      0.22     -0.83
    7    6   20     -0.19     -0.89
    6    6   20      0.04     -0.32
    5    6   20      0.18      0.20
    4    6   20     -0.10      0.29
    3    6   20     -0.28      0.26
    2    6   20      0.04      0.41
    1    6   20      0.47      0.53
    9    5   20      1.89     -0.38
    8    5   20      0.70     -1.38
    7    5   20     -0.26     -1.70
    6    5   20     -0.29     -1.07
    5    5   20      0.01     -0.27
    4    5   20     -0.01      0.04
    3    5   20     -0.06      0.11
    2    5   20      0.24      0.34
    1    5   20      0.56      0.58
   10    4   20      1.91     -0.14
    9    4   20      1.94     -0.97
    8    4   20      0.82     -2.05
    7    4   20     -0.29     -2.37
    6    4   20     -0.50     -1.60
    5    4   20     -0.24     -0.59
    4    4   20     -0.15     -0.19
    3    4   20     -0.07     -0.13
    2    4   20      0.27      0.12
    1    4   20      0.56      0.47
    0    4   20      0.39      0.46
    9    3   20      1.60     -1.32
    8    3   20      1.11     -2.37
    7    3   20      0.48     -2.56
    6    3   20      0.37     -1.59
    5    3   20      0.43     -0.47
    4    3   20      0.20     -0.14
    3    3   20      0.03     -0.29
    2    3   20      0.28     -0.10
    0    3   20      0.28      0.41
    9    2   20      1.41     -1.46
    8    2   20      1.61     -2.51
    7    2   20      1.71     -2.52
    6    2   20      1.93     -1.26
    3    2   20      0.23     -0.26
    2    2   20      0.09     -0.31
    1    2   20      0.23      0.23
    0    2   20     -0.02      0.48
   -1    2   20     -0.45      0.18
    9    1   20      0.86     -1.51
    8    1   20      1.29     -2.43
    7    1   20      1.86     -2.22
    6    1   20      2.41     -0.57
    2    1   20     -0.81      0.08
    1    1   20     -0.62      0.52
    0    1   20     -0.56      0.91
   -1    1   20     -0.75      0.60
    9    0   20      0.05     -1.12
    8    0   20      0.38     -1.77
    7    0   20      1.05     -1.45
    6    0   20      1.70      0.32
    5    0   20      1.62      2.52
    4    0   20      0.44      3.30
    3    0   20     -1.11      2.38
    2    0   20     -1.82      1.37
    1    0   20     -1.45      1.36
    0    0   20     -0.88      1.60
   -1    0   20     -0.68      1.15
    8   -1   20     -0.05     -0.94
    7   -1   20      0.48     -0.90
    5   -1   20      0.81      2.63
    4   -1   20     -0.09      4.06
    3   -1   20     -1.30      3.69
    2   -1   20     -1.86      2.53
    1   -1   20     -1.41      1.97
    0   -1   20     -0.62      1.91
   -1   -1   20     -0.23      1.40
    7   -2   20      0.12     -0.83
    6   -2   20      0.16     -0.29
    5   -2   20     -0.10      1.40
    4   -2   20     -0.63      3.16
    3   -2   20     -1.18      3.56
    2   -2   20     -1.37      2.73
    1   -2   20     -0.93      1.90
    0   -2   20     -0.22      1.60
   -1   -2   20      0.17      1.22
    6   -3   20     -0.54     -0.67
    5   -3   20     -1.00      0.26
    3   -3   20     -1.34      2.61
    2   -3   20     -1.16      2.34
    1   -3   20     -0.73      1.61
    0   -3   20     -0.13      1.16
    5   -4   20     -1.11     -0.21
    4   -4   20     -1.37      0.58
    2   -4   20     -0.95      1.58
    1   -4   20     -0.56      1.20
    8   10   19      0.04      0.31
    7   10   19      0.01      0.23
    6   10   19     -0.20     -0.23
    5   10   19     -0.41     -0.65
    4   10   19     -0.30     -0.53
    9    9   19      0.43      0.07
    8    9   19      0.59      0.10
    7    9   19      0.51     -0.08
    6    9   19      0.10     -0.53
    5    9   19     -0.38     -0.89
    4    9   19     -0.48     -0.71
    3    9   19     -0.09     -0.12
    2    9   19      0.35      0.33
   10    8   19      0.45      0.16
    9    8   19      0.85      0.04
    8    8   19      1.05     -0.19
    7    8   19      0.91     -0.49
    6    8   19      0.43     -0.79
    5    8   19     -0.11     -0.89
    4    8   19     -0.31     -0.61
    3    8   19     -0.09     -0.09
    2    8   19      0.22      0.30
    1    8   19      0.23      0.37
    9    7   19      0.97      0.31
    8    7   19      1.16     -0.09
    7    7   19      0.93     -0.56
    6    7   19      0.44     -0.79
    5    7   19      0.03     -0.65
    4    7   19     -0.09     -0.29
    3    7   19      0.02      0.03
    2    7   19      0.06      0.23
    1    7   19     -0.11      0.31
    0    7   19     -0.35      0.32
   11    6   19     -0.13      0.51
   10    6   19      0.29      0.93
    9    6   19      0.94      1.07
    8    6   19      1.28      0.68
    7    6   19      1.01     -0.03
    6    6   19      0.38     -0.47
    5    6   19     -0.05     -0.34
    4    6   19     -0.03      0.01
    3    6   19      0.12      0.16
    2    6   19      0.01      0.14
    1    6   19     -0.33      0.20
    0    6   19     -0.58      0.35
   -1    6   19     -0.56      0.32
   11    5   19     -0.31      0.99
   10    5   19      0.15      1.65
    9    5   19      1.09      2.05
    8    5   19      1.77      1.73
    7    5   19      1.54      0.81
    6    5   19      0.65      0.03
    5    5   19     -0.04     -0.07
    4    5   19     -0.05      0.17
    3    5   19      0.24      0.20
    2    5   19      0.23      0.06
    1    5   19     -0.17      0.12
    0    5   19     -0.51      0.40
   -1    5   19     -0.51      0.51
   11    4   19     -0.23      1.14
   10    4   19      0.06      1.79
    9    4   19      0.99      2.22
    8    4   19      1.87      1.99
    7    4   19      1.77      1.12
    6    4   19      0.73      0.30
    5    4   19     -0.27      0.07
    4    4   19     -0.47      0.16
    3    4   19     -0.07      0.06
    2    4   19      0.25     -0.13
    1    4   19      0.12      0.02
    0    4   19     -0.19      0.48
   -1    4   19     -0.29      0.75
   -2    4   19     -0.15      0.56
   11    3   19     -0.28      0.71
   10    3   19     -0.46      1.15
    9    3   19      0.04      1.40
    8    3   19      0.83      1.19
    7    3   19      0.95      0.62
    6    3   19      0.08      0.20
    5    3   19     -1.01      0.22
    4    3   19     -1.44      0.30
    3    3   19     -1.09      0.03
    2    3   19     -0.42     -0.27
    1    3   19      0.04     -0.09
    0    3   19      0.12      0.47
   -1    3   19      0.02      0.80
   -2    3   19      0.02      0.63
   10    2   19     -0.88      0.57
    9    2   19     -0.81      0.55
    8    2   19     -0.20      0.16
    7    2   19      0.16     -0.29
    6    2   19     -0.33     -0.25
    5    2   19     -1.25      0.32
    4    2   19     -1.83      0.71
    3    2   19     -1.71      0.37
    2    2   19     -1.02     -0.23
    1    2   19     -0.17     -0.28
    0    2   19      0.32      0.22
   -1    2   19      0.29      0.56
   -2    2   19      0.09      0.41
   10    1   19     -0.53      0.24
    9    1   19     -0.56     -0.03
    8    1   19     -0.10     -0.78
    7    1   19      0.31     -1.42
    6    1   19      0.10     -1.18
    5    1   19     -0.56     -0.02
    4    1   19     -1.08      1.00
    3    1   19     -1.15      0.87
    2    1   19     -0.76     -0.06
    1    1   19     -0.07     -0.58
    0    1   19      0.46     -0.30
   -1    1   19      0.42      0.13
   -2    1   19      0.03      0.16
   10    0   19     -0.02     -0.08
    9    0   19      0.00     -0.49
    8    0   19      0.26     -1.36
    7    0   19      0.53     -2.11
    6    0   19      0.40     -1.85
    5    0   19     -0.06     -0.36
    4    0   19     -0.39      1.26
    3    0   19     -0.41      1.61
    2    0   19     -0.22      0.60
    1    0   19      0.13     -0.47
    0    0   19      0.48     -0.63
   -1    0   19      0.46     -0.24
   -2    0   19      0.09     -0.01
   -3    0   19     -0.15     -0.03
    9   -1   19      0.15     -0.53
    8   -1   19      0.29     -1.14
    7   -1   19      0.48     -1.70
    6   -1   19      0.39     -1.52
    5   -1   19     -0.02     -0.23
    4   -1   19     -0.34      1.54
    3   -1   19     -0.25      2.39
    2   -1   19      0.05      1.69
    1   -1   19      0.35      0.32
    0   -1   19      0.57     -0.46
   -1   -1   19      0.59     -0.44
   -2   -1   19      0.35     -0.22
   -3   -1   19      0.11     -0.16
    9   -2   19      0.14     -0.29
    8   -2   19      0.36     -0.57
    7   -2   19      0.70     -0.89
    6   -2   19      0.77     -0.91
    5   -2   19      0.28     -0.23
    3   -2   19     -0.34      2.14
    2   -2   19      0.23      2.02
    1   -2   19      0.78      0.88
    0   -2   19      0.95     -0.23
   -1   -2   19      0.79     -0.62
   -2   -2   19      0.48     -0.50
    8   -3   19      0.41     -0.26
    7   -3   19      0.91     -0.50
    6   -3   19      1.16     -0.64
    5   -3   19      0.63     -0.47
    4   -3   19     -0.29      0.17
    2   -3   19      0.14      1.28
    1   -3   19      1.06      0.69
    0   -3   19      1.30     -0.23
   -1   -3   19      0.85     -0.72
   -2   -3   19      0.30     -0.62
    7   -4   19      0.75     -0.40
    6   -4   19      1.06     -0.42
    5   -4   19      0.65     -0.24
    4   -4   19     -0.37      0.06
    3   -4   19     -0.93      0.42
    2   -4   19     -0.28      0.65
    1   -4   19      0.88      0.46
    0   -4   19      1.33     -0.07
   -1   -4   19      0.82     -0.47
   -2   -4   19      0.10     -0.45
    6   -5   19      0.73     -0.27
    5   -5   19      0.57      0.23
    4   -5   19     -0.22      0.61
    3   -5   19     -0.85      0.70
    2   -5   19     -0.44      0.63
    1   -5   19      0.70      0.49
    0   -5   19      1.35      0.24
   -1   -5   19      0.95     -0.03
    4   -6   19      0.06      0.80
    3   -6   19     -0.39      0.85
    2   -6   19     -0.17      0.57
    1   -6   19      0.76      0.32
    0   -6   19      1.42      0.20
    9   11   18      0.41      0.01
    8   11   18      0.61     -0.25
    7   11   18      0.75     -0.23
    6   11   18      0.55     -0.06
    5   11   18      0.04     -0.09
    4   11   18     -0.39     -0.34
   10   10   18      0.34      0.38
    9   10   18      0.58      0.24
    8   10   18      0.81      0.05
    7   10   18      0.95      0.14
    6   10   18      0.82      0.41
    5   10   18      0.36      0.39
    4   10   18     -0.15     -0.10
    3   10   18     -0.36     -0.64
    2   10   18     -0.21     -0.77
   11    9   18      0.07      0.21
   10    9   18      0.25      0.42
    9    9   18      0.54      0.44
    8    9   18      0.82      0.36
    7    9   18      0.98      0.47
    6    9   18      0.93      0.73
    5    9   18      0.58      0.68
    4    9   18      0.06      0.08
    3    9   18     -0.29     -0.65
    2    9   18     -0.25     -0.92
    1    9   18      0.07     -0.66
   11    8   18      0.07      0.04
   10    8   18      0.23      0.35
    9    8   18      0.54      0.51
    8    8   18      0.81      0.47
    7    8   18      0.91      0.42
    6    8   18      0.86      0.44
    5    8   18      0.65      0.34
    4    8   18      0.26     -0.08
    3    8   18     -0.14     -0.61
    2    8   18     -0.28     -0.82
    1    8   18     -0.06     -0.62
    0    8   18      0.29     -0.30
   11    7   18      0.27     -0.17
   10    7   18      0.41      0.14
    9    7   18      0.65      0.43
    8    7   18      0.76      0.50
    7    7   18      0.65      0.31
    6    7   18      0.49     -0.01
    5    7   18      0.44     -0.28
    4    7   18      0.39     -0.45
    3    7   18      0.18     -0.49
    2    7   18     -0.09     -0.41
    1    7   18     -0.18     -0.24
    0    7   18      0.02     -0.10
   -1    7   18      0.24     -0.06
   12    6   18      0.30     -0.42
   11    6   18      0.39     -0.55
   10    6   18      0.46     -0.42
    9    6   18      0.55     -0.01
    8    6   18      0.48      0.41
    7    6   18      0.16      0.45
    6    6   18     -0.14     -0.03
    5    6   18     -0.10     -0.61
    4    6   18      0.19     -0.76
    3    6   18      0.35     -0.41
    2    6   18      0.14      0.06
    1    6   18     -0.21      0.24
    0    6   18     -0.30      0.14
   -1    6   18     -0.07     -0.01
   -2    6   18      0.15     -0.03
   12    5   18      0.08     -0.48
   11    5   18      0.12     -0.93
   10    5   18      0.10     -1.10
    9    5   18      0.14     -0.69
    8    5   18      0.09      0.12
    7    5   18     -0.20      0.63
    6    5   18     -0.52      0.30
    5    5   18     -0.51     -0.54
    4    5   18     -0.12     -0.96
    3    5   18      0.26     -0.54
    2    5   18      0.21      0.18
    1    5   18     -0.20      0.44
    0    5   18     -0.50      0.12
   -1    5   18     -0.36     -0.25
   -2    5   18      0.01     -0.28
   12    4   18     -0.19     -0.38
   11    4   18     -0.09     -0.96
   10    4   18     -0.04     -1.37
    9    4   18      0.06     -1.16
    8    4   18      0.16     -0.31
    7    4   18      0.09      0.51
    6    4   18     -0.12      0.50
    5    4   18     -0.14     -0.31
    4    4   18      0.13     -0.99
    3    4   18      0.41     -0.83
    2    4   18      0.31     -0.17
    1    4   18     -0.15      0.14
    0    4   18     -0.56     -0.17
   -1    4   18     -0.51     -0.61
   -2    4   18     -0.11     -0.61
   -3    4   18      0.17     -0.25
   12    3   18     -0.09     -0.35
   11    3   18      0.18     -0.93
   10    3   18      0.37     -1.44
    9    3   18      0.44     -1.52
    8    3   18      0.46     -0.95
    7    3   18      0.42     -0.11
    6    3   18      0.35      0.28
    5    3   18      0.43     -0.10
    4    3   18      0.68     -0.73
    3    3   18      0.76     -0.93
    2    3   18      0.41     -0.65
    1    3   18     -0.19     -0.40
    0    3   18     -0.57     -0.51
   -1    3   18     -0.47     -0.75
   -2    3   18     -0.05     -0.69
   -3    3   18      0.25     -0.28
   11    2   18      0.36     -0.98
   10    2   18      0.53     -1.47
    9    2   18      0.39     -1.66
    7    2   18     -0.12     -0.63
    6    2   18     -0.10      0.06
    5    2   18      0.19      0.28
    4    2   18      0.56      0.05
    3    2   18      0.60     -0.30
    1    2   18     -0.53     -0.58
    0    2   18     -0.69     -0.60
   -1    2   18     -0.27     -0.62
   -2    2   18      0.29     -0.54
   -3    2   18      0.53     -0.30
   -4    2   18      0.37     -0.02
   11    1   18      0.12     -0.68
   10    1   18      0.17     -1.01
    9    1   18     -0.10     -1.13
    8    1   18     -0.53     -0.97
    7    1   18     -0.78     -0.51
    6    1   18     -0.70      0.09
    5    1   18     -0.34      0.60
    4    1   18      0.08      0.81
    3    1   18      0.20      0.65
    2    1   18     -0.19      0.18
    1    1   18     -0.72     -0.28
    0    1   18     -0.72     -0.47
   -1    1   18     -0.04     -0.44
   -2    1   18      0.64     -0.39
   -3    1   18      0.78     -0.35
   -4    1   18      0.48     -0.26
   11    0   18     -0.12     -0.14
   10    0   18     -0.21     -0.34
    9    0   18     -0.41     -0.46
    8    0   18     -0.68     -0.49
    7    0   18     -0.80     -0.41
    6    0   18     -0.68     -0.19
    5    0   18     -0.44      0.18
    4    0   18     -0.18      0.61
    3    0   18      0.03      0.81
    2    0   18     -0.02      0.51
    0    0   18     -0.38     -0.46
   -1    0   18      0.10     -0.44
   -2    0   18      0.66     -0.30
   -3    0   18      0.72     -0.25
   -4    0   18      0.37     -0.25
   10   -1   18     -0.49      0.04
    9   -1   18     -0.69     -0.26
    8   -1   18     -0.84     -0.51
    7   -1   18     -0.87     -0.59
    6   -1   18     -0.76     -0.53
    5   -1   18     -0.63     -0.35
    4   -1   18     -0.53     -0.01
    3   -1   18     -0.30      0.34
    2   -1   18      0.01      0.33
    1   -1   18      0.12     -0.08
    0   -1   18      0.04     -0.46
   -1   -1   18      0.14     -0.47
   -2   -1   18      0.41     -0.25
   -3   -1   18      0.46     -0.08
   -4   -1   18      0.21     -0.03
   10   -2   18     -0.55      0.14
    9   -2   18     -0.87     -0.33
    8   -2   18     -1.06     -0.65
    7   -2   18     -1.12     -0.55
    6   -2   18     -0.97     -0.24
    5   -2   18     -0.77     -0.03
    4   -2   18     -0.73      0.08
    3   -2   18     -0.67      0.21
    2   -2   18     -0.32      0.25
    1   -2   18      0.09      0.02
    0   -2   18      0.19     -0.30
   -1   -2   18      0.09     -0.41
   -2   -2   18      0.11     -0.32
   -3   -2   18      0.17     -0.17
   -4   -2   18      0.09     -0.07
    9   -3   18     -0.69     -0.50
    8   -3   18     -0.88     -0.77
    7   -3   18     -0.92     -0.46
    6   -3   18     -0.68      0.12
    5   -3   18     -0.26      0.44
    4   -3   18     -0.07      0.41
    3   -3   18     -0.23      0.28
    2   -3   18     -0.29      0.16
    1   -3   18     -0.06     -0.03
    0   -3   18      0.09     -0.29
   -1   -3   18     -0.07     -0.47
   -2   -3   18     -0.25     -0.51
   -3   -3   18     -0.25     -0.44
   -4   -3   18     -0.18     -0.28
    8   -4   18     -0.52     -0.78
    7   -4   18     -0.55     -0.52
    6   -4   18     -0.32     -0.02
    5   -4   18      0.29      0.27
    4   -4   18      0.83      0.29
    3   -4   18      0.78      0.19
    2   -4   18      0.31      0.02
    1   -4   18     -0.03     -0.26
    0   -4   18     -0.17     -0.53
   -1   -4   18     -0.39     -0.63
   -2   -4   18     -0.63     -0.58
   -3   -4   18     -0.63     -0.48
    7   -5   18     -0.41     -0.42
    6   -5   18     -0.42     -0.22
    5   -5   18      0.14     -0.10
    4   -5   18      1.06      0.04
    3   -5   18      1.46      0.27
    2   -5   18      0.95      0.32
    1   -5   18      0.09      0.00
    0   -5   18     -0.48     -0.41
   -1   -5   18     -0.71     -0.53
   -2   -5   18     -0.76     -0.39
   -3   -5   18     -0.63     -0.26
    6   -6   18     -0.66     -0.19
    5   -6   18     -0.35     -0.29
    4   -6   18      0.72     -0.16
    3   -6   18      1.60      0.37
    2   -6   18      1.39      0.81
    1   -6   18      0.36      0.64
    0   -6   18     -0.49      0.08
   -1   -6   18     -0.71     -0.25
   -2   -6   18     -0.54     -0.19
    5   -7   18     -0.62     -0.28
    4   -7   18      0.30     -0.36
    3   -7   18      1.38      0.10
    2   -7   18      1.52      0.74
    1   -7   18      0.67      0.81
    0   -7   18     -0.20      0.27
   -1   -7   18     -0.41     -0.23
    9   12   17      0.04      0.23
    8   12   17     -0.10      0.29
    7   12   17     -0.25      0.34
    6   12   17     -0.23      0.29
    5   12   17     -0.11      0.04
    4   12   17     -0.06     -0.17
    3   12   17     -0.12     -0.07
   10   11   17      0.16      0.23
    9   11   17      0.20      0.42
    8   11   17      0.07      0.51
    7   11   17     -0.13      0.45
    6   11   17     -0.18      0.33
    5   11   17     -0.12      0.16
    4   11   17     -0.12      0.04
    3   11   17     -0.28      0.07
    2   11   17     -0.46      0.19
   11   10   17      0.29      0.22
   10   10   17      0.34      0.17
    9   10   17      0.33      0.27
    8   10   17      0.22      0.31
    7   10   17      0.09      0.12
    6   10   17      0.03     -0.06
    5   10   17      0.02      0.03
    4   10   17     -0.10      0.27
    3   10   17     -0.42      0.40
    2   10   17     -0.81      0.34
    1   10   17     -0.99      0.15
    0   10   17     -0.83     -0.03
   12    9   17      0.53      0.27
   11    9   17      0.63      0.28
   10    9   17      0.47      0.19
    9    9   17      0.17      0.19
    8    9   17     -0.05      0.14
    7    9   17     -0.10     -0.16
    6    9   17     -0.04     -0.40
    5    9   17     -0.01     -0.14
    4    9   17     -0.17      0.49
    3    9   17     -0.60      0.83
    2    9   17     -1.18      0.61
    1    9   17     -1.58      0.17
    0    9   17     -1.50     -0.07
   -1    9   17     -1.01     -0.03
   12    8   17      0.70      0.42
   11    8   17      0.87      0.52
   10    8   17      0.53      0.47
    9    8   17     -0.13      0.47
    8    8   17     -0.60      0.41
    7    8   17     -0.66      0.06
    6    8   17     -0.48     -0.34
    5    8   17     -0.38     -0.18
    4    8   17     -0.52      0.54
    3    8   17     -0.93      1.04
    2    8   17     -1.52      0.78
    1    8   17     -2.00      0.13
   -1    8   17     -1.46     -0.11
   -2    8   17     -0.77      0.04
   12    7   17      0.65      0.83
   11    7   17      1.00      0.98
   10    7   17      0.67      0.95
    9    7   17     -0.19      0.89
    8    7   17     -0.88      0.79
    7    7   17     -1.00      0.44
    6    7   17     -0.82     -0.07
    5    7   17     -0.74     -0.20
    4    7   17     -0.88      0.26
    3    7   17     -1.15      0.75
    2    7   17     -1.55      0.60
    1    7   17     -1.94     -0.03
    0    7   17     -2.01     -0.43
   -1    7   17     -1.57     -0.31
   -2    7   17     -0.89     -0.05
   12    6   17      0.65      1.22
   11    6   17      1.22      1.40
   10    6   17      1.04      1.27
    9    6   17      0.14      1.01
    8    6   17     -0.71      0.77
    7    6   17     -0.94      0.53
    6    6   17     -0.81      0.20
    5    6   17     -0.78     -0.04
    4    6   17     -0.90      0.03
    3    6   17     -0.96      0.26
    2    6   17     -1.02      0.23
    1    6   17     -1.21     -0.13
    0    6   17     -1.35     -0.42
   -1    6   17     -1.18     -0.33
   -2    6   17     -0.71     -0.05
   -3    6   17     -0.28      0.06
   12    5   17      0.74      1.16
   11    5   17      1.43      1.32
   10    5   17      1.36      1.01
    9    5   17      0.42      0.44
    8    5   17     -0.56      0.05
    7    5   17     -0.86      0.07
    6    5   17     -0.71      0.31
    5    5   17     -0.67      0.39
    4    5   17     -0.73      0.22
    3    5   17     -0.59      0.04
    2    5   17     -0.30     -0.04
    1    5   17     -0.16     -0.06
    0    5   17     -0.26     -0.10
   -1    5   17     -0.35     -0.07
   -2    5   17     -0.25      0.04
   -3    5   17     -0.05      0.12
   -4    5   17      0.10      0.12
   12    4   17      0.56      0.76
   11    4   17      1.19      0.86
   10    4   17      1.15      0.42
    9    4   17      0.24     -0.36
    8    4   17     -0.71     -0.88
    7    4   17     -0.92     -0.63
    6    4   17     -0.65      0.16
    5    4   17     -0.54      0.72
    4    4   17     -0.60      0.61
    3    4   17     -0.39      0.15
    2    4   17      0.13     -0.07
    1    4   17      0.55      0.08
    0    4   17      0.61      0.28
   -2    4   17      0.23      0.08
   -3    4   17      0.12     -0.02
   -4    4   17      0.13      0.02
   12    3   17      0.15      0.55
   11    3   17      0.68      0.63
   10    3   17      0.76      0.21
    9    3   17      0.11     -0.59
    8    3   17     -0.56     -1.19
    7    3   17     -0.57     -1.01
    6    3   17     -0.20     -0.13
    5    3   17     -0.11      0.65
    4    3   17     -0.24      0.72
    3    3   17     -0.04      0.28
    2    3   17      0.53      0.00
    1    3   17      0.98      0.15
    0    3   17      1.00      0.40
   -1    3   17      0.74      0.38
   -2    3   17      0.41      0.12
   -3    3   17      0.14     -0.07
   -4    3   17      0.04     -0.06
   12    2   17     -0.10      0.51
   11    2   17      0.36      0.54
   10    2   17      0.58      0.18
    9    2   17      0.29     -0.47
    8    2   17     -0.08     -0.99
    7    2   17      0.02     -0.92
    6    2   17      0.32     -0.30
    5    2   17      0.33      0.32
    4    2   17      0.21      0.49
    3    2   17      0.54      0.28
    2    2   17      1.19      0.12
    1    2   17      1.47      0.18
    0    2   17      1.17      0.31
   -1    2   17      0.69      0.34
   -2    2   17      0.37      0.27
   -3    2   17      0.16      0.19
   -4    2   17      0.03      0.17
   -5    2   17      0.05      0.16
   12    1   17     -0.24      0.45
   11    1   17      0.04      0.41
   10    1   17      0.23      0.05
    9    1   17      0.08     -0.37
    8    1   17     -0.15     -0.54
    7    1   17     -0.09     -0.30
    6    1   17      0.13      0.15
    5    1   17      0.13      0.43
    4    1   17      0.13      0.44
    3    1   17      0.69      0.41
    2    1   17      1.58      0.48
    1    1   17      1.87      0.52
    0    1   17      1.31      0.42
   -1    1   17      0.65      0.33
   -2    1   17      0.44      0.38
   -3    1   17      0.44      0.49
   -4    1   17      0.31      0.44
   -5    1   17      0.16      0.25
   11    0   17     -0.21      0.42
   10    0   17     -0.16      0.12
    9    0   17     -0.33     -0.07
    8    0   17     -0.51      0.15
    7    0   17     -0.41      0.69
    6    0   17     -0.16      1.07
    5    0   17     -0.08      0.94
    4    0   17     -0.05      0.57
    3    0   17      0.52      0.49
    2    0   17      1.51      0.77
    1    0   17      1.97      0.92
    0    0   17      1.45      0.67
   -1    0   17      0.71      0.33
   -2    0   17      0.55      0.29
   -3    0   17      0.73      0.46
   -4    0   17      0.64      0.46
   -5    0   17      0.29      0.21
   11   -1   17     -0.07      0.34
   10   -1   17     -0.07      0.17
    9   -1   17     -0.21      0.11
    8   -1   17     -0.30      0.46
    7   -1   17     -0.14      1.04
    6   -1   17      0.16      1.29
    5   -1   17      0.28      0.86
    4   -1   17      0.23      0.16
    3   -1   17      0.51     -0.06
    2   -1   17      1.28      0.33
    1   -1   17      1.81      0.70
    0   -1   17      1.47      0.58
   -1   -1   17      0.73      0.23
   -2   -1   17      0.47      0.14
   -3   -1   17      0.68      0.32
   -4   -1   17      0.67      0.41
   -5   -1   17      0.30      0.25
   11   -2   17      0.22      0.06
   10   -2   17      0.28      0.03
    9   -2   17      0.21      0.02
    8   -2   17      0.13      0.20
    7   -2   17      0.19      0.55
    6   -2   17      0.36      0.70
    5   -2   17      0.46      0.31
    4   -2   17      0.42     -0.36
    3   -2   17      0.49     -0.65
    2   -2   17      0.91     -0.32
    1   -2   17      1.33      0.13
    0   -2   17      1.18      0.24
   -1   -2   17      0.60      0.15
   -2   -2   17      0.30      0.19
   -3   -2   17      0.48      0.34
   -4   -2   17      0.58      0.40
   -5   -2   17      0.31      0.30
   10   -3   17      0.58      0.01
    9   -3   17      0.55      0.02
    8   -3   17      0.39      0.02
    7   -3   17      0.22      0.13
    6   -3   17      0.18      0.29
    5   -3   17      0.26      0.19
    4   -3   17      0.37     -0.18
    3   -3   17      0.45     -0.41
    2   -3   17      0.60     -0.26
    1   -3   17      0.77      0.01
    0   -3   17      0.69      0.12
   -1   -3   17      0.36      0.20
   -2   -3   17      0.19      0.34
   -3   -3   17      0.37      0.36
   -4   -3   17      0.54      0.21
   -5   -3   17      0.39      0.06
    9   -4   17      0.63      0.10
    8   -4   17      0.44      0.08
    7   -4   17      0.18      0.07
    6   -4   17      0.07      0.17
    5   -4   17      0.20      0.22
    4   -4   17      0.44      0.06
    3   -4   17      0.64     -0.09
    2   -4   17      0.71     -0.01
    1   -4   17      0.65      0.11
    0   -4   17      0.44      0.10
   -1   -4   17      0.12      0.12
   -2   -4   17     -0.06      0.26
   -3   -4   17      0.06      0.23
   -4   -4   17      0.27     -0.05
   -5   -4   17      0.29     -0.26
    8   -5   17      0.17      0.27
    7   -5   17      0.00      0.19
    6   -5   17     -0.03      0.09
    5   -5   17      0.14     -0.04
    4   -5   17      0.39     -0.28
    3   -5   17      0.66     -0.44
    2   -5   17      0.87     -0.30
    1   -5   17      0.87     -0.09
    0   -5   17      0.52     -0.09
   -1   -5   17     -0.07     -0.11
   -2   -5   17     -0.55      0.06
   -3   -5   17     -0.60      0.18
   -4   -5   17     -0.30     -0.01
    7   -6   17     -0.20      0.38
    6   -6   17     -0.20      0.13
    5   -6   17     -0.09     -0.19
    4   -6   17      0.01     -0.57
    3   -6   17      0.19     -0.82
    2   -6   17      0.57     -0.67
    1   -6   17      0.86     -0.29
    0   -6   17      0.62     -0.10
   -1   -6   17     -0.16     -0.07
   -2   -6   17     -0.93      0.12
   -3   -6   17     -1.14      0.34
   -4   -6   17     -0.74      0.27
    6   -7   17     -0.23      0.13
    5   -7   17     -0.19     -0.12
    4   -7   17     -0.26     -0.45
    3   -7   17     -0.28     -0.73
    2   -7   17      0.05     -0.68
    1   -7   17      0.55     -0.28
    0   -7   17      0.59      0.07
   -1   -7   17     -0.05      0.21
   -2   -7   17     -0.85      0.33
   -3   -7   17     -1.15      0.47
    5   -8   17     -0.11     -0.06
    4   -8   17     -0.20     -0.23
    3   -8   17     -0.39     -0.47
    2   -8   17     -0.27     -0.57
    1   -8   17      0.19     -0.37
    0   -8   17      0.44     -0.05
   -1   -8   17      0.13      0.17
   -2   -8   17     -0.46      0.29
    2   -9   17     -0.41     -0.42
    1   -9   17     -0.14     -0.48
    0   -9   17      0.16     -0.36
    9   13   16     -0.18     -0.08
    8   13   16     -0.11     -0.22
    7   13   16     -0.24     -0.31
    6   13   16     -0.43     -0.12
    5   13   16     -0.41      0.25
    4   13   16     -0.27      0.42
   10   12   16     -0.36      0.19
    9   12   16     -0.29      0.26
    8   12   16     -0.16      0.21
    7   12   16     -0.24      0.07
    6   12   16     -0.40      0.21
    5   12   16     -0.32      0.65
    4   12   16     -0.08      0.89
    3   12   16     -0.01      0.67
    2   12   16     -0.23      0.31
   11   11   16     -0.11      0.47
   10   11   16     -0.43      0.58
    9   11   16     -0.45      0.79
    8   11   16     -0.31      0.88
    7   11   16     -0.34      0.71
    6   11   16     -0.46      0.62
    5   11   16     -0.35      0.90
    4   11   16      0.01      1.18
    3   11   16      0.20      0.99
    2   11   16     -0.02      0.53
    1   11   16     -0.39      0.20
    0   11   16     -0.49      0.04
   12   10   16      0.16      0.20
   11   10   16     -0.12      0.53
   10   10   16     -0.46      0.77
    9   10   16     -0.54      1.05
    8   10   16     -0.45      1.21
    7   10   16     -0.49      0.98
    6   10   16     -0.62      0.62
    5   10   16     -0.48      0.62
    4   10   16     -0.03      0.93
    3   10   16      0.28      1.02
    2   10   16      0.12      0.73
    1   10   16     -0.36      0.36
    0   10   16     -0.71      0.08
   -1   10   16     -0.71     -0.19
   12    9   16     -0.10     -0.02
   11    9   16     -0.24      0.22
   10    9   16     -0.45      0.41
    9    9   16     -0.51      0.62
    8    9   16     -0.50      0.75
    7    9   16     -0.63      0.53
    6    9   16     -0.78      0.04
    5    9   16     -0.52     -0.19
    4    9   16      0.11      0.13
    3    9   16      0.58      0.66
    2    9   16      0.44      0.85
    1    9   16     -0.18      0.61
    0    9   16     -0.82      0.18
   -1    9   16     -1.10     -0.22
   -2    9   16     -0.93     -0.46
   13    8   16     -0.50     -0.20
   12    8   16     -0.48     -0.35
   11    8   16     -0.44     -0.38
   10    8   16     -0.43     -0.34
    9    8   16     -0.38     -0.20
    8    8   16     -0.45     -0.01
    7    8   16     -0.76     -0.02
    6    8   16     -0.95     -0.34
    5    8   16     -0.52     -0.63
    4    8   16      0.43     -0.41
    2    8   16      1.04      0.97
    1    8   16      0.28      0.99
    0    8   16     -0.62      0.44
   -1    8   16     -1.21     -0.17
   -2    8   16     -1.26     -0.44
   -3    8   16     -0.80     -0.38
   13    7   16     -0.85     -0.33
   12    7   16     -0.94     -0.71
   11    7   16     -0.78     -1.00
   10    7   16     -0.48     -1.10
    9    7   16     -0.17     -0.93
    8    7   16     -0.16     -0.52
    7    7   16     -0.57     -0.11
    6    7   16     -0.89      0.02
    5    7   16     -0.43     -0.15
    4    7   16      0.71     -0.17
    3    7   16      1.61      0.33
    2    7   16      1.61      1.04
    1    7   16      0.87      1.24
    0    7   16     -0.11      0.63
   -1    7   16     -0.92     -0.18
   -2    7   16     -1.28     -0.53
   -3    7   16     -1.05     -0.34
   13    6   16     -1.14     -0.49
   12    6   16     -1.36     -0.95
   11    6   16     -1.17     -1.31
   10    6   16     -0.61     -1.44
    9    6   16      0.07     -1.23
    8    6   16      0.40     -0.69
    7    6   16      0.09      0.00
    6    6   16     -0.34      0.50
    5    6   16     -0.09      0.58
    4    6   16      0.88      0.42
    3    6   16      1.71      0.48
    2    6   16      1.76      0.86
    1    6   16      1.17      1.00
    0    6   16      0.35      0.46
   -1    6   16     -0.46     -0.36
   -2    6   16     -1.05     -0.68
   -3    6   16     -1.13     -0.36
   -4    6   16     -0.71      0.08
   13    5   16     -1.10     -0.57
   12    5   16     -1.35     -1.03
   11    5   16     -1.19     -1.25
   10    5   16     -0.55     -1.22
    9    5   16      0.37     -0.96
    8    5   16      0.96     -0.50
    7    5   16      0.81      0.09
    6    5   16      0.33      0.65
    5    5   16      0.34      0.95
    4    5   16      0.96      0.88
    3    5   16      1.52      0.65
    2    5   16      1.51      0.53
    1    5   16      1.11      0.40
    0    5   16      0.60     -0.01
   -1    5   16      0.00     -0.53
   -2    5   16     -0.63     -0.62
   -3    5   16     -0.97     -0.18
   -4    5   16     -0.76      0.32
   -5    5   16     -0.24      0.44
   13    4   16     -0.67     -0.59
   12    4   16     -0.87     -1.08
   11    4   16     -0.79     -1.15
   10    4   16     -0.29     -0.85
    9    4   16      0.50     -0.47
    8    4   16      1.04     -0.14
    7    4   16      0.92      0.20
    6    4   16      0.47      0.63
    5    4   16      0.39      1.06
    4    4   16      0.80      1.20
    3    4   16      1.11      0.93
    2    4   16      1.01      0.42
    1    4   16      0.80     -0.09
    0    4   16      0.70     -0.44
   -1    4   16      0.49     -0.52
   -2    4   16     -0.02     -0.26
   -3    4   16     -0.52      0.20
   -4    4   16     -0.60      0.54
   -5    4   16     -0.22      0.54
   13    3   16     -0.34     -0.49
   12    3   16     -0.55     -0.96
   11    3   16     -0.61     -0.94
   10    3   16     -0.37     -0.48
    9    3   16      0.11      0.01
    8    3   16      0.47      0.28
    7    3   16      0.35      0.43
    6    3   16      0.02      0.69
    5    3   16      0.01      1.09
    4    3   16      0.32      1.36
    3    3   16      0.43      1.22
    2    3   16      0.27      0.62
    1    3   16      0.27     -0.11
    0    3   16      0.62     -0.52
   -1    3   16      0.87     -0.38
   -2    3   16      0.59      0.12
   -3    3   16     -0.01      0.53
   -4    3   16     -0.38      0.58
   -5    3   16     -0.26      0.37
   13    2   16     -0.34     -0.18
   12    2   16     -0.60     -0.45
   11    2   16     -0.78     -0.37
   10    2   16     -0.68      0.08
    9    2   16     -0.32      0.52
    8    2   16      0.01      0.67
    7    2   16      0.03      0.65
    6    2   16     -0.13      0.70
    5    2   16     -0.13      0.89
    4    2   16      0.01      1.12
    3    2   16     -0.05      1.15
    2    2   16     -0.25      0.80
    1    2   16     -0.09      0.17
    0    2   16      0.51     -0.29
   -1    2   16      0.99     -0.20
   -2    2   16      0.82      0.30
   -3    2   16      0.16      0.68
   -4    2   16     -0.40      0.59
   -5    2   16     -0.43      0.22
   -6    2   16     -0.07     -0.03
   12    1   16     -0.66     -0.05
   11    1   16     -0.91      0.08
   10    1   16     -0.82      0.37
    9    1   16     -0.39      0.57
    8    1   16      0.05      0.51
    7    1   16      0.20      0.35
    6    1   16      0.09      0.30
    5    1   16     -0.01      0.36
    4    1   16     -0.06      0.51
    3    1   16     -0.18      0.67
    2    1   16     -0.26      0.67
    1    1   16      0.02      0.40
    0    1   16      0.62      0.05
   -1    1   16      0.96      0.03
   -2    1   16      0.66      0.41
   -3    1   16     -0.07      0.77
   -4    1   16     -0.66      0.72
   -5    1   16     -0.71      0.35
   -6    1   16     -0.28      0.03
   12    0   16     -0.63     -0.02
   11    0   16     -0.99      0.13
   10    0   16     -0.93      0.27
    9    0   16     -0.46      0.21
    8    0   16      0.03     -0.02
    7    0   16      0.17     -0.13
    6    0   16     -0.01     -0.01
    5    0   16     -0.24      0.19
    4    0   16     -0.35      0.30
    3    0   16     -0.37      0.43
    2    0   16     -0.23      0.59
    1    0   16      0.19      0.63
    0    0   16      0.72      0.48
   -1    0   16      0.88      0.41
   -2    0   16      0.43      0.57
   -3    0   16     -0.32      0.79
   -4    0   16     -0.89      0.77
   -5    0   16     -0.95      0.51
   -6    0   16     -0.52      0.19
   12   -1   16     -0.53     -0.02
   11   -1   16     -0.91      0.14
   10   -1   16     -0.88      0.24
    9   -1   16     -0.43      0.12
    8   -1   16      0.07     -0.11
    7   -1   16      0.23     -0.10
    6   -1   16      0.02      0.25
    5   -1   16     -0.28      0.61
    4   -1   16     -0.45      0.68
    3   -1   16     -0.46      0.61
    2   -1   16     -0.31      0.68
    1   -1   16      0.06      0.79
    0   -1   16      0.45      0.75
   -1   -1   16      0.51      0.64
   -2   -1   16      0.09      0.62
   -3   -1   16     -0.56      0.65
   -4   -1   16     -1.05      0.60
   -5   -1   16     -1.12      0.45
   -6   -1   16     -0.75      0.25
   11   -2   16     -0.61      0.04
   10   -2   16     -0.58      0.19
    9   -2   16     -0.14      0.21
    8   -2   16      0.43      0.05
    7   -2   16      0.73      0.01
    6   -2   16      0.62      0.30
    5   -2   16      0.28      0.64
    4   -2   16     -0.02      0.68
    3   -2   16     -0.18      0.49
    2   -2   16     -0.24      0.42
    1   -2   16     -0.20      0.49
    0   -2   16     -0.14      0.47
   -1   -2   16     -0.22      0.39
   -2   -2   16     -0.52      0.42
   -3   -2   16     -0.94      0.53
   -4   -2   16     -1.23      0.54
   -5   -2   16     -1.21      0.46
   -6   -2   16     -0.85      0.36
   11   -3   16     -0.41     -0.13
   10   -3   16     -0.41      0.06
    9   -3   16     -0.08      0.24
    8   -3   16      0.46      0.14
    7   -3   16      0.84     -0.14
    6   -3   16      0.80     -0.18
    5   -3   16      0.43      0.07
    4   -3   16      0.07      0.24
    3   -3   16     -0.12      0.15
    2   -3   16     -0.24      0.02
    1   -3   16     -0.46      0.00
    0   -3   16     -0.72     -0.02
   -1   -3   16     -0.92     -0.02
   -2   -3   16     -1.05      0.23
   -3   -3   16     -1.13      0.61
   -4   -3   16     -1.15      0.79
   -5   -3   16     -1.02      0.69
   -6   -3   16     -0.66      0.51
   10   -4   16     -0.25      0.11
    9   -4   16     -0.12      0.35
    8   -4   16      0.13      0.29
    7   -4   16      0.28     -0.17
    6   -4   16      0.17     -0.52
    5   -4   16     -0.18     -0.32
    4   -4   16     -0.49      0.13
    3   -4   16     -0.57      0.26
    2   -4   16     -0.58      0.06
    1   -4   16     -0.75     -0.13
    0   -4   16     -1.02     -0.19
   -1   -4   16     -1.11     -0.14
   -2   -4   16     -0.97      0.15
   -3   -4   16     -0.77      0.63
   -4   -4   16     -0.67      0.90
   -5   -4   16     -0.57      0.75
   -6   -4   16     -0.32      0.44
    9   -5   16      0.04      0.31
    8   -5   16     -0.06      0.34
    7   -5   16     -0.25     -0.06
    6   -5   16     -0.49     -0.51
    5   -5   16     -0.75     -0.37
    4   -5   16     -0.96      0.23
    3   -5   16     -1.06      0.49
    2   -5   16     -1.08      0.13
    1   -5   16     -1.11     -0.29
    0   -5   16     -1.07     -0.37
   -1   -5   16     -0.81     -0.26
   -2   -5   16     -0.41     -0.06
   -3   -5   16     -0.18      0.28
   -4   -5   16     -0.24      0.57
   -5   -5   16     -0.34      0.52
   -6   -5   16     -0.21      0.24
    8   -6   16     -0.10      0.25
    7   -6   16     -0.41      0.10
    6   -6   16     -0.64     -0.29
    5   -6   16     -0.75     -0.33
    4   -6   16     -0.90      0.14
    3   -6   16     -1.20      0.38
    2   -6   16     -1.49     -0.11
    1   -6   16     -1.52     -0.78
    0   -6   16     -1.12     -0.91
   -1   -6   16     -0.44     -0.66
   -2   -6   16      0.12     -0.43
   -3   -6   16      0.17     -0.21
   -4   -6   16     -0.18      0.11
   -5   -6   16     -0.46      0.29
    7   -7   16     -0.18      0.27
    6   -7   16     -0.31      0.01
    5   -7   16     -0.29     -0.16
    4   -7   16     -0.41      0.09
    3   -7   16     -0.92      0.31
    2   -7   16     -1.57     -0.14
    1   -7   16     -1.76     -0.92
    0   -7   16     -1.22     -1.19
   -1   -7   16     -0.28     -0.87
   -2   -7   16      0.37     -0.54
   -3   -7   16      0.33     -0.38
   -4   -7   16     -0.16     -0.14
   -5   -7   16     -0.48      0.13
    6   -8   16      0.20      0.13
    5   -8   16      0.32     -0.02
    4   -8   16      0.27      0.13
    3   -8   16     -0.26      0.43
    2   -8   16     -1.06      0.26
    1   -8   16     -1.47     -0.38
    0   -8   16     -1.08     -0.77
   -1   -8   16     -0.21     -0.59
   -2   -8   16      0.42     -0.32
   -3   -8   16      0.43     -0.28
   -4   -8   16      0.04     -0.24
    5   -9   16      0.64     -0.06
    4   -9   16      0.71      0.03
    3   -9   16      0.36      0.35
    2   -9   16     -0.30      0.49
    1   -9   16     -0.75      0.19
    0   -9   16     -0.62     -0.17
   -1   -9   16     -0.11     -0.21
   -2   -9   16      0.27     -0.12
   -3   -9   16      0.28     -0.19
    2  -10   16      0.07      0.40
    1  -10   16     -0.22      0.39
    0  -10   16     -0.23      0.18
   -1  -10   16     -0.08      0.02
    8   14   15     -0.54      0.21
    7   14   15     -0.01      0.20
    6   14   15      0.44      0.16
    5   14   15      0.60      0.10
   10   13   15     -0.76      0.42
    9   13   15     -1.07      0.55
    8   13   15     -0.86      0.49
    7   13   15     -0.17      0.26
    6   13   15      0.48      0.04
    5   13   15      0.77     -0.01
    4   13   15      0.75      0.14
    3   13   15      0.59      0.43
    2   13   15      0.42      0.66
   11   12   15     -0.48      0.26
   10   12   15     -0.72      0.41
    9   12   15     -0.99      0.47
    8   12   15     -0.88      0.31
    7   12   15     -0.25     -0.05
    6   12   15      0.45     -0.36
    5   12   15      0.80     -0.34
    4   12   15      0.82     -0.03
    3   12   15      0.74      0.31
    2   12   15      0.63      0.50
    1   12   15      0.44      0.49
    0   12   15      0.19      0.28
   12   11   15     -0.46     -0.14
   11   11   15     -0.51     -0.07
   10   11   15     -0.54     -0.06
    9   11   15     -0.69     -0.14
    8   11   15     -0.67     -0.34
    7   11   15     -0.19     -0.65
    6   11   15      0.48     -0.86
    5   11   15      0.89     -0.72
    4   11   15      0.98     -0.26
    3   11   15      0.95      0.16
    2   11   15      0.90      0.33
    1   11   15      0.74      0.30
    0   11   15      0.42      0.17
   -1   11   15      0.10     -0.02
   13   10   15     -0.26     -0.29
   12   10   15     -0.50     -0.43
   11   10   15     -0.45     -0.45
   10   10   15     -0.29     -0.48
    9   10   15     -0.31     -0.58
    8   10   15     -0.36     -0.71
    7   10   15     -0.10     -0.84
    6   10   15      0.43     -0.85
    5   10   15      0.84     -0.64
    4   10   15      0.97     -0.25
    3   10   15      1.00      0.07
    2   10   15      1.07      0.19
    1   10   15      1.07      0.18
    0   10   15      0.83      0.13
   -1   10   15      0.42      0.03
   -2   10   15      0.12     -0.11
   13    9   15     -0.37     -0.28
   12    9   15     -0.57     -0.47
   11    9   15     -0.40     -0.52
   10    9   15     -0.02     -0.48
    9    9   15      0.16     -0.46
    8    9   15      0.11     -0.46
    7    9   15      0.15     -0.41
    6    9   15      0.38     -0.25
    5    9   15      0.60     -0.04
    4    9   15      0.68      0.08
    3    9   15      0.78      0.04
    2    9   15      1.02     -0.03
    1    9   15      1.26      0.02
    0    9   15      1.23      0.12
   -1    9   15      0.86      0.12
   -2    9   15      0.39      0.00
   -3    9   15      0.14     -0.12
   13    8   15     -0.40     -0.04
   12    8   15     -0.62     -0.22
   11    8   15     -0.41     -0.28
   10    8   15      0.12     -0.20
    9    8   15      0.54     -0.10
    8    8   15      0.64     -0.07
    7    8   15      0.57      0.02
    6    8   15      0.49      0.27
    5    8   15      0.38      0.52
    4    8   15      0.32      0.43
    3    8   15      0.50     -0.05
    2    8   15      0.94     -0.46
    1    8   15      1.38     -0.38
    0    8   15      1.52      0.03
   -1    8   15      1.25      0.26
   -2    8   15      0.74      0.19
   -3    8   15      0.35      0.07
   -4    8   15      0.24      0.04
   13    7   15     -0.15      0.15
   12    7   15     -0.44     -0.02
   11    7   15     -0.38     -0.08
   10    7   15      0.08      0.02
    9    7   15      0.60      0.14
    8    7   15      0.88      0.16
    7    7   15      0.88      0.20
    6    7   15      0.66      0.47
    5    7   15      0.31      0.86
    4    7   15      0.10      0.83
    3    7   15      0.35      0.08
    2    7   15      1.00     -0.74
    1    7   15      1.61     -0.78
    0    7   15      1.83     -0.10
   -1    7   15      1.62      0.46
   -2    7   15      1.16      0.48
   -3    7   15      0.70      0.29
   -4    7   15      0.46      0.24
   14    6   15      0.39      0.24
   13    6   15      0.24      0.14
   12    6   15     -0.09     -0.09
   11    6   15     -0.25     -0.17
   10    6   15     -0.02     -0.06
    9    6   15      0.45      0.10
    8    6   15      0.88      0.15
    7    6   15      1.09      0.15
    6    6   15      0.98      0.39
    5    6   15      0.56      0.91
    4    6   15      0.21      1.12
    3    6   15      0.39      0.45
    2    6   15      1.09     -0.64
    1    6   15      1.81     -0.97
    0    6   15      2.11     -0.23
   -1    6   15      1.98      0.61
   -2    6   15      1.59      0.71
   -3    6   15      1.09      0.36
   -4    6   15      0.64      0.19
   -5    6   15      0.38      0.27
   14    5   15      0.42      0.25
   13    5   15      0.38      0.15
   12    5   15      0.12     -0.16
   11    5   15     -0.12     -0.37
   10    5   15     -0.06     -0.30
    9    5   15      0.31     -0.11
    8    5   15      0.85     -0.05
    7    5   15      1.34     -0.15
    6    5   15      1.47     -0.12
    5    5   15      1.13      0.29
    4    5   15      0.63      0.73
    3    5   15      0.48      0.46
    2    5   15      0.90     -0.49
    1    5   15      1.53     -1.04
    0    5   15      1.93     -0.47
   -1    5   15      1.98      0.49
   -2    5   15      1.76      0.75
   -3    5   15      1.31      0.31
   -4    5   15      0.70     -0.05
   -5    5   15      0.19      0.01
   13    4   15      0.27      0.32
   12    4   15      0.20     -0.06
   11    4   15      0.12     -0.46
   10    4   15      0.18     -0.51
    9    4   15      0.48     -0.29
    8    4   15      0.98     -0.17
    7    4   15      1.55     -0.38
    6    4   15      1.84     -0.71
    5    4   15      1.64     -0.66
    4    4   15      1.11     -0.17
    3    4   15      0.68      0.06
    2    4   15      0.62     -0.43
    1    4   15      0.89     -1.00
    0    4   15      1.27     -0.74
   -1    4   15      1.54      0.14
   -2    4   15      1.59      0.63
   -3    4   15      1.30      0.35
   -4    4   15      0.71     -0.12
   -5    4   15      0.09     -0.23
   -6    4   15     -0.22     -0.08
   13    3   15      0.19      0.33
   12    3   15      0.29     -0.11
   11    3   15      0.39     -0.70
   10    3   15      0.56     -0.87
    9    3   15      0.79     -0.54
    8    3   15      1.07     -0.19
    7    3   15      1.40     -0.32
    6    3   15      1.63     -0.86
    5    3   15      1.59     -1.16
    4    3   15      1.30     -0.78
    3    3   15      0.91     -0.20
    2    3   15      0.53     -0.20
    1    3   15      0.35     -0.68
    0    3   15      0.53     -0.77
   -1    3   15      1.00     -0.17
   -2    3   15      1.37      0.44
   -3    3   15      1.32      0.45
   -4    3   15      0.84      0.02
   -5    3   15      0.20     -0.30
   -6    3   15     -0.22     -0.33
   13    2   15      0.08      0.07
   12    2   15      0.17     -0.35
   11    2   15      0.31     -0.97
   10    2   15      0.55     -1.19
    9    2   15      0.78     -0.72
    8    2   15      0.85     -0.05
    7    2   15      0.86      0.07
    6    2   15      0.93     -0.45
    5    2   15      1.01     -0.95
    4    2   15      1.02     -0.73
    3    2   15      0.82     -0.01
    2    2   15      0.36      0.34
    1    2   15     -0.12      0.01
    0    2   15     -0.10     -0.37
   -1    2   15      0.53     -0.19
   -2    2   15      1.25      0.27
   -3    2   15      1.45      0.43
   -4    2   15      1.09      0.12
   -5    2   15      0.47     -0.30
   -6    2   15     -0.05     -0.50
   -7    2   15     -0.23     -0.44
   13    1   15     -0.09     -0.15
   12    1   15     -0.01     -0.49
   11    1   15      0.12     -0.95
   10    1   15      0.43     -1.07
    9    1   15      0.78     -0.51
    8    1   15      0.87      0.33
    7    1   15      0.73      0.63
    6    1   15      0.67      0.10
    5    1   15      0.75     -0.59
    4    1   15      0.78     -0.56
    3    1   15      0.56      0.19
    2    1   15      0.03      0.82
    1    1   15     -0.54      0.73
    0    1   15     -0.58      0.25
   -1    1   15      0.11      0.04
   -2    1   15      1.01      0.20
   -3    1   15      1.41      0.31
   -4    1   15      1.20      0.11
   -5    1   15      0.70     -0.25
   -6    1   15      0.21     -0.49
   -7    1   15     -0.08     -0.48
   13    0   15     -0.08     -0.32
   12    0   15      0.08     -0.69
   11    0   15      0.23     -1.01
   10    0   15      0.57     -0.98
    9    0   15      1.05     -0.38
    8    0   15      1.28      0.44
    7    0   15      1.12      0.72
    6    0   15      0.91      0.16
    5    0   15      0.85     -0.62
    4    0   15      0.73     -0.70
    3    0   15      0.32      0.07
    2    0   15     -0.28      0.89
    1    0   15     -0.75      1.06
    0    0   15     -0.72      0.67
   -1    0   15     -0.09      0.33
   -2    0   15      0.70      0.30
   -3    0   15      1.14      0.34
   -4    0   15      1.11      0.21
   -5    0   15      0.83     -0.06
   -6    0   15      0.48     -0.27
   -7    0   15      0.14     -0.31
   12   -1   15      0.16     -0.85
   11   -1   15      0.33     -1.14
   10   -1   15      0.62     -1.04
    9   -1   15      1.06     -0.48
    8   -1   15      1.27      0.22
    7   -1   15      1.05      0.48
    6   -1   15      0.70      0.04
    5   -1   15      0.55     -0.56
    4   -1   15      0.41     -0.56
    3   -1   15      0.00      0.14
    2   -1   15     -0.53      0.92
    1   -1   15     -0.76      1.20
    0   -1   15     -0.49      0.98
   -1   -1   15      0.11      0.68
   -2   -1   15      0.68      0.56
   -3   -1   15      0.95      0.51
   -4   -1   15      0.99      0.33
   -5   -1   15      0.92      0.07
   -6   -1   15      0.69     -0.12
   12   -2   15      0.10     -0.59
   11   -2   15      0.34     -0.88
   10   -2   15      0.61     -0.85
    9   -2   15      0.86     -0.40
    8   -2   15      0.87      0.21
    7   -2   15      0.53      0.49
    6   -2   15      0.18      0.24
    5   -2   15      0.14     -0.09
    4   -2   15      0.19     -0.01
    3   -2   15     -0.06      0.47
    2   -2   15     -0.49      0.93
    1   -2   15     -0.55      1.11
    0   -2   15     -0.07      1.04
   -1   -2   15      0.55      0.86
   -2   -2   15      0.86      0.65
   -3   -2   15      0.81      0.45
   -4   -2   15      0.74      0.21
   -5   -2   15      0.77     -0.03
   -6   -2   15      0.68     -0.15
   -7   -2   15      0.32     -0.14
   11   -3   15      0.32     -0.60
   10   -3   15      0.65     -0.73
    9   -3   15      0.76     -0.43
    8   -3   15      0.55      0.17
    7   -3   15      0.17      0.50
    6   -3   15     -0.02      0.29
    5   -3   15      0.15     -0.06
    4   -3   15      0.38     -0.07
    3   -3   15      0.24      0.15
    2   -3   15     -0.13      0.27
    1   -3   15     -0.17      0.30
    0   -3   15      0.32      0.42
   -1   -3   15      0.83      0.47
   -2   -3   15      0.79      0.31
   -3   -3   15      0.33      0.07
   -4   -3   15      0.04     -0.05
   -5   -3   15      0.18     -0.07
   -6   -3   15      0.38     -0.04
   -7   -3   15      0.25      0.03
   11   -4   15      0.11     -0.55
   10   -4   15      0.45     -0.83
    9   -4   15      0.53     -0.70
    8   -4   15      0.24     -0.12
    7   -4   15     -0.11      0.29
    6   -4   15     -0.15      0.03
    5   -4   15      0.13     -0.55
    4   -4   15      0.39     -0.77
    3   -4   15      0.31     -0.66
    2   -4   15      0.09     -0.69
    1   -4   15      0.17     -0.79
    0   -4   15      0.59     -0.59
   -1   -4   15      0.85     -0.20
   -2   -4   15      0.47     -0.09
   -3   -4   15     -0.31     -0.19
   -4   -4   15     -0.76     -0.12
   -5   -4   15     -0.52      0.14
   -6   -4   15      0.00      0.31
   -7   -4   15      0.20      0.33
   10   -5   15      0.26     -0.74
    9   -5   15      0.37     -0.83
    8   -5   15      0.13     -0.41
    7   -5   15     -0.21      0.10
    6   -5   15     -0.29     -0.02
    5   -5   15     -0.10     -0.65
    4   -5   15      0.07     -1.02
    3   -5   15      0.07     -0.91
    2   -5   15      0.09     -0.90
    1   -5   15      0.34     -1.14
    0   -5   15      0.73     -1.05
   -1   -5   15      0.84     -0.52
   -2   -5   15      0.36     -0.11
   -3   -5   15     -0.43     -0.05
   -4   -5   15     -0.91      0.04
   -5   -5   15     -0.74      0.33
   -6   -5   15     -0.23      0.52
   -7   -5   15      0.10      0.45
    9   -6   15      0.41     -0.85
    8   -6   15      0.27     -0.71
    7   -6   15     -0.03     -0.13
    6   -6   15     -0.22      0.18
    5   -6   15     -0.20     -0.14
    4   -6   15     -0.12     -0.54
    3   -6   15     -0.03     -0.53
    2   -6   15      0.15     -0.48
    1   -6   15      0.47     -0.75
    0   -6   15      0.80     -0.88
   -1   -6   15      0.88     -0.44
   -2   -6   15      0.58      0.11
   -3   -6   15      0.04      0.26
   -4   -6   15     -0.40      0.23
   -5   -6   15     -0.48      0.36
   -6   -6   15     -0.30      0.47
    8   -7   15      0.16     -0.81
    7   -7   15      0.00     -0.29
    6   -7   15     -0.18      0.40
    5   -7   15     -0.26      0.52
    4   -7   15     -0.20      0.11
    3   -7   15     -0.01     -0.18
    2   -7   15      0.25     -0.22
    1   -7   15      0.51     -0.37
    0   -7   15      0.71     -0.55
   -1   -7   15      0.80     -0.30
   -2   -7   15      0.76      0.26
   -3   -7   15      0.55      0.56
   -4   -7   15      0.22      0.52
   -5   -7   15     -0.08      0.47
   -6   -7   15     -0.23      0.45
    7   -8   15     -0.13     -0.15
    6   -8   15     -0.29      0.57
    5   -8   15     -0.46      0.98
    4   -8   15     -0.45      0.63
    3   -8   15     -0.20      0.02
    2   -8   15      0.11     -0.24
    1   -8   15      0.31     -0.23
    0   -8   15      0.40     -0.22
   -1   -8   15      0.54     -0.02
   -2   -8   15      0.74      0.46
   -3   -8   15      0.85      0.87
   -4   -8   15      0.69      0.93
   -5   -8   15      0.34      0.76
    6   -9   15     -0.38      0.55
    5   -9   15     -0.62      1.04
    4   -9   15     -0.66      0.84
    3   -9   15     -0.42      0.10
    2   -9   15     -0.09     -0.37
    1   -9   15      0.08     -0.27
    0   -9   15      0.10      0.03
   -1   -9   15      0.25      0.32
   -2   -9   15      0.62      0.67
   -3   -9   15      0.91      1.01
   -4   -9   15      0.88      1.08
   -5   -9   15      0.57      0.84
    4  -10   15     -0.54      0.62
    3  -10   15     -0.33     -0.05
    2  -10   15     -0.06     -0.61
    1  -10   15      0.03     -0.55
    0  -10   15     -0.02     -0.10
   -1  -10   15      0.07      0.31
   -2  -10   15      0.40      0.57
   -3  -10   15      0.66      0.76
    1  -11   15      0.03     -0.71
    0  -11   15     -0.08     -0.36
   -1  -11   15     -0.07      0.01
   10   14   14      0.51      0.07
    9   14   14      0.29     -0.03
    8   14   14     -0.19     -0.16
    7   14   14     -0.45     -0.15
    6   14   14     -0.33     -0.07
    5   14   14     -0.10     -0.20
    4   14   14     -0.01     -0.61
    3   14   14     -0.02     -0.92
   11   13   14      0.76      0.17
   10   13   14      0.96      0.22
    9   13   14      0.64      0.27
    8   13   14     -0.14      0.29
    7   13   14     -0.64      0.29
    6   13   14     -0.43      0.26
    5   13   14      0.06      0.01
    4   13   14      0.29     -0.51
    3   13   14      0.31     -1.02
    2   13   14      0.36     -1.13
    1   13   14      0.45     -0.82
   12   12   14      0.89      0.09
   11   12   14      1.16      0.33
   10   12   14      1.31      0.54
    9   12   14      0.96      0.78
    8   12   14      0.08      0.97
    7   12   14     -0.62      0.98
    6   12   14     -0.52      0.75
    5   12   14      0.03      0.31
    4   12   14      0.33     -0.28
    3   12   14      0.36     -0.81
    2   12   14      0.48     -1.00
    1   12   14      0.67     -0.81
    0   12   14      0.62     -0.50
   -1   12   14      0.25     -0.29
   13   11   14      0.71     -0.25
   12   11   14      1.16     -0.01
   11   11   14      1.40      0.33
   10   11   14      1.42      0.64
    9   11   14      1.08      0.97
    8   11   14      0.28      1.27
    7   11   14     -0.49      1.32
    6   11   14     -0.62      1.00
    5   11   14     -0.23      0.46
    4   11   14      0.03     -0.05
    3   11   14      0.03     -0.40
    2   11   14      0.16     -0.51
    1   11   14      0.45     -0.43
    0   11   14      0.49     -0.32
   -1   11   14      0.10     -0.25
   -2   11   14     -0.32     -0.17
   13   10   14      0.60     -0.25
   12   10   14      1.12     -0.20
   11   10   14      1.33     -0.01
   10   10   14      1.21      0.24
    9   10   14      0.85      0.52
    8   10   14      0.23      0.82
    7   10   14     -0.43      0.93
    6   10   14     -0.68      0.71
    5   10   14     -0.48      0.30
    4   10   14     -0.27     -0.01
    3   10   14     -0.28     -0.08
    2   10   14     -0.22     -0.01
    1   10   14      0.01      0.03
    0   10   14      0.10     -0.07
   -1   10   14     -0.18     -0.19
   -2   10   14     -0.55     -0.15
   -3   10   14     -0.61      0.03
   13    9   14      0.42     -0.24
   12    9   14      0.87     -0.46
   11    9   14      1.04     -0.52
   10    9   14      0.85     -0.37
    9    9   14      0.51     -0.10
    8    9   14      0.10      0.21
    7    9   14     -0.38      0.42
    6    9   14     -0.69      0.39
    5    9   14     -0.66      0.20
    4    9   14     -0.49      0.10
    3    9   14     -0.46      0.20
    2    9   14     -0.46      0.35
    1    9   14     -0.34      0.34
    0    9   14     -0.24      0.07
   -1    9   14     -0.35     -0.23
   -2    9   14     -0.59     -0.26
   -3    9   14     -0.70      0.03
   -4    9   14     -0.55      0.28
   14    8   14      0.09      0.01
   13    8   14      0.29     -0.26
   12    8   14      0.59     -0.63
   11    8   14      0.73     -0.84
   10    8   14      0.61     -0.74
    9    8   14      0.44     -0.44
    8    8   14      0.29     -0.08
    7    8   14      0.01      0.20
    6    8   14     -0.34      0.30
    4    8   14     -0.59      0.26
    3    8   14     -0.64      0.38
    2    8   14     -0.68      0.46
    1    8   14     -0.60      0.30
    0    8   14     -0.44     -0.09
   -1    8   14     -0.35     -0.48
   -2    8   14     -0.40     -0.52
   -3    8   14     -0.56     -0.15
   -4    8   14     -0.67      0.29
   14    7   14      0.13     -0.03
   13    7   14      0.28     -0.18
   12    7   14      0.46     -0.53
   11    7   14      0.52     -0.81
   10    7   14      0.43     -0.78
    9    7   14      0.42     -0.52
    8    7   14      0.51     -0.22
    7    7   14      0.48     -0.02
    6    7   14      0.18      0.04
    5    7   14     -0.23     -0.01
    4    7   14     -0.60      0.00
    3    7   14     -0.94      0.12
    2    7   14     -1.12      0.14
    1    7   14     -0.99     -0.13
    0    7   14     -0.66     -0.58
   -1    7   14     -0.34     -0.90
   -2    7   14     -0.18     -0.82
   -3    7   14     -0.25     -0.33
   -4    7   14     -0.52      0.25
   -5    7   14     -0.65      0.51
   14    6   14      0.32     -0.04
   13    6   14      0.55     -0.09
   12    6   14      0.64     -0.37
   11    6   14      0.50     -0.64
   10    6   14      0.20     -0.62
    9    6   14      0.03     -0.39
    8    6   14      0.13     -0.18
    7    6   14      0.26     -0.11
    6    6   14      0.16     -0.18
    5    6   14     -0.20     -0.34
    4    6   14     -0.74     -0.41
    3    6   14     -1.35     -0.31
    2    6   14     -1.71     -0.29
    1    6   14     -1.51     -0.60
    0    6   14     -0.91     -1.06
   -1    6   14     -0.33     -1.25
   -2    6   14      0.03     -0.96
   -3    6   14      0.12     -0.36
   -4    6   14     -0.08      0.25
   -5    6   14     -0.37      0.56
   -6    6   14     -0.39      0.47
   14    5   14      0.64     -0.14
   13    5   14      0.92     -0.17
   12    5   14      0.90     -0.36
   11    5   14      0.52     -0.53
   10    5   14     -0.09     -0.42
    9    5   14     -0.59     -0.14
    8    5   14     -0.73      0.06
    7    5   14     -0.56      0.11
    6    5   14     -0.41      0.00
    5    5   14     -0.52     -0.24
    4    5   14     -0.99     -0.47
    3    5   14     -1.70     -0.49
    2    5   14     -2.21     -0.48
    1    5   14     -2.00     -0.79
    0    5   14     -1.14     -1.26
   -1    5   14     -0.29     -1.40
   -2    5   14      0.21     -0.99
   -3    5   14      0.43     -0.34
   -4    5   14      0.40      0.20
   -5    5   14      0.09      0.44
   -6    5   14     -0.22      0.42
   14    4   14      0.78     -0.29
   13    4   14      0.95     -0.27
   12    4   14      0.77     -0.27
   11    4   14      0.26     -0.28
   10    4   14     -0.42     -0.15
    9    4   14     -1.08      0.09
    8    4   14     -1.41      0.24
    7    4   14     -1.29      0.27
    6    4   14     -0.97      0.19
    5    4   14     -0.87     -0.06
    4    4   14     -1.25     -0.38
    3    4   14     -2.00     -0.48
    2    4   14     -2.62     -0.46
    1    4   14     -2.50     -0.69
    0    4   14     -1.62     -1.15
   -1    4   14     -0.63     -1.34
   -2    4   14     -0.03     -0.97
   -3    4   14      0.29     -0.36
   -4    4   14      0.48      0.06
   -5    4   14      0.37      0.22
   -6    4   14     -0.04      0.22
   -7    4   14     -0.29      0.14
   14    3   14      0.60     -0.29
   13    3   14      0.68     -0.18
   12    3   14      0.42      0.02
   11    3   14     -0.06      0.15
   10    3   14     -0.61      0.22
    9    3   14     -1.15      0.25
    8    3   14     -1.53      0.22
    7    3   14     -1.51      0.16
    6    3   14     -1.21      0.06
    5    3   14     -1.08     -0.14
    4    3   14     -1.47     -0.38
    3    3   14     -2.20     -0.38
    1    3   14     -2.77     -0.32
    0    3   14     -2.18     -0.75
   -1    3   14     -1.44     -1.04
   -2    3   14     -0.92     -0.81
   -3    3   14     -0.51     -0.33
   -4    3   14     -0.05     -0.01
   -5    3   14      0.24      0.08
   -6    3   14      0.06      0.05
   -7    3   14     -0.27     -0.01
   14    2   14      0.38     -0.13
   13    2   14      0.45     -0.09
   12    2   14      0.23      0.13
   11    2   14     -0.19      0.30
   10    2   14     -0.64      0.29
    9    2   14     -1.06      0.13
    8    2   14     -1.44     -0.08
    7    2   14     -1.61     -0.21
    6    2   14     -1.51     -0.28
    5    2   14     -1.47     -0.35
    4    2   14     -1.83     -0.39
    3    2   14     -2.39     -0.19
    2    2   14     -2.70      0.15
    1    2   14     -2.64      0.18
    0    2   14     -2.43     -0.18
   -1    2   14     -2.24     -0.51
   -2    2   14     -2.04     -0.43
   -3    2   14     -1.64     -0.15
   -4    2   14     -0.94      0.02
   -5    2   14     -0.27      0.02
   -6    2   14     -0.06     -0.04
   -7    2   14     -0.24     -0.11
   13    1   14      0.19      0.00
   12    1   14      0.07      0.13
   11    1   14     -0.29      0.30
   10    1   14     -0.77      0.29
    9    1   14     -1.21      0.04
    8    1   14     -1.63     -0.27
    7    1   14     -1.98     -0.43
    6    1   14     -2.11     -0.43
    5    1   14     -2.15     -0.39
    4    1   14     -2.38     -0.32
    3    1   14     -2.73     -0.05
    2    1   14     -2.84      0.34
    1    1   14     -2.70      0.51
    0    1   14     -2.66      0.33
   -1    1   14     -2.86      0.12
   -2    1   14     -2.98      0.11
   -3    1   14     -2.63      0.15
   -4    1   14     -1.81      0.07
   -5    1   14     -0.91     -0.06
   -6    1   14     -0.37     -0.11
   -7    1   14     -0.29     -0.14
   -8    1   14     -0.30     -0.17
   13    0   14     -0.09      0.31
   12    0   14     -0.02      0.38
   11    0   14     -0.17      0.52
   10    0   14     -0.61      0.56
    9    0   14     -1.14      0.33
    8    0   14     -1.57     -0.05
    7    0   14     -1.95     -0.30
    6    0   14     -2.22     -0.35
    5    0   14     -2.35     -0.38
    4    0   14     -2.49     -0.44
    3    0   14     -2.81     -0.38
    2    0   14     -3.11     -0.12
    1    0   14     -3.22      0.16
   -1    0   14     -3.52      0.42
   -2    0   14     -3.66      0.50
   -3    0   14     -3.34      0.41
   -4    0   14     -2.48      0.16
   -5    0   14     -1.41     -0.03
   -6    0   14     -0.60     -0.05
   -7    0   14     -0.25     -0.02
   -8    0   14     -0.15     -0.03
   13   -1   14     -0.10      0.48
   12   -1   14      0.11      0.50
   11   -1   14      0.21      0.54
   10   -1   14     -0.10      0.58
    9   -1   14     -0.64      0.41
    8   -1   14     -1.04      0.01
    7   -1   14     -1.31     -0.37
    6   -1   14     -1.64     -0.60
    5   -1   14     -1.93     -0.77
    4   -1   14     -2.12     -0.99
    3   -1   14     -2.44     -1.17
    2   -1   14     -3.05     -1.14
    1   -1   14     -3.68     -0.87
    0   -1   14     -4.04     -0.41
   -1   -1   14     -4.11      0.10
   -2   -1   14     -3.99      0.46
   -3   -1   14     -3.60      0.49
   -4   -1   14     -2.75      0.33
   -5   -1   14     -1.57      0.23
   -6   -1   14     -0.52      0.26
   -7   -1   14      0.04      0.28
   -8   -1   14      0.16      0.20
   12   -2   14      0.20      0.33
   11   -2   14      0.30      0.29
   10   -2   14      0.09      0.30
    9   -2   14     -0.38      0.18
    8   -2   14     -0.73     -0.20
    7   -2   14     -0.94     -0.64
    6   -2   14     -1.33     -0.94
    5   -2   14     -1.83     -1.09
    4   -2   14     -2.05     -1.25
    3   -2   14     -2.09     -1.47
    2   -2   14     -2.54     -1.64
    1   -2   14     -3.46     -1.57
    0   -2   14     -4.18     -1.09
   -1   -2   14     -4.16     -0.34
   -2   -2   14     -3.64      0.27
   -3   -2   14     -3.01      0.48
   -4   -2   14     -2.25      0.45
   -5   -2   14     -1.21      0.47
   -6   -2   14     -0.16      0.52
   -7   -2   14      0.42      0.44
   -8   -2   14      0.44      0.27
   12   -3   14      0.21      0.26
   11   -3   14      0.16      0.32
   10   -3   14      0.00      0.35
    9   -3   14     -0.30      0.21
    8   -3   14     -0.61     -0.15
    7   -3   14     -0.89     -0.51
    6   -3   14     -1.39     -0.68
    5   -3   14     -2.04     -0.72
    4   -3   14     -2.24     -0.79
    3   -3   14     -1.87     -0.98
    2   -3   14     -1.76     -1.25
    1   -3   14     -2.52     -1.40
    0   -3   14     -3.44     -1.11
   -1   -3   14     -3.47     -0.42
   -2   -3   14     -2.60      0.20
   -3   -3   14     -1.70      0.41
   -4   -3   14     -1.12      0.38
   -5   -3   14     -0.54      0.43
   -6   -3   14      0.16      0.47
   -7   -3   14      0.57      0.31
   -8   -3   14      0.49      0.07
   11   -4   14      0.05      0.35
   10   -4   14     -0.08      0.45
    9   -4   14     -0.19      0.30
    8   -4   14     -0.40      0.00
    7   -4   14     -0.74     -0.14
    6   -4   14     -1.27     -0.04
    5   -4   14     -1.92     -0.03
    4   -4   14     -2.15     -0.30
    3   -4   14     -1.65     -0.67
    2   -4   14     -1.11     -0.92
    1   -4   14     -1.45     -1.00
    0   -4   14     -2.31     -0.80
   -1   -4   14     -2.45     -0.33
   -2   -4   14     -1.55      0.12
   -3   -4   14     -0.53      0.26
   -4   -4   14     -0.11      0.24
   -5   -4   14      0.00      0.33
   -6   -4   14      0.23      0.40
   -7   -4   14      0.44      0.20
   -8   -4   14      0.35     -0.10
   11   -5   14     -0.20      0.17
   10   -5   14     -0.39      0.40
    9   -5   14     -0.37      0.36
    8   -5   14     -0.42      0.12
    7   -5   14     -0.67      0.13
    6   -5   14     -1.06      0.45
    5   -5   14     -1.53      0.48
    4   -5   14     -1.80     -0.11
    3   -5   14     -1.48     -0.80
    2   -5   14     -0.89     -0.97
    1   -5   14     -0.84     -0.68
    0   -5   14     -1.38     -0.34
   -1   -5   14     -1.60     -0.10
   -2   -5   14     -0.94      0.07
   -3   -5   14     -0.04      0.15
   -4   -5   14      0.33      0.26
   -5   -5   14      0.28      0.47
   -6   -5   14      0.27      0.55
   -7   -5   14      0.30      0.29
   -8   -5   14      0.21     -0.09
   10   -6   14     -0.57      0.52
    9   -6   14     -0.54      0.64
    8   -6   14     -0.52      0.38
    7   -6   14     -0.65      0.25
    6   -6   14     -0.84      0.53
    5   -6   14     -1.07      0.66
    4   -6   14     -1.29      0.06
    3   -6   14     -1.21     -0.75
    2   -6   14     -0.79     -0.84
    1   -6   14     -0.53     -0.18
    0   -6   14     -0.75      0.43
   -1   -6   14     -0.96      0.50
   -2   -6   14     -0.61      0.28
   -3   -6   14      0.05      0.19
   -4   -6   14      0.47      0.35
   -5   -6   14      0.54      0.61
   -6   -6   14      0.48      0.67
   -7   -6   14      0.34      0.38
    9   -7   14     -0.28      0.79
    8   -7   14     -0.40      0.55
    7   -7   14     -0.54      0.15
    6   -7   14     -0.55      0.13
    5   -7   14     -0.51      0.33
    4   -7   14     -0.57      0.10
    3   -7   14     -0.58     -0.47
    2   -7   14     -0.34     -0.51
    1   -7   14     -0.08      0.29
    0   -7   14     -0.16      1.09
   -1   -7   14     -0.38      1.13
   -2   -7   14     -0.28      0.57
   -3   -7   14      0.13      0.13
   -4   -7   14      0.50      0.13
   -5   -7   14      0.68      0.36
   -6   -7   14      0.68      0.46
   -7   -7   14      0.46      0.27
    8   -8   14     -0.28      0.51
    7   -8   14     -0.46      0.02
    6   -8   14     -0.30     -0.39
    5   -8   14      0.02     -0.36
    4   -8   14      0.14     -0.23
    3   -8   14      0.11     -0.35
    2   -8   14      0.25     -0.33
    1   -8   14      0.46      0.28
    0   -8   14      0.38      1.07
   -1   -8   14      0.08      1.21
   -2   -8   14     -0.01      0.59
   -3   -8   14      0.18     -0.11
   -4   -8   14      0.39     -0.31
   -5   -8   14      0.50     -0.10
   -6   -8   14      0.55      0.10
   -7   -8   14      0.44      0.10
    7   -9   14     -0.35      0.14
    6   -9   14     -0.10     -0.54
    5   -9   14      0.34     -0.86
    4   -9   14      0.47     -0.62
    3   -9   14      0.36     -0.29
    2   -9   14      0.42     -0.12
    1   -9   14      0.67      0.15
    0   -9   14      0.65      0.64
   -1   -9   14      0.31      0.87
   -2   -9   14      0.12      0.48
   -3   -9   14      0.22     -0.17
   -4   -9   14      0.34     -0.47
   -5   -9   14      0.31     -0.32
   -6   -9   14      0.29     -0.08
    5  -10   14      0.38     -0.82
    4  -10   14      0.44     -0.65
    3  -10   14      0.22     -0.07
    2  -10   14      0.23      0.26
    1  -10   14      0.55      0.26
    0  -10   14      0.68      0.33
   -1  -10   14      0.42      0.50
   -2  -10   14      0.20      0.41
   -3  -10   14      0.32      0.00
   -4  -10   14      0.49     -0.33
   -5  -10   14      0.39     -0.32
    4  -11   14      0.25     -0.41
    3  -11   14      0.08      0.08
    2  -11   14      0.08      0.42
    1  -11   14      0.42      0.30
    0  -11   14      0.66      0.11
   -1  -11   14      0.49      0.17
   -2  -11   14      0.23      0.25
   -3  -11   14      0.29      0.08
   -4  -11   14      0.48     -0.20
    9   15   13     -0.19      0.51
    8   15   13     -0.17      0.10
    7   15   13      0.04     -0.33
    6   15   13      0.35     -0.24
    5   15   13      0.51      0.13
    4   15   13      0.51      0.17
   10   14   13     -0.40      0.97
    9   14   13     -0.18      1.10
    8   14   13      0.09      0.64
    7   14   13      0.24     -0.10
    6   14   13      0.31     -0.33
    5   14   13      0.36      0.04
    4   14   13      0.42      0.28
    3   14   13      0.47      0.04
    2   14   13      0.45     -0.19
    1   14   13      0.29     -0.07
   12   13   13     -0.24      0.35
   11   13   13     -0.63      0.70
   10   13   13     -0.71      1.09
    9   13   13     -0.20      1.26
    8   13   13      0.40      0.86
    7   13   13      0.48      0.07
    6   13   13      0.12     -0.34
    5   13   13     -0.17      0.00
    4   13   13     -0.12      0.45
    3   13   13      0.07      0.36
    2   13   13      0.14     -0.01
    1   13   13     -0.02     -0.11
    0   13   13     -0.24      0.08
   12   12   13     -0.29      0.05
   11   12   13     -0.76      0.40
   10   12   13     -0.95      0.82
    9   12   13     -0.34      1.00
    8   12   13      0.57      0.71
    7   12   13      0.77      0.07
    6   12   13      0.14     -0.32
    5   12   13     -0.51     -0.06
    4   12   13     -0.59      0.47
    3   12   13     -0.36      0.58
    2   12   13     -0.26      0.23
    1   12   13     -0.39     -0.04
    0   12   13     -0.55      0.02
   -1   12   13     -0.51      0.19
   -2   12   13     -0.32      0.24
   13   11   13     -0.03     -0.25
   12   11   13     -0.20     -0.27
   11   11   13     -0.58      0.09
   10   11   13     -0.81      0.64
    9   11   13     -0.30      0.91
    8   11   13      0.65      0.71
    7   11   13      0.98      0.25
    6   11   13      0.30     -0.07
    5   11   13     -0.59      0.01
    4   11   13     -0.90      0.37
    3   11   13     -0.78      0.54
    2   11   13     -0.71      0.36
    1   11   13     -0.77      0.10
    0   11   13     -0.74      0.07
   -1   11   13     -0.52      0.19
   -2   11   13     -0.27      0.26
   -3   11   13     -0.18      0.21
   13   10   13      0.01     -0.17
   12   10   13     -0.13     -0.27
   11   10   13     -0.31      0.06
   10   10   13     -0.41      0.71
    9   10   13     -0.04      1.07
    8   10   13      0.70      0.90
    7   10   13      1.00      0.56
    6   10   13      0.41      0.33
    5   10   13     -0.52      0.23
    4   10   13     -1.05      0.23
    3   10   13     -1.12      0.29
    2   10   13     -1.13      0.28
    1   10   13     -1.11      0.20
    0   10   13     -0.85      0.19
   -1   10   13     -0.37      0.26
   -3   10   13      0.06      0.28
   -4   10   13     -0.10      0.17
   14    9   13      0.15      0.13
   13    9   13     -0.01      0.19
   12    9   13     -0.22      0.07
   11    9   13     -0.34      0.22
   10    9   13     -0.32      0.73
    9    9   13     -0.06      1.03
    8    9   13      0.40      0.84
    7    9   13      0.63      0.54
    6    9   13      0.26      0.43
    5    9   13     -0.45      0.28
    4    9   13     -1.00     -0.01
    3    9   13     -1.23     -0.16
    2    9   13     -1.32     -0.03
    1    9   13     -1.25      0.18
    0    9   13     -0.85      0.29
   -1    9   13     -0.17      0.34
   -2    9   13      0.38      0.36
   -3    9   13      0.49      0.34
   -4    9   13      0.24      0.27
   -5    9   13      0.01      0.14
   14    8   13      0.12      0.18
   13    8   13     -0.03      0.36
   12    8   13     -0.39      0.30
   11    8   13     -0.68      0.27
   10    8   13     -0.74      0.55
    9    8   13     -0.59      0.75
    8    8   13     -0.31      0.56
    7    8   13     -0.08      0.33
    6    8   13     -0.14      0.36
    5    8   13     -0.48      0.28
    4    8   13     -0.89     -0.15
    3    8   13     -1.19     -0.47
    2    8   13     -1.30     -0.27
    1    8   13     -1.17      0.18
    0    8   13     -0.70      0.46
   -1    8   13      0.03      0.48
   -2    8   13      0.69      0.41
   -3    8   13      0.94      0.34
   -4    8   13      0.68      0.26
   -5    8   13      0.24      0.17
   14    7   13     -0.08     -0.05
   13    7   13     -0.23      0.13
   12    7   13     -0.62      0.20
   11    7   13     -1.04      0.19
   10    7   13     -1.20      0.30
    9    7   13     -1.07      0.38
    8    7   13     -0.81      0.21
    7    7   13     -0.49      0.06
    6    7   13     -0.27      0.19
    5    7   13     -0.30      0.22
    4    7   13     -0.62     -0.21
    3    7   13     -1.05     -0.62
    2    7   13     -1.27     -0.43
    1    7   13     -1.11      0.20
    0    7   13     -0.62      0.65
   -1    7   13      0.07      0.67
   -2    7   13      0.73      0.48
   -3    7   13      1.10      0.27
   -4    7   13      0.96      0.10
   -5    7   13      0.41     -0.01
   -6    7   13     -0.09     -0.03
   14    6   13     -0.52     -0.28
   13    6   13     -0.67     -0.13
   12    6   13     -0.89      0.10
   11    6   13     -1.17      0.17
   10    6   13     -1.28      0.12
    9    6   13     -1.16     -0.03
    8    6   13     -0.90     -0.31
    7    6   13     -0.54     -0.48
    6    6   13     -0.13     -0.33
    5    6   13      0.04     -0.22
    4    6   13     -0.26     -0.53
    3    6   13     -0.89     -0.92
    2    6   13     -1.37     -0.72
    1    6   13     -1.40      0.02
    0    6   13     -1.02      0.67
   -1    6   13     -0.43      0.83
   -2    6   13      0.20      0.62
   -3    6   13      0.71      0.27
   -4    6   13      0.85     -0.06
   -5    6   13      0.49     -0.28
   -6    6   13     -0.07     -0.34
   14    5   13     -0.91     -0.27
   13    5   13     -1.01     -0.17
   12    5   13     -0.97      0.11
   11    5   13     -1.02      0.22
   10    5   13     -1.08      0.03
    9    5   13     -1.08     -0.34
    8    5   13     -1.03     -0.75
    7    5   13     -0.82     -0.93
    6    5   13     -0.36     -0.74
    5    5   13      0.02     -0.51
    4    5   13     -0.11     -0.66
    3    5   13     -0.74     -0.98
    2    5   13     -1.38     -0.83
    1    5   13     -1.68     -0.11
    0    5   13     -1.59      0.65
   -1    5   13     -1.21      0.97
   -2    5   13     -0.63      0.81
   -3    5   13      0.01      0.38
   -4    5   13      0.48     -0.11
   -5    5   13      0.53     -0.50
   -6    5   13      0.18     -0.66
   -7    5   13     -0.18     -0.55
   14    4   13     -1.00     -0.20
   13    4   13     -1.04     -0.20
   12    4   13     -0.88      0.04
   11    4   13     -0.87      0.18
   10    4   13     -1.00     -0.01
    9    4   13     -1.15     -0.45
    8    4   13     -1.32     -0.87
    7    4   13     -1.35     -0.98
    6    4   13     -0.96     -0.64
    5    4   13     -0.38     -0.21
    4    4   13     -0.20     -0.18
    3    4   13     -0.56     -0.45
    2    4   13     -1.08     -0.44
    1    4   13     -1.48      0.09
    0    4   13     -1.70      0.77
   -1    4   13     -1.64      1.09
   -2    4   13     -1.23      0.93
   -3    4   13     -0.55      0.41
   -4    4   13      0.12     -0.19
   -5    4   13      0.55     -0.66
   -6    4   13      0.53     -0.87
   -7    4   13      0.20     -0.77
   14    3   13     -0.97     -0.22
   13    3   13     -1.01     -0.27
   12    3   13     -0.89     -0.02
   11    3   13     -0.99      0.24
   10    3   13     -1.21      0.12
    9    3   13     -1.36     -0.34
    8    3   13     -1.52     -0.82
    7    3   13     -1.63     -0.92
    6    3   13     -1.34     -0.47
    5    3   13     -0.72      0.15
    4    3   13     -0.34      0.38
    1    3   13     -1.05      0.55
    0    3   13     -1.34      1.14
   -1    3   13     -1.59      1.34
   -2    3   13     -1.48      1.01
   -3    3   13     -0.92      0.36
   -4    3   13     -0.18     -0.28
   -5    3   13      0.48     -0.70
   -6    3   13      0.81     -0.87
   -7    3   13      0.66     -0.78
   -8    3   13      0.27     -0.47
   14    2   13     -0.88     -0.22
   13    2   13     -0.92     -0.25
   12    2   13     -0.82      0.06
   11    2   13     -0.96      0.40
   10    2   13     -1.24      0.34
    9    2   13     -1.32     -0.19
    8    2   13     -1.27     -0.79
    7    2   13     -1.26     -0.96
    6    2   13     -1.06     -0.50
    5    2   13     -0.58      0.23
    4    2   13     -0.23      0.59
    3    2   13     -0.35      0.49
    2    2   13     -0.54      0.49
    1    2   13     -0.52      0.99
    0    2   13     -0.60      1.60
   -1    2   13     -1.02      1.68
   -2    2   13     -1.35      1.14
   -3    2   13     -1.14      0.37
   -4    2   13     -0.48     -0.20
   -5    2   13      0.30     -0.48
   -6    2   13      0.87     -0.60
   -7    2   13      0.96     -0.61
   -8    2   13      0.58     -0.45
   14    1   13     -0.55     -0.21
   13    1   13     -0.61     -0.27
   12    1   13     -0.54     -0.07
   11    1   13     -0.66      0.19
   10    1   13     -0.94      0.09
    9    1   13     -1.01     -0.45
    8    1   13     -0.78     -1.03
    7    1   13     -0.58     -1.15
    6    1   13     -0.45     -0.61
    5    1   13     -0.18      0.26
    4    1   13      0.09      0.79
    3    1   13      0.08      0.76
    2    1   13      0.07      0.71
    1    1   13      0.37      1.14
    0    1   13      0.59      1.73
   -1    1   13      0.17      1.77
   -2    1   13     -0.62      1.14
   -3    1   13     -0.99      0.37
   -4    1   13     -0.66     -0.05
   -5    1   13      0.04     -0.15
   -6    1   13      0.65     -0.23
   -7    1   13      0.84     -0.39
   -8    1   13      0.56     -0.44
   13    0   13     -0.39     -0.29
   12    0   13     -0.50     -0.20
   11    0   13     -0.60     -0.08
   10    0   13     -0.80     -0.26
    9    0   13     -0.85     -0.77
    8    0   13     -0.56     -1.21
    7    0   13     -0.19     -1.15
    6    0   13     -0.04     -0.44
    5    0   13      0.06      0.61
    4    0   13      0.33      1.33
    3    0   13      0.66      1.34
    2    0   13      0.99      1.05
    1    0   13      1.46      1.09
    0    0   13      1.82      1.43
   -1    0   13      1.49      1.45
   -2    0   13      0.50      0.92
   -3    0   13     -0.40      0.27
   -4    0   13     -0.62     -0.04
   -5    0   13     -0.28     -0.04
   -6    0   13      0.15     -0.09
   -7    0   13      0.33     -0.34
   -8    0   13      0.18     -0.50
   13   -1   13     -0.36     -0.07
   12   -1   13     -0.63      0.11
   11   -1   13     -0.66      0.16
   10   -1   13     -0.59     -0.12
    9   -1   13     -0.50     -0.62
    8   -1   13     -0.22     -0.96
    7   -1   13      0.25     -0.78
    6   -1   13      0.54     -0.03
    5   -1   13      0.59      1.00
    4   -1   13      0.78      1.74
    3   -1   13      1.32      1.76
    2   -1   13      1.97      1.25
    1   -1   13      2.45      0.84
    0   -1   13      2.61      0.77
   -1   -1   13      2.22      0.74
   -2   -1   13      1.27      0.44
   -3   -1   13      0.16      0.03
   -4   -1   13     -0.53     -0.18
   -5   -1   13     -0.66     -0.16
   -6   -1   13     -0.45     -0.18
   -7   -1   13     -0.24     -0.37
   -8   -1   13     -0.18     -0.51
   -9   -1   13     -0.23     -0.39
   13   -2   13     -0.25      0.10
   12   -2   13     -0.51      0.29
   11   -2   13     -0.42      0.29
   10   -2   13     -0.09     -0.07
    9   -2   13      0.19     -0.59
    8   -2   13      0.48     -0.82
    7   -2   13      1.00     -0.58
    6   -2   13      1.49      0.03
    5   -2   13      1.54      0.76
    4   -2   13      1.41      1.31
    3   -2   13      1.71      1.37
    2   -2   13      2.44      0.93
    1   -2   13      2.98      0.33
    0   -2   13      2.88     -0.07
   -1   -2   13      2.21     -0.24
   -2   -2   13      1.23     -0.30
   -3   -2   13      0.19     -0.34
   -4   -2   13     -0.65     -0.33
   -5   -2   13     -1.02     -0.27
   -6   -2   13     -0.88     -0.23
   -7   -2   13     -0.49     -0.27
   -8   -2   13     -0.17     -0.30
   -9   -2   13     -0.05     -0.19
   12   -3   13     -0.23      0.12
   11   -3   13     -0.13      0.04
   10   -3   13      0.24     -0.33
    9   -3   13      0.61     -0.79
    8   -3   13      0.95     -0.95
    7   -3   13      1.51     -0.70
    6   -3   13      2.13     -0.24
    5   -3   13      2.20      0.23
    4   -3   13      1.68      0.62
    3   -3   13      1.43      0.81
    2   -3   13      2.00      0.65
    1   -3   13      2.77      0.17
   -1   -3   13      1.91     -0.76
   -2   -3   13      0.79     -0.78
   -3   -3   13     -0.14     -0.55
   -4   -3   13     -0.81     -0.34
   -5   -3   13     -1.14     -0.29
   -6   -3   13     -0.99     -0.28
   -7   -3   13     -0.46     -0.20
   -8   -3   13      0.06     -0.07
   -9   -3   13      0.26      0.07
   12   -4   13      0.09      0.08
   11   -4   13      0.22      0.02
   10   -4   13      0.47     -0.25
    9   -4   13      0.79     -0.63
    8   -4   13      1.17     -0.85
    7   -4   13      1.75     -0.72
    6   -4   13      2.38     -0.35
    5   -4   13      2.48      0.11
    4   -4   13      1.76      0.55
    3   -4   13      0.99      0.84
    2   -4   13      1.16      0.84
    1   -4   13      2.04      0.55
    0   -4   13      2.45      0.07
   -1   -4   13      1.80     -0.36
   -2   -4   13      0.66     -0.49
   -3   -4   13     -0.24     -0.33
   -4   -4   13     -0.74     -0.20
   -5   -4   13     -0.97     -0.32
   -6   -4   13     -0.88     -0.45
   -7   -4   13     -0.43     -0.34
   -8   -4   13      0.09     -0.04
   -9   -4   13      0.34      0.17
   11   -5   13      0.57      0.11
   10   -5   13      0.66     -0.01
    9   -5   13      0.80     -0.27
    8   -5   13      1.20     -0.54
    7   -5   13      1.82     -0.62
    6   -5   13      2.43     -0.34
    5   -5   13      2.59      0.26
    4   -5   13      1.98      0.84
    3   -5   13      1.03      1.08
    2   -5   13      0.68      0.94
    1   -5   13      1.26      0.69
    0   -5   13      1.93      0.52
   -1   -5   13      1.78      0.37
   -2   -5   13      0.91      0.24
   -3   -5   13      0.03      0.14
   -4   -5   13     -0.50     -0.03
   -5   -5   13     -0.73     -0.37
   -6   -5   13     -0.71     -0.63
   -7   -5   13     -0.43     -0.52
   -8   -5   13     -0.07     -0.14
   -9   -5   13      0.16      0.13
   10   -6   13      0.36      0.14
    9   -6   13      0.28      0.14
    8   -6   13      0.66     -0.03
    7   -6   13      1.41     -0.27
    6   -6   13      2.10     -0.21
    5   -6   13      2.37      0.33
    4   -6   13      2.04      0.99
    3   -6   13      1.26      1.14
    2   -6   13      0.65      0.70
    1   -6   13      0.73      0.30
    0   -6   13      1.29      0.39
   -1   -6   13      1.55      0.73
   -2   -6   13      1.14      0.85
   -3   -6   13      0.39      0.62
   -4   -6   13     -0.24      0.18
   -5   -6   13     -0.54     -0.32
   -6   -6   13     -0.52     -0.66
   -7   -6   13     -0.32     -0.59
   -8   -6   13     -0.14     -0.24
   10   -7   13     -0.13      0.41
    9   -7   13     -0.31      0.67
    8   -7   13      0.00      0.71
    7   -7   13      0.81      0.42
    6   -7   13      1.55      0.14
    5   -7   13      1.84      0.36
    4   -7   13      1.70      0.93
    3   -7   13      1.28      1.11
    2   -7   13      0.79      0.57
    1   -7   13      0.58     -0.05
    0   -7   13      0.78      0.00
   -1   -7   13      1.05      0.62
   -2   -7   13      0.99      1.08
   -3   -7   13      0.60      0.99
   -4   -7   13      0.12      0.45
   -5   -7   13     -0.20     -0.19
   -6   -7   13     -0.24     -0.63
   -7   -7   13     -0.11     -0.64
   -8   -7   13     -0.05     -0.34
    9   -8   13     -0.34      0.85
    8   -8   13     -0.16      1.10
    7   -8   13      0.47      0.97
    6   -8   13      1.11      0.57
    5   -8   13      1.39      0.42
    4   -8   13      1.36      0.73
    3   -8   13      1.23      0.96
    2   -8   13      1.02      0.58
    1   -8   13      0.78     -0.13
    0   -8   13      0.57     -0.37
   -1   -8   13      0.43      0.07
   -2   -8   13      0.39      0.68
   -3   -8   13      0.44      0.84
   -4   -8   13      0.42      0.45
   -5   -8   13      0.24     -0.20
   -6   -8   13      0.03     -0.69
   -7   -8   13     -0.01     -0.73
   -8   -8   13      0.03     -0.41
    8   -9   13     -0.07      0.78
    7   -9   13      0.32      0.97
    6   -9   13      0.83      0.79
    5   -9   13      1.18      0.46
    4   -9   13      1.33      0.40
    3   -9   13      1.38      0.52
    2   -9   13      1.31      0.39
    1   -9   13      1.05     -0.15
    0   -9   13      0.53     -0.66
   -1   -9   13     -0.11     -0.70
   -2   -9   13     -0.48     -0.32
   -3   -9   13     -0.26      0.05
   -4   -9   13      0.25      0.04
   -5   -9   13      0.40     -0.32
   -6   -9   13      0.10     -0.69
   -7   -9   13     -0.14     -0.71
    5  -10   13      1.02      0.36
    4  -10   13      1.31      0.05
    3  -10   13      1.46      0.05
    2  -10   13      1.39      0.17
    1  -10   13      1.05      0.02
    0  -10   13      0.40     -0.50
   -1  -10   13     -0.49     -1.01
   -2  -10   13     -1.18     -1.10
   -3  -10   13     -1.06     -0.75
   -4  -10   13     -0.26     -0.35
   -5  -10   13      0.31     -0.27
   -6  -10   13      0.15     -0.41
    5  -11   13      0.65      0.16
    4  -11   13      0.93     -0.08
    3  -11   13      1.15     -0.07
    2  -11   13      1.12      0.25
    1  -11   13      0.78      0.45
    0  -11   13      0.17      0.12
   -1  -11   13     -0.63     -0.59
   -2  -11   13     -1.33     -1.09
   -3  -11   13     -1.36     -0.95
   -4  -11   13     -0.60     -0.44
   -5  -11   13      0.20     -0.07
    3  -12   13      0.56      0.00
    2  -12   13      0.66      0.34
    1  -12   13      0.44      0.65
    0  -12   13     -0.03      0.52
   -1  -12   13     -0.56     -0.06
   -2  -12   13     -0.99     -0.61
   -3  -12   13     -1.04     -0.67
   -4  -12   13     -0.57     -0.30
   10   15   12      0.02      0.30
    9   15   12      0.14      0.73
    8   15   12     -0.02      1.05
    7   15   12     -0.28      0.92
    6   15   12     -0.27      0.63
    5   15   12      0.01      0.60
    4   15   12      0.19      0.64
    3   15   12      0.14      0.30
    2   15   12      0.08     -0.30
   11   14   12     -0.30     -0.16
   10   14   12     -0.21      0.05
    9   14   12     -0.16      0.58
    8   14   12     -0.19      1.12
    7   14   12     -0.28      1.13
    6   14   12     -0.20      0.71
    5   14   12      0.06      0.51
    4   14   12      0.25      0.59
    3   14   12      0.23      0.36
    2   14   12      0.18     -0.35
    1   14   12      0.19     -0.90
    0   14   12      0.10     -0.81
   12   13   12     -0.54     -0.44
   11   13   12     -0.38     -0.35
   10   13   12     -0.34     -0.11
    9   13   12     -0.40      0.42
    8   13   12     -0.32      1.05
    7   13   12     -0.08      1.19
    6   13   12      0.14      0.70
    5   13   12      0.22      0.26
    4   13   12      0.11      0.30
    3   13   12     -0.07      0.30
    2   13   12     -0.09     -0.25
    1   13   12      0.06     -0.95
    0   13   12      0.04     -1.12
   -1   13   12     -0.25     -0.71
   13   12   12     -0.78     -0.39
   12   12   12     -0.86     -0.60
   11   12   12     -0.56     -0.62
   10   12   12     -0.43     -0.44
    9   12   12     -0.58      0.02
    8   12   12     -0.52      0.66
    7   12   12     -0.02      0.97
    6   12   12      0.47      0.63
    5   12   12      0.47      0.11
    4   12   12      0.00      0.07
    3   12   12     -0.50      0.32
    2   12   12     -0.59      0.11
    1   12   12     -0.31     -0.61
    0   12   12     -0.15     -1.13
   -1   12   12     -0.41     -1.01
   -2   12   12     -0.73     -0.52
   13   11   12     -1.10     -0.24
   12   11   12     -1.33     -0.69
   11   11   12     -0.99     -1.04
   10   11   12     -0.67     -1.05
    9   11   12     -0.75     -0.67
    8   11   12     -0.73     -0.06
    7   11   12     -0.15      0.40
    6   11   12      0.60      0.36
    5   11   12      0.78     -0.01
    4   11   12      0.26     -0.08
    3   11   12     -0.45      0.30
    2   11   12     -0.75      0.47
    1   11   12     -0.55     -0.06
    0   11   12     -0.30     -0.84
   -1   11   12     -0.43     -1.15
   -2   11   12     -0.75     -0.85
   -3   11   12     -0.81     -0.36
   -4   11   12     -0.53     -0.04
   14   10   12     -0.53     -0.08
   13   10   12     -1.18     -0.30
   12   10   12     -1.62     -0.82
   11   10   12     -1.41     -1.38
   10   10   12     -0.88     -1.55
    9   10   12     -0.65     -1.20
    8   10   12     -0.58     -0.60
    7   10   12     -0.14     -0.12
    6   10   12      0.55      0.04
    5   10   12      0.90     -0.08
    4   10   12      0.60     -0.12
    3   10   12     -0.02      0.22
    2   10   12     -0.46      0.63
    1   10   12     -0.51      0.47
    0   10   12     -0.36     -0.31
   -1   10   12     -0.33     -0.96
   -2   10   12     -0.50     -0.96
   -3   10   12     -0.61     -0.53
   -4   10   12     -0.49     -0.15
   14    9   12     -0.54     -0.49
   13    9   12     -1.07     -0.65
   12    9   12     -1.62     -0.94
   11    9   12     -1.57     -1.39
   10    9   12     -0.91     -1.59
    9    9   12     -0.27     -1.29
    8    9   12      0.03     -0.81
    7    9   12      0.24     -0.46
    6    9   12      0.57     -0.26
    5    9   12      0.82     -0.16
    4    9   12      0.74     -0.11
    3    9   12      0.39      0.08
    2    9   12     -0.07      0.49
    1    9   12     -0.40      0.68
    0    9   12     -0.49      0.25
   -1    9   12     -0.40     -0.43
   -2    9   12     -0.30     -0.68
   -3    9   12     -0.26     -0.41
   -4    9   12     -0.22     -0.07
   -5    9   12     -0.13      0.03
   14    8   12     -0.56     -0.76
   13    8   12     -0.90     -0.91
   12    8   12     -1.38     -0.90
   11    8   12     -1.53     -1.05
   10    8   12     -1.04     -1.26
    9    8   12     -0.29     -1.19
    7    8   12      0.33     -0.81
    6    8   12      0.39     -0.69
    5    8   12      0.52     -0.44
    4    8   12      0.64     -0.26
    3    8   12      0.56     -0.19
    2    8   12      0.15      0.04
    1    8   12     -0.43      0.45
    0    8   12     -0.82      0.57
   -1    8   12     -0.78      0.24
   -2    8   12     -0.44     -0.08
   -3    8   12     -0.10     -0.05
   -4    8   12      0.08      0.14
   -5    8   12      0.15      0.14
   -6    8   12      0.20      0.00
   14    7   12     -0.44     -0.72
   13    7   12     -0.65     -1.00
   12    7   12     -1.07     -0.86
   11    7   12     -1.46     -0.72
   10    7   12     -1.46     -0.82
    9    7   12     -1.07     -0.93
    8    7   12     -0.67     -0.88
    7    7   12     -0.47     -0.83
    6    7   12     -0.36     -0.71
    5    7   12     -0.10     -0.42
    4    7   12      0.31     -0.19
    3    7   12      0.51     -0.26
    2    7   12      0.20     -0.29
    1    7   12     -0.51      0.12
    0    7   12     -1.10      0.67
   -1    7   12     -1.16      0.82
   -2    7   12     -0.72      0.57
   -3    7   12     -0.16      0.34
   -4    7   12      0.25      0.27
   -5    7   12      0.47      0.17
   -6    7   12      0.52     -0.02
   -7    7   12      0.43     -0.13
   15    6   12     -0.14     -0.13
   14    6   12     -0.22     -0.61
   13    6   12     -0.47     -1.02
   12    6   12     -0.95     -0.90
   11    6   12     -1.50     -0.54
   10    6   12     -1.82     -0.43
    9    6   12     -1.79     -0.55
    8    6   12     -1.56     -0.58
    7    6   12     -1.31     -0.47
    6    6   12     -1.06     -0.25
    5    6   12     -0.60      0.07
    4    6   12      0.05      0.24
    3    6   12      0.46      0.00
    2    6   12      0.24     -0.29
    1    6   12     -0.50     -0.07
    0    6   12     -1.16      0.59
   -1    6   12     -1.28      1.05
   -2    6   12     -0.89      0.96
   -3    6   12     -0.32      0.57
   -4    6   12      0.23      0.25
   -5    6   12      0.65      0.05
   -6    6   12      0.86     -0.12
   -7    6   12      0.74     -0.25
   15    5   12      0.01     -0.19
   14    5   12     -0.07     -0.52
   13    5   12     -0.48     -0.85
   12    5   12     -1.06     -0.74
   11    5   12     -1.54     -0.31
   10    5   12     -1.74     -0.14
    9    5   12     -1.69     -0.35
    8    5   12     -1.52     -0.53
    7    5   12     -1.34     -0.42
    6    5   12     -1.14     -0.07
    5    5   12     -0.72      0.35
    4    5   12     -0.05      0.53
    3    5   12      0.45      0.27
    2    5   12      0.29     -0.11
    1    5   12     -0.46     -0.06
    0    5   12     -1.18      0.49
   -1    5   12     -1.40      1.00
   -2    5   12     -1.17      1.04
   -3    5   12     -0.70      0.69
   -4    5   12     -0.12      0.28
   -5    5   12      0.53      0.00
   -6    5   12      1.04     -0.21
   -7    5   12      1.10     -0.39
   -8    5   12      0.68     -0.43
   15    4   12      0.09     -0.23
   14    4   12      0.04     -0.37
   13    4   12     -0.40     -0.54
   12    4   12     -0.98     -0.41
   11    4   12     -1.29     -0.09
   10    4   12     -1.23     -0.05
    9    4   12     -0.99     -0.38
    8    4   12     -0.79     -0.70
    7    4   12     -0.78     -0.66
    6    4   12     -0.84     -0.24
    5    4   12     -0.67      0.35
    4    4   12     -0.08      0.73
    3    4   12      0.55      0.63
    2    4   12      0.59      0.30
    1    4   12     -0.04      0.27
    0    4   12     -0.83      0.62
   -1    4   12     -1.30      0.97
   -2    4   12     -1.37      1.03
   -3    4   12     -1.16      0.80
   -4    4   12     -0.67      0.47
   -5    4   12      0.10      0.13
   -6    4   12      0.90     -0.18
   -7    4   12      1.26     -0.48
   -8    4   12      0.97     -0.65
   14    3   12      0.20     -0.22
   13    3   12     -0.14     -0.34
   12    3   12     -0.64     -0.29
   11    3   12     -0.87     -0.12
   10    3   12     -0.70     -0.15
    9    3   12     -0.34     -0.46
    8    3   12     -0.09     -0.72
    7    3   12     -0.15     -0.72
    6    3   12     -0.49     -0.38
    5    3   12     -0.61      0.28
    4    3   12     -0.10      0.89
    3    3   12      0.75      0.99
    1    3   12      0.84      0.48
    0    3   12      0.12      0.68
   -1    3   12     -0.54      0.93
   -2    3   12     -1.00      0.93
   -3    3   12     -1.19      0.76
   -4    3   12     -1.00      0.52
   -5    3   12     -0.38      0.23
   -6    3   12      0.48     -0.12
   -7    3   12      1.10     -0.48
   -8    3   12      1.08     -0.71
   14    2   12      0.20     -0.07
   13    2   12     -0.09     -0.21
   12    2   12     -0.49     -0.20
   11    2   12     -0.67     -0.05
   10    2   12     -0.48     -0.03
    9    2   12     -0.08     -0.21
    8    2   12      0.28     -0.40
    7    2   12      0.28     -0.52
    6    2   12     -0.16     -0.47
    5    2   12     -0.55      0.00
    4    2   12     -0.21      0.69
    3    2   12      0.72      0.92
    2    2   12      1.40      0.50
    0    2   12      0.89      0.31
   -1    2   12      0.37      0.72
   -2    2   12     -0.16      0.82
   -3    2   12     -0.67      0.61
   -4    2   12     -0.89      0.37
   -5    2   12     -0.62      0.18
   -6    2   12      0.08     -0.06
   -7    2   12      0.81     -0.38
   -8    2   12      1.10     -0.64
   -9    2   12      0.79     -0.59
   14    1   12      0.06      0.16
   13    1   12     -0.14      0.06
   12    1   12     -0.38      0.05
   11    1   12     -0.39      0.22
   10    1   12     -0.13      0.33
    9    1   12      0.27      0.23
    8    1   12      0.64      0.04
    7    1   12      0.74     -0.25
    6    1   12      0.33     -0.54
    5    1   12     -0.25     -0.42
    4    1   12     -0.22      0.19
    3    1   12      0.54      0.50
    2    1   12      1.23      0.02
    0    1   12      1.10     -0.40
   -1    1   12      1.00      0.29
   -2    1   12      0.80      0.65
   -3    1   12      0.26      0.45
   -4    1   12     -0.28      0.17
   -5    1   12     -0.38      0.11
   -6    1   12      0.06      0.11
   -7    1   12      0.74     -0.09
   -8    1   12      1.17     -0.43
   -9    1   12      1.05     -0.55
   14    0   12      0.15      0.28
   13    0   12      0.14      0.11
   12    0   12      0.05     -0.04
   11    0   12      0.15      0.04
   10    0   12      0.44      0.18
    9    0   12      0.73      0.15
    8    0   12      0.97     -0.01
    6    0   12      0.83     -0.67
    5    0   12      0.18     -0.72
    4    0   12     -0.12     -0.19
    3    0   12      0.37      0.25
    2    0   12      1.09     -0.14
    1    0   12      1.35     -0.90
    0    0   12      1.35     -0.96
   -1    0   12      1.58     -0.30
   -2    0   12      1.77      0.18
   -3    0   12      1.44      0.07
   -4    0   12      0.75     -0.17
   -5    0   12      0.32     -0.04
   -6    0   12      0.44      0.27
   -7    0   12      0.87      0.28
   -9    0   12      1.10     -0.48
   13   -1   12      0.51     -0.07
   12   -1   12      0.45     -0.37
   11   -1   12      0.43     -0.37
   10   -1   12      0.59     -0.19
    9   -1   12      0.76     -0.16
    8   -1   12      0.85     -0.30
    7   -1   12      0.93     -0.52
    6   -1   12      0.82     -0.75
    5   -1   12      0.30     -0.71
    4   -1   12     -0.17     -0.13
    3   -1   12      0.11      0.48
    2   -1   12      1.00      0.34
    1   -1   12      1.70     -0.36
    0   -1   12      1.99     -0.70
   -1   -1   12      2.31     -0.43
   -2   -1   12      2.65     -0.20
   -3   -1   12      2.51     -0.38
   -4   -1   12      1.84     -0.56
   -5   -1   12      1.16     -0.32
   -6   -1   12      0.85      0.17
   -7   -1   12      0.87      0.35
   -8   -1   12      0.93      0.00
   -9   -1   12      0.79     -0.45
   13   -2   12      0.64     -0.09
   12   -2   12      0.61     -0.32
   11   -2   12      0.46     -0.24
   10   -2   12      0.48      0.02
    9   -2   12      0.60      0.06
    8   -2   12      0.60     -0.20
    7   -2   12      0.57     -0.47
    6   -2   12      0.54     -0.61
    5   -2   12      0.30     -0.48
    4   -2   12     -0.08      0.00
    3   -2   12      0.04      0.58
    2   -2   12      0.93      0.72
    1   -2   12      2.04      0.44
    0   -2   12      2.74      0.24
   -1   -2   12      3.07      0.20
   -2   -2   12      3.23     -0.04
   -3   -2   12      3.09     -0.52
   -4   -2   12      2.50     -0.74
   -5   -2   12      1.70     -0.47
   -6   -2   12      1.01     -0.02
   -7   -2   12      0.56      0.15
   -8   -2   12      0.35     -0.14
   -9   -2   12      0.23     -0.53
   12   -3   12      0.58     -0.18
   11   -3   12      0.42     -0.03
   10   -3   12      0.36      0.28
    9   -3   12      0.47      0.32
    8   -3   12      0.49     -0.01
    7   -3   12      0.36     -0.35
    6   -3   12      0.32     -0.46
    5   -3   12      0.38     -0.42
    4   -3   12      0.32     -0.30
    3   -3   12      0.33     -0.09
    2   -3   12      0.88      0.14
    1   -3   12      1.95      0.44
    0   -3   12      2.94      0.83
   -1   -3   12      3.40      0.90
   -2   -3   12      3.33      0.33
   -3   -3   12      2.98     -0.48
   -4   -3   12      2.46     -0.74
   -5   -3   12      1.79     -0.37
   -6   -3   12      0.99      0.02
   -7   -3   12      0.23      0.02
   -8   -3   12     -0.21     -0.30
   -9   -3   12     -0.25     -0.60
   12   -4   12      0.22     -0.18
   11   -4   12      0.06     -0.07
   10   -4   12     -0.07      0.23
    9   -4   12      0.01      0.31
    8   -4   12      0.12      0.03
    7   -4   12      0.05     -0.27
    6   -4   12      0.02     -0.36
    5   -4   12      0.26     -0.43
    4   -4   12      0.61     -0.66
    3   -4   12      0.77     -0.85
    2   -4   12      0.92     -0.68
    1   -4   12      1.48     -0.03
    0   -4   12      2.35      0.84
   -1   -4   12      2.93      1.18
   -2   -4   12      2.86      0.55
   -3   -4   12      2.40     -0.42
   -4   -4   12      1.99     -0.70
   -5   -4   12      1.62     -0.22
   -6   -4   12      1.01      0.18
   -7   -4   12      0.15      0.03
   -8   -4   12     -0.48     -0.37
   -9   -4   12     -0.54     -0.59
   11   -5   12     -0.27      0.06
   10   -5   12     -0.37      0.30
    9   -5   12     -0.34      0.38
    8   -5   12     -0.20      0.16
    7   -5   12     -0.13     -0.11
    6   -5   12     -0.14     -0.20
    5   -5   12      0.11     -0.32
    4   -5   12      0.73     -0.64
    3   -5   12      1.27     -0.92
    2   -5   12      1.34     -0.79
    1   -5   12      1.24     -0.14
    0   -5   12      1.43      0.70
   -1   -5   12      1.84      1.08
   -2   -5   12      1.98      0.58
   -3   -5   12      1.79     -0.32
   -4   -5   12      1.60     -0.66
   -5   -5   12      1.49     -0.25
   -6   -5   12      1.09      0.16
   -7   -5   12      0.25      0.04
   -8   -5   12     -0.53     -0.31
   -9   -5   12     -0.69     -0.44
   11   -6   12     -0.16      0.14
   10   -6   12     -0.10      0.22
    9   -6   12     -0.11      0.25
    8   -6   12     -0.10      0.14
    7   -6   12     -0.04     -0.01
    6   -6   12     -0.01     -0.08
    5   -6   12      0.15     -0.21
    4   -6   12      0.81     -0.49
    3   -6   12      1.68     -0.67
    2   -6   12      1.98     -0.47
    1   -6   12      1.46      0.01
    0   -6   12      0.80      0.47
   -1   -6   12      0.67      0.59
   -2   -6   12      0.96      0.23
   -3   -6   12      1.26     -0.36
   -4   -6   12      1.42     -0.65
   -5   -6   12      1.44     -0.42
   -6   -6   12      1.11     -0.06
   -7   -6   12      0.38      0.01
   -8   -6   12     -0.36     -0.12
   -9   -6   12     -0.58     -0.16
   10   -7   12      0.19     -0.17
    9   -7   12      0.18     -0.20
    8   -7   12      0.04     -0.13
    7   -7   12      0.02     -0.01
    6   -7   12      0.12      0.02
    5   -7   12      0.30     -0.15
    4   -7   12      0.81     -0.46
    3   -7   12      1.67     -0.55
    2   -7   12      2.17     -0.23
    1   -7   12      1.68      0.18
    0   -7   12      0.62      0.25
   -1   -7   12     -0.01     -0.04
   -2   -7   12      0.16     -0.41
   -3   -7   12      0.72     -0.62
   -4   -7   12      1.16     -0.63
   -5   -7   12      1.27     -0.44
   -6   -7   12      0.99     -0.18
   -7   -7   12      0.45     -0.01
   -8   -7   12     -0.05      0.04
   -9   -7   12     -0.24      0.05
    9   -8   12      0.32     -0.43
    8   -8   12      0.17     -0.32
    7   -8   12      0.03     -0.03
    6   -8   12      0.09      0.12
    5   -8   12      0.26     -0.08
    4   -8   12      0.59     -0.42
    3   -8   12      1.17     -0.45
    2   -8   12      1.66      0.01
    1   -8   12      1.49      0.51
    0   -8   12      0.72      0.44
   -1   -8   12      0.04     -0.20
   -2   -8   12     -0.06     -0.77
   -3   -8   12      0.28     -0.81
   -4   -8   12      0.72     -0.47
   -5   -8   12      0.96     -0.15
   -6   -8   12      0.83      0.01
   -7   -8   12      0.47      0.07
   -8   -8   12      0.16      0.09
    8   -9   12      0.39     -0.41
    7   -9   12      0.08     -0.15
    6   -9   12     -0.14      0.09
    5   -9   12     -0.12      0.02
    4   -9   12      0.11     -0.22
    3   -9   12      0.52     -0.19
    2   -9   12      0.91      0.29
    1   -9   12      1.01      0.82
    0   -9   12      0.82      0.81
   -1   -9   12      0.55      0.12
   -2   -9   12      0.29     -0.66
   -3   -9   12      0.11     -0.84
   -4   -9   12      0.16     -0.43
   -5   -9   12      0.45      0.05
   -6   -9   12      0.61      0.23
   -7   -9   12      0.43      0.20
   -8   -9   12      0.16      0.12
    7  -10   12      0.01     -0.36
    6  -10   12     -0.47     -0.05
    5  -10   12     -0.66      0.06
    4  -10   12     -0.43     -0.01
    3  -10   12      0.02      0.02
    2  -10   12      0.39      0.32
    1  -10   12      0.58      0.70
    0  -10   12      0.75      0.79
   -1  -10   12      0.94      0.34
   -2  -10   12      0.78     -0.41
   -3  -10   12      0.11     -0.88
   -4  -10   12     -0.45     -0.73
   -5  -10   12     -0.34     -0.23
   -6  -10   12      0.13      0.15
   -7  -10   12      0.27      0.27
    6  -11   12     -0.54     -0.18
    5  -11   12     -0.88     -0.04
    4  -11   12     -0.78     -0.02
    3  -11   12     -0.35      0.03
    2  -11   12      0.03      0.20
    1  -11   12      0.21      0.39
    0  -11   12      0.46      0.50
   -1  -11   12      0.88      0.35
   -2  -11   12      0.94     -0.17
   -3  -11   12      0.17     -0.79
   -4  -11   12     -0.84     -1.02
   -5  -11   12     -1.03     -0.71
   -6  -11   12     -0.40     -0.17
    4  -12   12     -0.71     -0.08
    3  -12   12     -0.53      0.10
    2  -12   12     -0.23      0.32
    1  -12   12     -0.05      0.43
    0  -12   12      0.12      0.45
   -1  -12   12      0.49      0.39
   -2  -12   12      0.69      0.11
   -3  -12   12      0.18     -0.44
   -4  -12   12     -0.77     -0.91
   -5  -12   12     -1.15     -0.91
    1  -13   12     -0.12      0.59
    0  -13   12     -0.03      0.50
   -1  -13   12      0.12      0.39
   -2  -13   12      0.27      0.27
   -3  -13   12      0.10     -0.04
    8   16   11      0.16      0.12
    7   16   11      0.48      0.34
    6   16   11      0.62      0.54
    5   16   11      0.62      0.48
    4   16   11      0.56      0.08
   10   15   11     -0.22      0.05
    9   15   11     -0.25      0.01
    8   15   11      0.15      0.14
    7   15   11      0.62      0.43
    6   15   11      0.68      0.59
    5   15   11      0.42      0.43
    4   15   11      0.24     -0.02
    3   15   11      0.13     -0.52
    2   15   11     -0.09     -0.75
    1   15   11     -0.33     -0.57
   12   14   11      0.06     -0.30
   11   14   11     -0.01     -0.23
   10   14   11     -0.29     -0.25
    9   14   11     -0.44     -0.33
    8   14   11     -0.11     -0.12
    7   14   11      0.38      0.39
    6   14   11      0.43      0.71
    5   14   11      0.03      0.56
    4   14   11     -0.27      0.13
    3   14   11     -0.27     -0.25
    2   14   11     -0.28     -0.46
    1   14   11     -0.46     -0.46
    0   14   11     -0.53     -0.30
   -1   14   11     -0.39     -0.13
   12   13   11     -0.01     -0.56
   11   13   11     -0.06     -0.60
   10   13   11     -0.31     -0.59
    9   13   11     -0.59     -0.68
    8   13   11     -0.52     -0.48
    7   13   11     -0.16      0.18
    6   13   11      0.03      0.75
    5   13   11     -0.18      0.70
    4   13   11     -0.37      0.28
    3   13   11     -0.31      0.05
    2   13   11     -0.27      0.02
    1   13   11     -0.44     -0.07
    0   13   11     -0.56     -0.24
   -1   13   11     -0.42     -0.34
   -2   13   11     -0.22     -0.32
   13   12   11      0.15     -0.15
   12   12   11      0.13     -0.51
   11   12   11      0.05     -0.59
   10   12   11     -0.10     -0.51
    9   12   11     -0.41     -0.58
    8   12   11     -0.72     -0.54
    7   12   11     -0.77      0.04
    6   12   11     -0.62      0.74
    5   12   11     -0.46      0.83
    4   12   11     -0.28      0.40
    3   12   11     -0.07      0.17
    2   12   11     -0.09      0.32
    1   12   11     -0.38      0.37
    0   12   11     -0.53      0.09
   -1   12   11     -0.29     -0.24
   -2   12   11      0.03     -0.34
   -3   12   11      0.11     -0.23
   14   11   11      0.19      0.17
   13   11   11      0.32      0.16
   12   11   11      0.24     -0.02
   11   11   11      0.10     -0.06
   10   11   11      0.03     -0.01
    9   11   11     -0.21     -0.17
    8   11   11     -0.76     -0.36
    7   11   11     -1.28      0.00
    6   11   11     -1.38      0.76
    5   11   11     -0.97      1.07
    4   11   11     -0.29      0.68
    3   11   11      0.24      0.29
    2   11   11      0.20      0.39
    1   11   11     -0.31      0.61
    0   11   11     -0.61      0.48
   -1   11   11     -0.27      0.12
   -2   11   11      0.29     -0.10
   -3   11   11      0.44     -0.07
   -4   11   11      0.23      0.10
   14   10   11      0.12      0.46
   13   10   11      0.22      0.67
   12   10   11      0.07      0.70
   11   10   11     -0.24      0.64
   10   10   11     -0.43      0.48
    9   10   11     -0.61      0.11
    8   10   11     -1.08     -0.27
    7   10   11     -1.68     -0.09
    6   10   11     -1.86      0.66
    5   10   11     -1.31      1.20
    4   10   11     -0.30      0.98
    3   10   11      0.54      0.44
    2   10   11      0.61      0.28
    1   10   11     -0.08      0.51
    0   10   11     -0.69      0.64
   -1   10   11     -0.50      0.45
   -3   10   11      0.50      0.02
   -4   10   11      0.26      0.09
   -5   10   11     -0.05      0.24
   14    9   11     -0.04      0.68
   13    9   11     -0.01      0.88
   12    9   11     -0.24      0.97
   11    9   11     -0.76      0.92
   10    9   11     -1.24      0.65
    9    9   11     -1.45      0.18
    8    9   11     -1.61     -0.19
    7    9   11     -1.79     -0.05
    6    9   11     -1.74      0.61
    5    9   11     -1.19      1.18
    4    9   11     -0.25      1.14
    3    9   11      0.62      0.62
    2    9   11      0.84      0.22
    1    9   11      0.24      0.25
    0    9   11     -0.56      0.51
   -1    9   11     -0.73      0.60
   -2    9   11     -0.24      0.37
   -3    9   11      0.18      0.02
   -4    9   11      0.06     -0.12
   -5    9   11     -0.23      0.02
   -6    9   11     -0.28      0.20
   15    8   11     -0.08      0.44
   14    8   11     -0.20      0.63
   13    8   11     -0.28      0.67
   12    8   11     -0.49      0.67
   11    8   11     -1.01      0.68
   10    8   11     -1.55      0.51
    9    8   11     -1.79      0.13
    8    8   11     -1.67     -0.13
    7    8   11     -1.38      0.06
    6    8   11     -0.99      0.57
    5    8   11     -0.52      0.97
    4    8   11      0.00      0.98
    3    8   11      0.49      0.65
    2    8   11      0.71      0.20
    1    8   11      0.39     -0.06
    0    8   11     -0.32      0.07
   -1    8   11     -0.80      0.40
   -2    8   11     -0.72      0.47
   -3    8   11     -0.40      0.09
   -4    8   11     -0.32     -0.32
   -5    8   11     -0.40     -0.33
   -6    8   11     -0.36     -0.07
   -7    8   11     -0.18      0.06
   15    7   11     -0.06      0.38
   14    7   11     -0.21      0.62
   13    7   11     -0.32      0.55
   12    7   11     -0.44      0.38
   11    7   11     -0.70      0.33
   10    7   11     -1.07      0.22
    9    7   11     -1.34     -0.11
    8    7   11     -1.31     -0.34
    7    7   11     -0.93     -0.13
    6    7   11     -0.38      0.28
    5    7   11      0.06      0.47
    4    7   11      0.25      0.42
    3    7   11      0.34      0.31
    2    7   11      0.42      0.07
    1    7   11      0.31     -0.35
    0    7   11     -0.16     -0.51
   -1    7   11     -0.76     -0.11
   -3    7   11     -1.00      0.28
   -4    7   11     -0.77     -0.30
   -6    7   11     -0.33     -0.42
   -7    7   11     -0.11     -0.13
   15    6   11      0.06      0.35
   14    6   11      0.09      0.71
   13    6   11      0.09      0.65
   12    6   11      0.05      0.33
   11    6   11     -0.07      0.14
   10    6   11     -0.32      0.03
    9    6   11     -0.70     -0.23
    8    6   11     -1.03     -0.43
    7    6   11     -0.99     -0.24
    6    6   11     -0.54      0.15
    5    6   11     -0.05      0.24
    4    6   11      0.20      0.09
    3    6   11      0.33      0.05
    2    6   11      0.50      0.02
    1    6   11      0.57     -0.37
    0    6   11      0.30     -0.84
   -1    6   11     -0.27     -0.67
   -2    6   11     -0.83      0.05
   -3    6   11     -1.06      0.35
   -4    6   11     -0.93     -0.16
   -5    6   11     -0.61     -0.76
   -6    6   11     -0.28     -0.71
   -7    6   11     -0.03     -0.26
   -8    6   11      0.05     -0.01
   15    5   11      0.19      0.33
   14    5   11      0.47      0.66
   13    5   11      0.66      0.61
   12    5   11      0.58      0.29
   11    5   11      0.33      0.13
   10    5   11      0.11      0.17
    9    5   11     -0.21      0.08
    8    5   11     -0.69     -0.10
    7    5   11     -0.97     -0.02
    6    5   11     -0.79      0.26
    5    5   11     -0.37      0.32
    4    5   11      0.03      0.10
    3    5   11      0.50     -0.02
    2    5   11      1.06      0.03
    1    5   11      1.42     -0.23
    0    5   11      1.30     -0.83
   -1    5   11      0.78     -1.06
   -2    5   11      0.15     -0.55
   -3    5   11     -0.36     -0.01
   -4    5   11     -0.57     -0.20
   -5    5   11     -0.48     -0.79
   -6    5   11     -0.23     -0.85
   -7    5   11      0.01     -0.27
   -8    5   11      0.13      0.24
   15    4   11      0.19      0.25
   14    4   11      0.56      0.42
   13    4   11      0.87      0.34
   12    4   11      0.73      0.19
   11    4   11      0.33      0.30
   10    4   11      0.12      0.56
    9    4   11      0.08      0.55
    8    4   11     -0.12      0.27
    7    4   11     -0.41      0.08
    6    4   11     -0.50      0.12
    5    4   11     -0.38      0.11
    4    4   11     -0.10     -0.06
    3    4   11      0.56     -0.18
    2    4   11      1.56     -0.08
    1    4   11      2.30     -0.09
    0    4   11      2.31     -0.50
   -1    4   11      1.79     -0.98
   -3    4   11      0.51     -0.49
   -4    4   11     -0.03     -0.34
   -5    4   11     -0.32     -0.65
   -6    4   11     -0.29     -0.73
   -7    4   11     -0.07     -0.21
   -8    4   11      0.14      0.40
   -9    4   11      0.20      0.51
   15    3   11      0.15      0.21
   14    3   11      0.48      0.22
   13    3   11      0.86      0.03
   12    3   11      0.82     -0.06
   11    3   11      0.40      0.25
   10    3   11      0.14      0.65
    9    3   11      0.25      0.67
    8    3   11      0.39      0.36
    7    3   11      0.33      0.12
    6    3   11      0.17      0.07
    5    3   11      0.00      0.01
    4    3   11      0.02     -0.10
    3    3   11      0.66     -0.12
    2    3   11      1.96      0.04
    1    3   11      3.07      0.22
    0    3   11      3.20      0.08
   -1    3   11      2.57     -0.41
   -2    3   11      1.82     -0.80
   -3    3   11      1.13     -0.68
   -4    3   11      0.38     -0.35
   -5    3   11     -0.28     -0.27
   -6    3   11     -0.56     -0.31
   -7    3   11     -0.44     -0.04
   -8    3   11     -0.15      0.40
   -9    3   11      0.04      0.48
   14    2   11      0.58      0.11
   13    2   11      0.98     -0.26
   12    2   11      1.08     -0.55
   11    2   11      0.71     -0.32
   10    2   11      0.29      0.14
    9    2   11      0.31      0.26
    8    2   11      0.66      0.17
    7    2   11      0.96      0.29
    6    2   11      1.00      0.51
    5    2   11      0.72      0.49
    4    2   11      0.48      0.31
    3    2   11      0.99      0.27
    2    2   11      2.40      0.40
    1    2   11      3.73      0.51
    0    2   11      3.91      0.40
   -1    2   11      3.12     -0.07
   -2    2   11      2.20     -0.66
   -3    2   11      1.45     -0.82
   -4    2   11      0.60     -0.44
   -5    2   11     -0.35     -0.04
   -6    2   11     -0.99      0.07
   -7    2   11     -1.09      0.18
   -8    2   11     -0.80      0.41
   -9    2   11     -0.46      0.45
   14    1   11      0.66      0.11
   13    1   11      1.00     -0.22
   12    1   11      1.14     -0.65
   11    1   11      0.83     -0.60
   10    1   11      0.37     -0.20
    9    1   11      0.29     -0.03
    8    1   11      0.79      0.03
    7    1   11      1.48      0.44
    6    1   11      1.80      1.01
    5    1   11      1.48      1.07
    4    1   11      0.95      0.70
    3    1   11      1.16      0.48
    2    1   11      2.38      0.55
    1    1   11      3.62      0.56
    0    1   11      3.69      0.32
   -1    1   11      2.74     -0.18
   -2    1   11      1.79     -0.76
   -3    1   11      1.20     -0.98
   -4    1   11      0.51     -0.61
   -5    1   11     -0.48     -0.09
   -6    1   11     -1.36      0.15
   -7    1   11     -1.68      0.24
   -8    1   11     -1.41      0.44
   -9    1   11     -0.93      0.52
  -10    1   11     -0.56      0.29
   14    0   11      0.52      0.30
   13    0   11      0.86      0.34
   12    0   11      1.09      0.06
   11    0   11      0.99     -0.03
   10    0   11      0.70      0.18
    9    0   11      0.69      0.22
    8    0   11      1.25      0.12
    7    0   11      2.10      0.46
    6    0   11      2.58      1.10
    5    0   11      2.24      1.21
    4    0   11      1.42      0.64
    3    0   11      1.13      0.18
    2    0   11      1.83      0.22
    1    0   11      2.65      0.33
    0    0   11      2.46      0.10
   -1    0   11      1.39     -0.40
   -3    0   11      0.32     -1.05
   -4    0   11      0.13     -0.67
   -5    0   11     -0.52     -0.16
   -6    0   11     -1.35      0.07
   -7    0   11     -1.74      0.18
   -8    0   11     -1.52      0.46
   -9    0   11     -0.98      0.64
  -10    0   11     -0.52      0.42
   14   -1   11      0.35      0.45
   13   -1   11      0.83      0.82
   12   -1   11      1.25      0.74
   11   -1   11      1.41      0.49
   10   -1   11      1.35      0.40
    9   -1   11      1.43      0.27
    8   -1   11      1.93      0.04
    7   -1   11      2.67      0.19
    6   -1   11      3.12      0.75
    5   -1   11      2.82      0.87
    4   -1   11      1.89      0.23
    3   -1   11      1.12     -0.42
    2   -1   11      1.09     -0.45
    1   -1   11      1.34     -0.20
    0   -1   11      0.93     -0.27
   -1   -1   11     -0.11     -0.72
   -2   -1   11     -0.83     -1.18
   -3   -1   11     -0.72     -1.23
   -4   -1   11     -0.34     -0.75
   -5   -1   11     -0.41     -0.20
   -6   -1   11     -0.87      0.01
   -7   -1   11     -1.19      0.12
   -8   -1   11     -1.04      0.51
   -9   -1   11     -0.60      0.83
  -10   -1   11     -0.24      0.60
   13   -2   11      0.76      0.89
   12   -2   11      1.31      0.95
   11   -2   11      1.60      0.60
   10   -2   11      1.64      0.27
    9   -2   11      1.77      0.06
    8   -2   11      2.19     -0.13
    7   -2   11      2.73     -0.06
    6   -2   11      3.06      0.34
    5   -2   11      2.87      0.51
    4   -2   11      2.12     -0.01
    3   -2   11      1.14     -0.66
    2   -2   11      0.42     -0.80
    1   -2   11      0.01     -0.60
    0   -2   11     -0.52     -0.61
   -1   -2   11     -1.29     -0.94
   -2   -2   11     -1.76     -1.30
   -3   -2   11     -1.47     -1.30
   -4   -2   11     -0.74     -0.80
   -5   -2   11     -0.29     -0.21
   -6   -2   11     -0.33      0.00
   -7   -2   11     -0.50      0.08
   -8   -2   11     -0.43      0.49
   -9   -2   11     -0.16      0.94
  -10   -2   11      0.01      0.79
   13   -3   11      0.52      0.82
   12   -3   11      1.09      1.07
   11   -3   11      1.48      0.81
   10   -3   11      1.60      0.43
    9   -3   11      1.73      0.20
    8   -3   11      2.07      0.06
    7   -3   11      2.45      0.03
    6   -3   11      2.60      0.22
    5   -3   11      2.50      0.35
    4   -3   11      2.15      0.05
    3   -3   11      1.38     -0.46
    2   -3   11      0.23     -0.73
    1   -3   11     -0.91     -0.77
    0   -3   11     -1.72     -0.83
   -1   -3   11     -2.14     -0.94
   -2   -3   11     -2.17     -0.96
   -3   -3   11     -1.72     -0.81
   -4   -3   11     -0.97     -0.44
   -5   -3   11     -0.33      0.01
   -6   -3   11     -0.10      0.18
   -7   -3   11     -0.13      0.17
   -8   -3   11     -0.10      0.43
   -9   -3   11      0.03      0.85
  -10   -3   11      0.08      0.79
   12   -4   11      0.74      0.94
   11   -4   11      1.22      0.82
   10   -4   11      1.41      0.50
    9   -4   11      1.44      0.32
    8   -4   11      1.59      0.26
    7   -4   11      1.83      0.19
    6   -4   11      1.91      0.18
    5   -4   11      1.91      0.19
    4   -4   11      1.96     -0.02
    3   -4   11      1.68     -0.42
    2   -4   11      0.57     -0.77
    1   -4   11     -1.10     -1.03
    0   -4   11     -2.36     -1.20
   -1   -4   11     -2.67     -1.09
   -3   -4   11     -1.67     -0.15
   -4   -4   11     -1.03      0.20
   -5   -4   11     -0.49      0.44
   -6   -4   11     -0.15      0.52
   -7   -4   11     -0.01      0.45
   -8   -4   11      0.06      0.46
   -9   -4   11      0.10      0.63
  -10   -4   11      0.05      0.56
   12   -5   11      0.26      0.55
   11   -5   11      0.64      0.51
   10   -5   11      0.83      0.32
    9   -5   11      0.68      0.29
    8   -5   11      0.54      0.38
    7   -5   11      0.68      0.32
    6   -5   11      0.90      0.14
    5   -5   11      1.07     -0.02
    4   -5   11      1.34     -0.23
    3   -5   11      1.49     -0.56
    2   -5   11      0.85     -0.87
    1   -5   11     -0.70     -1.15
    0   -5   11     -2.21     -1.39
   -1   -5   11     -2.73     -1.33
   -2   -5   11     -2.34     -0.71
   -3   -5   11     -1.68      0.13
   -4   -5   11     -1.11      0.66
   -5   -5   11     -0.63      0.81
   -6   -5   11     -0.21      0.77
   -7   -5   11      0.08      0.62
   -8   -5   11      0.22      0.44
   -9   -5   11      0.19      0.32
  -10   -5   11      0.02      0.19
   11   -6   11      0.12      0.40
   10   -6   11      0.30      0.39
    9   -6   11      0.06      0.50
    8   -6   11     -0.39      0.65
    7   -6   11     -0.46      0.50
    6   -6   11     -0.10      0.09
    5   -6   11      0.27     -0.25
    4   -6   11      0.54     -0.43
    3   -6   11      0.80     -0.58
    2   -6   11      0.73     -0.71
    1   -6   11     -0.12     -0.82
    0   -6   11     -1.40     -1.04
   -1   -6   11     -2.27     -1.22
   -2   -6   11     -2.37     -0.90
   -3   -6   11     -1.96     -0.04
   -4   -6   11     -1.36      0.74
   -5   -6   11     -0.73      0.98
   -6   -6   11     -0.21      0.81
   -7   -6   11      0.12      0.54
   -8   -6   11      0.28      0.27
   -9   -6   11      0.24      0.06
  -10   -6   11      0.01     -0.06
   10   -7   11      0.28      0.47
    9   -7   11      0.09      0.61
    8   -7   11     -0.61      0.72
    7   -7   11     -1.08      0.50
    6   -7   11     -0.85     -0.04
    5   -7   11     -0.36     -0.46
    4   -7   11     -0.10     -0.52
    3   -7   11      0.06     -0.48
    2   -7   11      0.25     -0.49
    1   -7   11      0.12     -0.48
    0   -7   11     -0.62     -0.58
   -1   -7   11     -1.65     -0.90
   -2   -7   11     -2.38     -1.05
   -3   -7   11     -2.43     -0.56
   -4   -7   11     -1.82      0.28
   -5   -7   11     -0.93      0.77
   -6   -7   11     -0.27      0.69
   -7   -7   11      0.03      0.36
   -8   -7   11      0.18      0.11
   -9   -7   11      0.26     -0.04
  -10   -7   11      0.14     -0.08
   10   -8   11      0.28      0.25
    9   -8   11      0.14      0.34
    8   -8   11     -0.60      0.40
    7   -8   11     -1.32      0.22
    6   -8   11     -1.33     -0.25
    5   -8   11     -0.84     -0.60
    4   -8   11     -0.52     -0.54
    3   -8   11     -0.45     -0.37
    2   -8   11     -0.29     -0.39
    1   -8   11     -0.13     -0.44
    0   -8   11     -0.41     -0.41
   -1   -8   11     -1.27     -0.61
   -2   -8   11     -2.26     -1.05
   -3   -8   11     -2.71     -1.13
   -4   -8   11     -2.28     -0.55
   -6   -8   11     -0.50      0.46
   -7   -8   11     -0.16      0.30
   -8   -8   11      0.03      0.07
   -9   -8   11      0.27     -0.06
    9   -9   11     -0.03      0.19
    8   -9   11     -0.61      0.15
    7   -9   11     -1.27     -0.09
    6   -9   11     -1.47     -0.52
    5   -9   11     -1.22     -0.78
    4   -9   11     -0.98     -0.58
    3   -9   11     -0.91     -0.23
    2   -9   11     -0.78     -0.19
    1   -9   11     -0.59     -0.31
    0   -9   11     -0.65     -0.24
   -1   -9   11     -1.14     -0.20
   -2   -9   11     -1.88     -0.60
   -3   -9   11     -2.37     -1.11
   -4   -9   11     -2.22     -1.04
   -5   -9   11     -1.46     -0.37
   -6   -9   11     -0.66      0.25
   -7   -9   11     -0.25      0.37
   -8   -9   11     -0.05      0.17
   -9   -9   11      0.21     -0.04
    8  -10   11     -0.46      0.16
    7  -10   11     -0.93     -0.22
    6  -10   11     -1.26     -0.66
    5  -10   11     -1.43     -0.82
    4  -10   11     -1.56     -0.49
    3  -10   11     -1.54      0.04
    2  -10   11     -1.27      0.23
    1  -10   11     -0.98      0.08
    0  -10   11     -0.95      0.08
   -1  -10   11     -1.14      0.29
   -2  -10   11     -1.34      0.20
   -3  -10   11     -1.46     -0.36
   -4  -10   11     -1.42     -0.78
   -5  -10   11     -1.08     -0.54
   -6  -10   11     -0.57      0.05
   -7  -10   11     -0.20      0.40
   -8  -10   11     -0.04      0.32
    6  -11   11     -0.90     -0.51
    4  -11   11     -1.86     -0.24
    3  -11   11     -2.07      0.24
    2  -11   11     -1.73      0.43
    1  -11   11     -1.28      0.26
    0  -11   11     -1.18      0.17
   -1  -11   11     -1.23      0.45
   -2  -11   11     -0.98      0.71
   -3  -11   11     -0.54      0.47
   -4  -11   11     -0.36     -0.09
   -5  -11   11     -0.43     -0.35
   -6  -11   11     -0.40     -0.09
   -7  -11   11     -0.21      0.28
   -8  -11   11     -0.04      0.38
    5  -12   11     -0.88     -0.26
    4  -12   11     -1.54     -0.07
    3  -12   11     -2.07      0.16
    2  -12   11     -2.00      0.22
    1  -12   11     -1.58      0.10
    0  -12   11     -1.39      0.05
   -1  -12   11     -1.33      0.32
   -2  -12   11     -0.85      0.72
   -3  -12   11     -0.03      0.82
   -4  -12   11      0.40      0.45
   -5  -12   11      0.16      0.01
   -6  -12   11     -0.19     -0.07
   -7  -12   11     -0.21      0.14
    3  -13   11     -1.39      0.07
    2  -13   11     -1.67      0.06
    1  -13   11     -1.54      0.06
    0  -13   11     -1.38      0.14
   -1  -13   11     -1.27      0.32
   -3  -13   11      0.01      0.67
   -4  -13   11      0.55      0.54
   -5  -13   11      0.42      0.25
   -1  -14   11     -0.92      0.44
   -2  -14   11     -0.65      0.45
    9   16   10     -0.62      0.02
    8   16   10     -0.87      0.39
    7   16   10     -0.81      0.35
    6   16   10     -0.67      0.05
    5   16   10     -0.57     -0.12
    4   16   10     -0.30     -0.03
    3   16   10      0.18      0.08
   11   15   10      0.08     -0.72
   10   15   10     -0.32     -0.57
    9   15   10     -0.99     -0.10
    8   15   10     -1.42      0.29
    7   15   10     -1.34      0.25
    6   15   10     -0.99     -0.16
    5   15   10     -0.72     -0.46
    4   15   10     -0.46     -0.32
    3   15   10     -0.04     -0.01
    2   15   10      0.24      0.01
    1   15   10     -0.08     -0.26
   12   14   10     -0.02     -0.39
   11   14   10      0.03     -0.57
   10   14   10     -0.36     -0.34
    9   14   10     -1.13      0.09
    8   14   10     -1.81      0.36
    7   14   10     -1.90      0.23
    6   14   10     -1.47     -0.27
    5   14   10     -1.00     -0.72
    4   14   10     -0.73     -0.70
    3   14   10     -0.46     -0.28
    1   14   10     -0.32     -0.22
    0   14   10     -0.87     -0.46
   -1   14   10     -1.20     -0.37
   13   13   10     -0.34      0.17
   12   13   10     -0.20     -0.13
   11   13   10     -0.12     -0.35
   10   13   10     -0.41     -0.15
    9   13   10     -1.14      0.25
    8   13   10     -2.00      0.43
    7   13   10     -2.42      0.27
    6   13   10     -2.13     -0.12
    5   13   10     -1.49     -0.55
    4   13   10     -1.03     -0.69
    3   13   10     -0.80     -0.37
    2   13   10     -0.62      0.01
    1   13   10     -0.63      0.01
    0   13   10     -0.99     -0.27
   -1   13   10     -1.36     -0.37
   -2   13   10     -1.23     -0.21
   -3   13   10     -0.69     -0.08
   13   12   10     -0.66      0.46
   12   12   10     -0.54      0.14
   11   12   10     -0.44     -0.25
   10   12   10     -0.58     -0.17
    9   12   10     -1.09      0.21
    8   12   10     -1.89      0.38
    7   12   10     -2.54      0.21
    6   12   10     -2.54     -0.08
    5   12   10     -1.92     -0.36
    4   12   10     -1.24     -0.55
    3   12   10     -0.83     -0.43
    2   12   10     -0.64     -0.05
    1   12   10     -0.65      0.19
    0   12   10     -0.97      0.09
   -1   12   10     -1.43     -0.12
   -2   12   10     -1.51     -0.19
   -3   12   10     -1.05     -0.20
   -4   12   10     -0.43     -0.22
   14   11   10     -0.68      0.32
   13   11   10     -0.75      0.42
   12   11   10     -0.68      0.12
   11   11   10     -0.59     -0.30
   10   11   10     -0.54     -0.25
    9   11   10     -0.69      0.21
    8   11   10     -1.25      0.43
    7   11   10     -2.04      0.15
    6   11   10     -2.49     -0.27
    5   11   10     -2.28     -0.52
    4   11   10     -1.68     -0.64
    3   11   10     -1.09     -0.62
    2   11   10     -0.66     -0.33
    1   11   10     -0.49      0.09
    0   11   10     -0.78      0.33
   -1   11   10     -1.35      0.32
   -2   11   10     -1.63      0.19
   -3   11   10     -1.25      0.03
   -4   11   10     -0.52     -0.09
   -5   11   10      0.01     -0.08
   14   10   10     -0.53      0.08
   13   10   10     -0.62      0.06
   12   10   10     -0.59     -0.11
   11   10   10     -0.44     -0.33
   10   10   10     -0.17     -0.18
    9   10   10     -0.03      0.35
    8   10   10     -0.41      0.63
    7   10   10     -1.29      0.22
    6   10   10     -2.16     -0.47
    5   10   10     -2.53     -0.85
    4   10   10     -2.36     -0.87
    3   10   10     -1.84     -0.79
    2   10   10     -1.12     -0.64
    1   10   10     -0.54     -0.30
    0   10   10     -0.55      0.17
   -1   10   10     -1.15      0.57
   -2   10   10     -1.58      0.69
   -3   10   10     -1.25      0.51
   -4   10   10     -0.41      0.22
   -5   10   10      0.22      0.08
   -6   10   10      0.35      0.15
   15    9   10     -0.08      0.15
   14    9   10     -0.28      0.06
   13    9   10     -0.38     -0.07
   12    9   10     -0.39     -0.14
   11    9   10     -0.21     -0.15
   10    9   10      0.13      0.04
    9    9   10      0.28      0.48
    8    9   10     -0.19      0.76
    7    9   10     -1.17      0.35
    6    9   10     -2.11     -0.51
    5    9   10     -2.65     -1.10
    4    9   10     -2.79     -1.09
    3    9   10     -2.54     -0.88
    2    9   10     -1.78     -0.80
    1    9   10     -0.82     -0.72
    0    9   10     -0.37     -0.33
   -1    9   10     -0.79      0.32
   -2    9   10     -1.36      0.80
   -4    9   10     -0.34      0.34
   -5    9   10      0.33      0.01
   -6    9   10      0.40      0.02
   15    8   10      0.09      0.30
   14    8   10      0.00      0.21
   13    8   10     -0.10      0.02
   12    8   10     -0.19     -0.01
   11    8   10     -0.11      0.10
   10    8   10      0.14      0.30
    9    8   10      0.09      0.65
    8    8   10     -0.64      0.95
    7    8   10     -1.73      0.71
    6    8   10     -2.50     -0.13
    5    8   10     -2.75     -0.89
    4    8   10     -2.82     -1.01
    3    8   10     -2.74     -0.73
    2    8   10     -2.16     -0.61
    0    8   10     -0.08     -0.76
   -1    8   10     -0.06     -0.29
   -2    8   10     -0.67      0.33
   -3    8   10     -0.88      0.52
   -4    8   10     -0.33      0.14
   -5    8   10      0.27     -0.27
   -6    8   10      0.31     -0.26
   15    7   10      0.10      0.30
   14    7   10      0.08      0.22
   13    7   10     -0.03      0.05
   12    7   10     -0.20      0.10
   11    7   10     -0.17      0.36
    9    7   10      0.16      0.94
    8    7   10     -0.63      1.20
    7    7   10     -1.85      1.07
    6    7   10     -2.61      0.35
    5    7   10     -2.69     -0.44
    4    7   10     -2.58     -0.66
    3    7   10     -2.53     -0.36
    2    7   10     -2.13     -0.17
    1    7   10     -1.06     -0.43
    0    7   10      0.18     -0.86
   -1    7   10      0.72     -0.93
   -2    7   10      0.31     -0.54
   -3    7   10     -0.26     -0.15
   -4    7   10     -0.24     -0.18
   -5    7   10      0.14     -0.44
   -6    7   10      0.22     -0.43
   -7    7   10      0.00     -0.13
   -8    7   10     -0.07      0.05
   15    6   10     -0.05      0.20
   14    6   10     -0.10      0.10
   13    6   10     -0.16      0.05
   12    6   10     -0.22      0.26
   11    6   10     -0.07      0.64
   10    6   10      0.46      0.92
    9    6   10      0.81      1.07
    8    6   10      0.25      1.16
    7    6   10     -1.07      0.95
    6    6   10     -2.14      0.28
    5    6   10     -2.49     -0.38
    4    6   10     -2.45     -0.41
    3    6   10     -2.35      0.09
    2    6   10     -1.98      0.44
    1    6   10     -1.09      0.20
    0    6   10      0.09     -0.46
   -1    6   10      0.89     -1.06
   -2    6   10      0.83     -1.14
   -3    6   10      0.19     -0.73
   -4    6   10     -0.21     -0.31
   -5    6   10     -0.08     -0.22
   -6    6   10      0.09     -0.27
   -7    6   10     -0.01     -0.19
   -8    6   10     -0.11     -0.09
   15    5   10     -0.18      0.13
   14    5   10     -0.25      0.01
   13    5   10     -0.11      0.01
   12    5   10      0.14      0.27
   11    5   10      0.46      0.65
   10    5   10      1.02      0.88
    9    5   10      1.54      1.00
    8    5   10      1.28      1.08
    7    5   10      0.04      0.82
    6    5   10     -1.37      0.08
    5    5   10     -2.21     -0.50
    4    5   10     -2.46     -0.22
    3    5   10     -2.34      0.66
    2    5   10     -1.81      1.23
    1    5   10     -0.92      1.03
    0    5   10      0.06      0.30
   -1    5   10      0.79     -0.55
   -2    5   10      0.94     -1.06
   -3    5   10      0.46     -0.89
   -4    5   10     -0.14     -0.23
   -5    5   10     -0.27      0.22
   -6    5   10     -0.09      0.15
   -7    5   10     -0.07     -0.10
   -8    5   10     -0.21     -0.26
   -9    5   10     -0.24     -0.32
   15    4   10     -0.17      0.10
   14    4   10     -0.20     -0.04
   13    4   10      0.14     -0.15
   12    4   10      0.68     -0.03
   11    4   10      1.11      0.27
   10    4   10      1.49      0.58
    9    4   10      1.98      0.91
    8    4   10      2.09      1.22
    7    4   10      1.24      1.03
    6    4   10     -0.28      0.11
    5    4   10     -1.64     -0.73
    4    4   10     -2.40     -0.42
    3    4   10     -2.51      0.78
    2    4   10     -1.91      1.56
    1    4   10     -0.84      1.33
    0    4   10      0.16      0.59
   -1    4   10      0.84     -0.17
   -2    4   10      1.11     -0.78
   -3    4   10      0.88     -0.89
   -4    4   10      0.28     -0.32
   -5    4   10     -0.12      0.36
   -6    4   10     -0.10      0.45
   -7    4   10     -0.06      0.03
   -8    4   10     -0.22     -0.34
   -9    4   10     -0.36     -0.43
   15    3   10     -0.10      0.04
   14    3   10     -0.12     -0.01
   13    3   10      0.18     -0.16
   12    3   10      0.81     -0.21
   11    3   10      1.34     -0.04
   10    3   10      1.65      0.31
    9    3   10      2.11      0.80
    8    3   10      2.57      1.23
    7    3   10      2.20      1.07
    6    3   10      0.74     -0.03
    5    3   10     -1.07     -1.25
    4    3   10     -2.45     -1.21
    3    3   10     -3.07      0.10
    2    3   10     -2.76      1.13
    1    3   10     -1.68      0.92
    0    3   10     -0.41      0.15
   -1    3   10      0.56     -0.34
   -2    3   10      1.15     -0.61
   -3    3   10      1.29     -0.77
   -4    3   10      0.93     -0.47
   -5    3   10      0.44      0.17
   -6    3   10      0.23      0.44
   -7    3   10      0.17      0.08
   -8    3   10     -0.03     -0.38
   -9    3   10     -0.24     -0.53
  -10    3   10     -0.25     -0.39
   15    2   10      0.02      0.00
   14    2   10      0.04      0.12
   13    2   10      0.18      0.10
   12    2   10      0.70     -0.04
   11    2   10      1.32     -0.13
   10    2   10      1.70      0.03
    9    2   10      2.07      0.42
    8    2   10      2.54      0.81
    7    2   10      2.44      0.75
    6    2   10      1.19     -0.14
    5    2   10     -0.73     -1.35
    4    2   10     -2.40     -1.57
    3    2   10     -3.38     -0.43
    2    2   10     -3.52      0.72
    1    2   10     -2.72      0.58
    0    2   10     -1.31     -0.30
   -1    2   10      0.11     -0.71
   -2    2   10      1.16     -0.60
   -3    2   10      1.70     -0.54
   -4    2   10      1.64     -0.45
   -5    2   10      1.20     -0.05
   -6    2   10      0.79      0.29
   -7    2   10      0.51      0.13
   -8    2   10      0.19     -0.31
   -9    2   10     -0.11     -0.57
  -10    2   10     -0.17     -0.53
   14    1   10      0.47      0.05
   13    1   10      0.49      0.14
   12    1   10      0.73     -0.05
   11    1   10      1.25     -0.45
   10    1   10      1.61     -0.62
    9    1   10      1.75     -0.37
    8    1   10      1.95      0.05
    7    1   10      1.94      0.25
    6    1   10      1.14     -0.08
    5    1   10     -0.32     -0.79
    4    1   10     -1.71     -1.05
    3    1   10     -2.65     -0.28
    2    1   10     -3.06      0.71
    1    1   10     -2.71      0.60
    0    1   10     -1.52     -0.46
   -1    1   10      0.05     -1.12
   -2    1   10      1.35     -0.93
   -3    1   10      2.06     -0.61
   -4    1   10      2.13     -0.51
   -5    1   10      1.74     -0.30
   -6    1   10      1.19      0.05
   -7    1   10      0.65      0.16
   -8    1   10      0.13     -0.05
   -9    1   10     -0.26     -0.30
  -10    1   10     -0.32     -0.41
   14    0   10      0.80     -0.24
   13    0   10      0.73     -0.12
   12    0   10      0.60     -0.19
   11    0   10      0.78     -0.63
   10    0   10      0.99     -0.97
    9    0   10      0.95     -0.81
    8    0   10      0.90     -0.37
    7    0   10      0.99     -0.09
    6    0   10      0.82     -0.11
    5    0   10      0.18     -0.36
    4    0   10     -0.57     -0.49
    3    0   10     -1.19     -0.04
    2    0   10     -1.68      0.70
    1    0   10     -1.79      0.70
    0    0   10     -1.13     -0.28
   -1    0   10      0.10     -1.14
   -2    0   10      1.25     -1.08
   -3    0   10      1.86     -0.63
   -4    0   10      1.89     -0.46
   -5    0   10      1.55     -0.40
   -6    0   10      1.01     -0.17
   -7    0   10      0.37      0.09
   -8    0   10     -0.27      0.15
   -9    0   10     -0.67      0.06
  -10    0   10     -0.65     -0.07
   14   -1   10      0.67     -0.42
   13   -1   10      0.55     -0.34
   12   -1   10      0.24     -0.13
   11   -1   10      0.17     -0.24
   10   -1   10      0.26     -0.49
    9   -1   10      0.18     -0.37
    8   -1   10      0.03     -0.03
    7   -1   10      0.15      0.05
    6   -1   10      0.46     -0.17
    5   -1   10      0.64     -0.43
    4   -1   10      0.66     -0.57
    3   -1   10      0.50     -0.36
    2   -1   10      0.06      0.19
    1   -1   10     -0.43      0.46
    0   -1   10     -0.45      0.00
   -1   -1   10      0.12     -0.60
   -2   -1   10      0.79     -0.54
   -3   -1   10      1.07     -0.07
   -4   -1   10      0.96      0.11
   -5   -1   10      0.68     -0.03
   -6   -1   10      0.32     -0.08
   -7   -1   10     -0.16      0.04
   -8   -1   10     -0.72      0.15
   -9   -1   10     -1.07      0.19
  -10   -1   10     -0.93      0.12
   13   -2   10      0.16     -0.58
   12   -2   10     -0.12     -0.32
   11   -2   10     -0.22     -0.11
   10   -2   10     -0.17     -0.13
    9   -2   10     -0.26      0.05
    8   -2   10     -0.44      0.40
    7   -2   10     -0.32      0.42
    6   -2   10      0.21     -0.06
    5   -2   10      0.91     -0.63
    4   -2   10      1.59     -1.03
    3   -2   10      1.96     -1.11
    2   -2   10      1.73     -0.74
    1   -2   10      1.01     -0.25
    0   -2   10      0.41     -0.16
   -1   -2   10      0.27     -0.31
   -2   -2   10      0.33     -0.08
   -3   -2   10      0.23      0.47
   -4   -2   10     -0.03      0.70
   -5   -2   10     -0.21      0.48
   -6   -2   10     -0.30      0.22
   -7   -2   10     -0.50      0.13
   -8   -2   10     -0.88      0.11
   -9   -2   10     -1.14      0.11
  -10   -2   10     -0.98      0.10
  -11   -2   10     -0.49      0.01
   13   -3   10     -0.25     -0.81
   12   -3   10     -0.53     -0.77
   11   -3   10     -0.62     -0.46
   10   -3   10     -0.59     -0.21
    9   -3   10     -0.66      0.11
    8   -3   10     -0.74      0.59
    7   -3   10     -0.50      0.74
    6   -3   10      0.12      0.26
    5   -3   10      0.96     -0.52
    4   -3   10      1.88     -1.17
    3   -3   10      2.64     -1.44
    2   -3   10      2.76     -1.21
    1   -3   10      2.08     -0.68
    0   -3   10      1.08     -0.41
   -1   -3   10      0.32     -0.47
   -2   -3   10     -0.11     -0.23
   -3   -3   10     -0.44      0.42
   -4   -3   10     -0.66      0.83
   -5   -3   10     -0.65      0.69
   -6   -3   10     -0.50      0.38
   -7   -3   10     -0.49      0.20
   -8   -3   10     -0.70      0.09
   -9   -3   10     -0.88      0.02
  -10   -3   10     -0.74      0.02
  -11   -3   10     -0.34      0.00
   12   -4   10     -0.78     -0.84
   11   -4   10     -0.85     -0.51
   10   -4   10     -0.74     -0.08
    9   -4   10     -0.70      0.34
    8   -4   10     -0.65      0.79
    7   -4   10     -0.30      0.95
    6   -4   10      0.32      0.52
    5   -4   10      0.98     -0.22
    4   -4   10      1.67     -0.83
    3   -4   10      2.48     -1.08
    2   -4   10      2.96     -0.87
    1   -4   10      2.56     -0.40
    0   -4   10      1.40     -0.24
   -1   -4   10      0.17     -0.52
   -2   -4   10     -0.63     -0.54
   -3   -4   10     -0.96      0.11
   -4   -4   10     -0.92      0.76
   -5   -4   10     -0.62      0.77
   -6   -4   10     -0.32      0.45
   -7   -4   10     -0.25      0.27
   -8   -4   10     -0.39      0.20
   -9   -4   10     -0.49      0.09
  -10   -4   10     -0.35      0.03
  -11   -4   10     -0.07      0.00
   12   -5   10     -0.65     -0.62
   11   -5   10     -0.71     -0.39
   10   -5   10     -0.50      0.05
    9   -5   10     -0.32      0.45
    8   -5   10     -0.26      0.78
    7   -5   10     -0.05      0.86
    6   -5   10      0.40      0.52
    5   -5   10      0.80     -0.02
    4   -5   10      1.13     -0.40
    3   -5   10      1.67     -0.53
    2   -5   10      2.29     -0.39
    1   -5   10      2.31     -0.09
    0   -5   10      1.39     -0.07
   -1   -5   10      0.04     -0.52
   -2   -5   10     -0.95     -0.81
   -3   -5   10     -1.25     -0.28
   -4   -5   10     -0.95      0.57
   -5   -5   10     -0.40      0.85
   -6   -5   10      0.01      0.61
   -7   -5   10      0.12      0.44
   -8   -5   10      0.05      0.45
   -9   -5   10      0.04      0.35
  -10   -5   10      0.16      0.15
  -11   -5   10      0.26      0.02
   11   -6   10     -0.57     -0.31
   10   -6   10     -0.46     -0.03
    9   -6   10     -0.22      0.27
    8   -6   10     -0.16      0.53
    7   -6   10     -0.21      0.62
    6   -6   10     -0.05      0.42
    5   -6   10      0.23      0.09
    4   -6   10      0.40     -0.07
    3   -6   10      0.61     -0.08
    2   -6   10      1.07     -0.08
    1   -6   10      1.43     -0.06
    0   -6   10      1.16     -0.16
   -1   -6   10      0.24     -0.61
   -2   -6   10     -0.70     -1.03
   -3   -6   10     -1.12     -0.73
   -4   -6   10     -0.91      0.18
   -5   -6   10     -0.33      0.80
   -6   -6   10      0.21      0.80
   -7   -6   10      0.46      0.66
   -8   -6   10      0.52      0.63
   -9   -6   10      0.59      0.50
  -10   -6   10      0.62      0.21
   11   -7   10     -0.43     -0.01
   10   -7   10     -0.57      0.16
    9   -7   10     -0.31      0.30
    8   -7   10     -0.16      0.40
    7   -7   10     -0.40      0.46
    6   -7   10     -0.63      0.33
    5   -7   10     -0.49      0.10
    4   -7   10     -0.24      0.06
    3   -7   10     -0.13      0.20
    2   -7   10      0.07      0.20
    1   -7   10      0.56     -0.01
    0   -7   10      0.96     -0.28
   -1   -7   10      0.80     -0.63
   -2   -7   10      0.14     -0.99
   -3   -7   10     -0.55     -0.89
   -4   -7   10     -0.79     -0.15
   -5   -7   10     -0.49      0.64
   -6   -7   10      0.05      0.94
   -7   -7   10      0.47      0.86
   -8   -7   10      0.67      0.72
   -9   -7   10      0.78      0.50
  -10   -7   10      0.73      0.18
   10   -8   10     -0.42      0.42
    9   -8   10     -0.23      0.43
    8   -8   10      0.02      0.35
    7   -8   10     -0.31      0.33
    6   -8   10     -0.93      0.28
    5   -8   10     -1.08      0.11
    4   -8   10     -0.72      0.06
    3   -8   10     -0.43      0.27
    2   -8   10     -0.29      0.39
    1   -8   10      0.12      0.10
    0   -8   10      0.81     -0.36
   -1   -8   10      1.24     -0.64
   -2   -8   10      0.97     -0.73
   -3   -8   10      0.17     -0.64
   -4   -8   10     -0.55     -0.22
   -5   -8   10     -0.71      0.41
   -6   -8   10     -0.37      0.88
   -7   -8   10      0.07      0.99
   -8   -8   10      0.37      0.85
   -9   -8   10      0.54      0.56
  -10   -8   10      0.55      0.22
    9   -9   10     -0.21      0.35
    8   -9   10      0.03      0.27
    7   -9   10     -0.20      0.28
    6   -9   10     -0.88      0.38
    5   -9   10     -1.23      0.29
    4   -9   10     -0.92      0.10
    3   -9   10     -0.51      0.14
    2   -9   10     -0.33      0.28
    1   -9   10     -0.07      0.07
    0   -9   10      0.54     -0.44
   -1   -9   10      1.16     -0.70
   -2   -9   10      1.24     -0.54
   -3   -9   10      0.66     -0.28
   -4   -9   10     -0.21     -0.13
   -5   -9   10     -0.79      0.11
   -6   -9   10     -0.81      0.51
   -7   -9   10     -0.46      0.85
   -8   -9   10     -0.10      0.89
   -9   -9   10      0.17      0.64
  -10   -9   10      0.32      0.25
    8  -10   10     -0.10      0.30
    7  -10   10     -0.10      0.37
    6  -10   10     -0.45      0.49
    5  -10   10     -0.71      0.40
    4  -10   10     -0.61      0.07
    3  -10   10     -0.46     -0.11
    2  -10   10     -0.46      0.04
    1  -10   10     -0.36      0.09
    0  -10   10      0.10     -0.25
   -1  -10   10      0.70     -0.54
   -2  -10   10      1.03     -0.34
   -4  -10   10      0.23      0.11
   -5  -10   10     -0.49     -0.03
   -6  -10   10     -0.84      0.07
   -7  -10   10     -0.68      0.43
   -8  -10   10     -0.31      0.66
   -9  -10   10      0.00      0.54
    7  -11   10      0.11      0.46
    6  -11   10      0.12      0.49
    5  -11   10      0.14      0.37
    4  -11   10      0.14      0.07
    3  -11   10     -0.13     -0.15
    2  -11   10     -0.58      0.02
    1  -11   10     -0.70      0.31
    0  -11   10     -0.32      0.23
   -1  -11   10      0.23     -0.08
   -2  -11   10      0.64     -0.08
   -3  -11   10      0.83      0.26
   -4  -11   10      0.65      0.40
   -5  -11   10      0.10      0.14
   -6  -11   10     -0.41     -0.11
   -7  -11   10     -0.49     -0.01
   -8  -11   10     -0.21      0.21
    6  -12   10      0.38      0.37
    5  -12   10      0.70      0.30
    4  -12   10      0.89      0.14
    3  -12   10      0.48     -0.01
    2  -12   10     -0.35      0.08
    1  -12   10     -0.83      0.36
    0  -12   10     -0.61      0.43
   -1  -12   10     -0.11      0.18
   -2  -12   10      0.31      0.00
   -3  -12   10      0.67      0.21
   -4  -12   10      0.87      0.47
   -5  -12   10      0.60      0.38
   -6  -12   10      0.04      0.04
   -7  -12   10     -0.25     -0.16
   -8  -12   10     -0.11     -0.11
    4  -13   10      1.00      0.06
    3  -13   10      0.84     -0.06
    2  -13   10     -0.02     -0.09
    1  -13   10     -0.77      0.04
    0  -13   10     -0.77      0.16
   -1  -13   10     -0.30      0.05
   -2  -13   10      0.16     -0.15
   -3  -13   10      0.56     -0.12
   -4  -13   10      0.88      0.16
   -5  -13   10      0.79      0.35
   -6  -13   10      0.28      0.23
    1  -14   10     -0.55     -0.16
    0  -14   10     -0.66     -0.06
   -1  -14   10     -0.27     -0.08
   -2  -14   10      0.16     -0.29
   -3  -14   10      0.45     -0.45
   -4  -14   10      0.66     -0.31
   10   16    9     -0.05      0.12
    9   16    9      0.30      0.15
    8   16    9      0.47      0.06
    7   16    9      0.36     -0.21
    6   16    9      0.19     -0.59
    5   16    9      0.02     -0.73
    4   16    9     -0.21     -0.42
    3   16    9     -0.29      0.04
    2   16    9      0.06      0.11
   11   15    9     -0.53     -0.24
   10   15    9     -0.24     -0.21
    9   15    9      0.22     -0.17
    8   15    9      0.41     -0.17
    7   15    9      0.19     -0.24
    6   15    9     -0.09     -0.39
    5   15    9     -0.21     -0.48
    4   15    9     -0.28     -0.22
    3   15    9     -0.27      0.34
    1   15    9      0.82      0.11
    0   15    9      1.14     -0.66
   12   14    9     -0.67     -0.22
   11   14    9     -0.88     -0.48
   10   14    9     -0.57     -0.49
    9   14    9     -0.03     -0.39
    8   14    9      0.22     -0.36
    7   14    9     -0.02     -0.32
    6   14    9     -0.34     -0.26
    5   14    9     -0.35     -0.23
    4   14    9     -0.16     -0.06
    3   14    9      0.00      0.42
    2   14    9      0.33      0.82
    1   14    9      0.92      0.51
    0   14    9      1.32     -0.44
   -1   14    9      1.08     -1.13
   -2   14    9      0.54     -0.95
   13   13    9     -0.03      0.10
   12   13    9     -0.64     -0.16
   11   13    9     -0.92     -0.45
   10   13    9     -0.62     -0.42
    9   13    9     -0.04     -0.23
    8   13    9      0.23     -0.22
    7   13    9     -0.07     -0.33
    6   13    9     -0.54     -0.28
    5   13    9     -0.63     -0.16
    4   13    9     -0.31     -0.08
    3   13    9      0.07      0.17
    1   13    9      0.87      0.57
    0   13    9      1.31     -0.10
   -2   13    9      0.88     -0.89
   -3   13    9      0.54     -0.28
   14   12    9      0.49      0.03
   13   12    9      0.06      0.13
   12   12    9     -0.53      0.05
   11   12    9     -0.78     -0.18
   10   12    9     -0.45     -0.18
    9   12    9      0.14      0.05
    8   12    9      0.44      0.07
    7   12    9      0.15     -0.17
    6   12    9     -0.46     -0.24
    5   12    9     -0.81     -0.06
    4   12    9     -0.62      0.02
    3   12    9     -0.15     -0.03
    2   12    9      0.30      0.09
    1   12    9      0.73      0.24
    0   12    9      1.15      0.01
   -1   12    9      1.32     -0.47
   -2   12    9      1.13     -0.65
   -3   12    9      0.82     -0.33
   -4   12    9      0.66      0.11
   14   11    9      0.43      0.17
   13   11    9      0.03      0.33
   12   11    9     -0.47      0.40
   11   11    9     -0.66      0.16
   10   11    9     -0.39     -0.07
    9   11    9      0.20      0.05
    8   11    9      0.69      0.21
    7   11    9      0.73      0.06
    6   11    9      0.32     -0.11
    5   11    9     -0.16      0.00
    4   11    9     -0.33      0.06
    3   11    9     -0.09     -0.17
    2   11    9      0.33     -0.38
    1   11    9      0.75     -0.29
    0   11    9      1.09     -0.19
   -1   11    9      1.23     -0.34
   -2   11    9      1.06     -0.57
   -3   11    9      0.75     -0.60
   -4   11    9      0.55     -0.41
   -5   11    9      0.46     -0.16
   14   10    9      0.43      0.32
   13   10    9      0.15      0.38
   12   10    9     -0.19      0.42
   11   10    9     -0.38      0.17
   10   10    9     -0.23     -0.22
    9   10    9      0.33     -0.22
    8   10    9      1.11      0.13
    7   10    9      1.68      0.29
    6   10    9      1.71      0.13
    5   10    9      1.23     -0.02
    4   10    9      0.62     -0.13
    3   10    9      0.32     -0.41
    2   10    9      0.47     -0.72
    1   10    9      0.91     -0.72
    0   10    9      1.29     -0.51
   -1   10    9      1.33     -0.45
   -2   10    9      0.97     -0.64
   -3   10    9      0.48     -0.87
   -4   10    9      0.24     -0.87
   -5   10    9      0.32     -0.57
   -6   10    9      0.43     -0.17
   15    9    9      0.45      0.29
   14    9    9      0.53      0.31
   13    9    9      0.43      0.20
   12    9    9      0.31      0.12
   11    9    9      0.23     -0.06
   10    9    9      0.34     -0.43
    9    9    9      0.91     -0.53
    8    9    9      1.89     -0.09
    7    9    9      2.79      0.40
    6    9    9      3.07      0.41
    5    9    9      2.59      0.06
    4    9    9      1.66     -0.31
    3    9    9      0.83     -0.63
    2    9    9      0.56     -0.86
    1    9    9      0.93     -0.88
   -2    9    9      1.08     -0.78
   -3    9    9      0.34     -0.98
   -4    9    9      0.04     -0.97
   -5    9    9      0.32     -0.63
   -6    9    9      0.71     -0.15
   -7    9    9      0.71      0.12
   15    8    9      0.49      0.28
   14    8    9      0.75      0.40
   13    8    9      0.87      0.23
   12    8    9      1.00      0.02
   11    8    9      1.09     -0.16
   10    8    9      1.23     -0.47
    9    8    9      1.73     -0.71
    8    8    9      2.65     -0.42
    7    8    9      3.48      0.22
    6    8    9      3.70      0.54
    5    8    9      3.22      0.25
    4    8    9      2.30     -0.28
    3    8    9      1.32     -0.65
    2    8    9      0.76     -0.76
    1    8    9      0.90     -0.69
    0    8    9      1.47     -0.60
   -1    8    9      1.74     -0.64
   -2    8    9      1.27     -0.82
   -3    8    9      0.40     -0.95
   -5    8    9      0.34     -0.43
   -6    8    9      0.93      0.03
   -7    8    9      1.01      0.25
   -8    8    9      0.56      0.16
   15    7    9      0.60      0.29
   14    7    9      1.13      0.55
   13    7    9      1.48      0.43
   12    7    9      1.74      0.11
   11    7    9      1.86     -0.11
   10    7    9      1.90     -0.32
    9    7    9      2.26     -0.53
    8    7    9      3.04     -0.39
    7    7    9      3.73      0.21
    6    7    9      3.81      0.71
    5    7    9      3.33      0.58
    4    7    9      2.60      0.03
    3    7    9      1.83     -0.39
    2    7    9      1.29     -0.41
    1    7    9      1.27     -0.22
    0    7    9      1.72     -0.12
   -1    7    9      2.08     -0.30
   -2    7    9      1.78     -0.68
   -3    7    9      0.91     -0.94
   -4    7    9      0.25     -0.80
   -5    7    9      0.42     -0.30
   -6    7    9      0.99      0.22
   -7    7    9      1.11      0.44
   -8    7    9      0.65      0.32
   15    6    9      0.63      0.24
   14    6    9      1.39      0.49
   13    6    9      1.85      0.41
   12    6    9      2.03      0.10
   11    6    9      2.06     -0.07
   10    6    9      2.09     -0.04
    9    6    9      2.52     -0.02
    8    6    9      3.48      0.09
    7    6    9      4.36      0.49
    6    6    9      4.49      0.85
    5    6    9      3.93      0.70
    4    6    9      3.18      0.14
    3    6    9      2.47     -0.26
    2    6    9      1.98     -0.20
    1    6    9      1.93      0.08
    0    6    9      2.28      0.23
   -1    6    9      2.62      0.02
   -2    6    9      2.47     -0.52
   -3    6    9      1.74     -1.06
   -6    6    9      1.07      0.20
   -7    6    9      1.18      0.54
   -8    6    9      0.76      0.45
   -9    6    9      0.29      0.21
   15    5    9      0.56      0.19
   14    5    9      1.34      0.30
   13    5    9      1.70      0.24
   12    5    9      1.73      0.03
   11    5    9      1.75     -0.06
   10    5    9      1.95      0.07
    9    5    9      2.62      0.24
    8    5    9      3.92      0.37
    7    5    9      5.23      0.59
    6    5    9      5.72      0.73
    5    5    9      5.26      0.43
    4    5    9      4.34     -0.18
    3    5    9      3.31     -0.49
    2    5    9      2.52     -0.29
    1    5    9      2.28      0.10
    0    5    9      2.52      0.33
   -1    5    9      2.76      0.26
   -2    5    9      2.64     -0.21
   -3    5    9      2.13     -0.91
   -4    5    9      1.44     -1.24
   -5    5    9      1.03     -0.80
   -6    5    9      1.08      0.02
   -7    5    9      1.17      0.50
   -8    5    9      0.86      0.41
   -9    5    9      0.43      0.11
   15    4    9      0.59      0.15
   14    4    9      1.27      0.17
   13    4    9      1.48      0.11
   12    4    9      1.41     -0.08
   11    4    9      1.51     -0.27
   10    4    9      1.84     -0.28
    9    4    9      2.50     -0.09
    8    4    9      3.81      0.23
    7    4    9      5.53      0.68
    6    4    9      6.75      0.96
    5    4    9      6.93      0.61
    4    4    9      6.19     -0.21
    3    4    9      4.80     -0.68
    2    4    9      3.30     -0.44
    1    4    9      2.46      0.04
    0    4    9      2.43      0.32
   -1    4    9      2.54      0.40
   -2    4    9      2.34      0.23
   -3    4    9      1.91     -0.34
   -4    4    9      1.46     -0.92
   -5    4    9      1.06     -0.79
   -6    4    9      0.90     -0.04
   -7    4    9      0.91      0.52
   -8    4    9      0.76      0.41
   -9    4    9      0.44      0.00
  -10    4    9      0.28     -0.22
   15    3    9      0.75      0.01
   14    3    9      1.39      0.01
   13    3    9      1.55     -0.02
   12    3    9      1.41     -0.24
   11    3    9      1.54     -0.62
   10    3    9      1.88     -0.83
    9    3    9      2.33     -0.59
    8    3    9      3.41      0.04
    7    3    9      5.42      0.88
    6    3    9      7.55      1.45
    5    3    9      8.72      1.12
    4    3    9      8.44     -0.07
    3    3    9      6.74     -1.07
    2    3    9      4.28     -1.09
    1    3    9      2.36     -0.56
    0    3    9      1.72     -0.22
   -1    3    9      1.76     -0.04
   -2    3    9      1.62      0.11
   -3    3    9      1.30     -0.06
   -4    3    9      1.08     -0.56
   -5    3    9      0.90     -0.66
   -6    3    9      0.71     -0.02
   -7    3    9      0.65      0.65
   -8    3    9      0.62      0.64
   -9    3    9      0.46      0.18
  -10    3    9      0.29     -0.13
   15    2    9      0.72     -0.19
   14    2    9      1.35     -0.17
   13    2    9      1.55     -0.05
   12    2    9      1.37     -0.10
   11    2    9      1.43     -0.47
   10    2    9      1.83     -0.75
    9    2    9      2.24     -0.54
    8    2    9      3.12      0.07
    7    2    9      5.18      0.76
    6    2    9      7.89      1.21
    5    2    9      9.81      0.87
    4    2    9      9.89     -0.46
    3    2    9      7.92     -1.87
    2    2    9      4.53     -2.17
    1    2    9      1.31     -1.51
    0    2    9     -0.27     -0.91
   -1    2    9     -0.35     -0.66
   -2    2    9     -0.09     -0.37
   -3    2    9      0.02     -0.15
   -4    2    9      0.25     -0.32
   -5    2    9      0.56     -0.45
   -6    2    9      0.70      0.02
   -7    2    9      0.72      0.70
   -8    2    9      0.76      0.81
   -9    2    9      0.73      0.39
  -10    2    9      0.56      0.04
   15    1    9      0.34     -0.22
   14    1    9      0.91     -0.24
   13    1    9      1.30      0.02
   12    1    9      1.22      0.28
   11    1    9      1.27      0.18
   10    1    9      1.77     -0.05
    9    1    9      2.29      0.09
    8    1    9      2.94      0.41
    7    1    9      4.58      0.51
    6    1    9      7.22      0.41
    5    1    9      9.49      0.09
    4    1    9      9.96     -0.89
    3    1    9      8.08     -2.22
    2    1    9      4.30     -2.69
    1    1    9      0.18     -1.93
    0    1    9     -2.35     -0.98
   -1    1    9     -2.75     -0.64
   -2    1    9     -2.10     -0.50
   -3    1    9     -1.40     -0.20
   -4    1    9     -0.66     -0.05
   -5    1    9      0.20     -0.08
   -6    1    9      0.85      0.17
   -7    1    9      1.12      0.64
   -8    1    9      1.18      0.71
   -9    1    9      1.13      0.30
  -10    1    9      0.91     -0.05
  -11    1    9      0.55     -0.08
   14    0    9      0.37     -0.31
   13    0    9      0.97     -0.23
   12    0    9      1.15      0.10
   11    0    9      1.21      0.23
   10    0    9      1.67      0.19
    9    0    9      2.23      0.41
    8    0    9      2.62      0.69
    7    0    9      3.55      0.44
    6    0    9      5.61     -0.12
    5    0    9      7.96     -0.44
    4    0    9      8.96     -0.83
    3    0    9      7.63     -1.72
    1    0    9     -0.02     -1.79
    0    0    9     -3.00     -0.76
   -1    0    9     -3.77     -0.40
   -2    0    9     -3.06     -0.57
   -3    0    9     -2.06     -0.47
   -4    0    9     -1.08     -0.10
   -5    0    9      0.01      0.14
   -6    0    9      0.98      0.33
   -7    0    9      1.51      0.55
   -8    0    9      1.59      0.49
   -9    0    9      1.40      0.07
  -10    0    9      1.03     -0.26
  -11    0    9      0.56     -0.24
   14   -1    9     -0.09     -0.38
   13   -1    9      0.50     -0.69
   12   -1    9      0.84     -0.59
   11   -1    9      0.87     -0.34
   10   -1    9      1.18     -0.11
    9   -1    9      1.72      0.31
    8   -1    9      2.00      0.76
    7   -1    9      2.33      0.53
    6   -1    9      3.61     -0.26
    5   -1    9      5.68     -0.64
    4   -1    9      7.06     -0.51
    3   -1    9      6.42     -0.80
    2   -1    9      3.69     -1.45
    1   -1    9      0.09     -1.39
    0   -1    9     -2.63     -0.62
   -1   -1    9     -3.48     -0.29
   -2   -1    9     -2.92     -0.63
   -3   -1    9     -1.99     -0.73
   -4   -1    9     -1.12     -0.25
   -5   -1    9     -0.16      0.26
   -6   -1    9      0.82      0.49
   -7   -1    9      1.50      0.52
   -8   -1    9      1.69      0.31
   -9   -1    9      1.45     -0.13
  -10   -1    9      0.93     -0.41
  -11   -1    9      0.38     -0.31
   14   -2    9     -0.38     -0.27
   13   -2    9     -0.02     -0.77
   12   -2    9      0.35     -0.96
   11   -2    9      0.41     -0.71
   10   -2    9      0.59     -0.30
    9   -2    9      1.09      0.21
    8   -2    9      1.35      0.69
    7   -2    9      1.28      0.53
    6   -2    9      1.73     -0.27
    5   -2    9      3.14     -0.66
    4   -2    9      4.56     -0.23
    3   -2    9      4.53      0.00
    2   -2    9      2.69     -0.55
    1   -2    9      0.03     -0.96
    0   -2    9     -1.96     -0.57
   -1   -2    9     -2.53     -0.18
   -2   -2    9     -2.10     -0.35
   -3   -2    9     -1.48     -0.44
   -4   -2    9     -0.97      0.06
   -5   -2    9     -0.39      0.65
   -6   -2    9      0.36      0.84
   -7   -2    9      1.06      0.69
   -8   -2    9      1.43      0.32
   -9   -2    9      1.30     -0.20
  -10   -2    9      0.76     -0.50
  -11   -2    9      0.15     -0.37
   13   -3    9     -0.26     -0.56
   12   -3    9      0.02     -1.00
   11   -3    9      0.11     -0.99
   10   -3    9      0.20     -0.67
    9   -3    9      0.51     -0.24
    8   -3    9      0.64      0.17
    7   -3    9      0.30      0.16
    6   -3    9      0.11     -0.34
    5   -3    9      0.80     -0.55
    4   -3    9      1.97      0.02
    3   -3    9      2.39      0.45
    2   -3    9      1.48     -0.11
    1   -3    9     -0.05     -0.91
    0   -3    9     -1.07     -0.90
   -1   -3    9     -1.14     -0.40
   -2   -3    9     -0.78     -0.22
   -3   -3    9     -0.60     -0.13
   -4   -3    9     -0.62      0.34
   -5   -3    9     -0.49      0.90
   -6   -3    9     -0.04      1.07
   -7   -3    9      0.61      0.89
   -8   -3    9      1.13      0.50
   -9   -3    9      1.17     -0.04
  -10   -3    9      0.66     -0.44
  -11   -3    9      0.01     -0.38
   13   -4    9     -0.21     -0.30
   12   -4    9     -0.11     -0.84
   11   -4    9     -0.16     -1.15
   10   -4    9     -0.28     -1.09
    9   -4    9     -0.24     -0.83
    8   -4    9     -0.26     -0.49
    7   -4    9     -0.66     -0.31
    6   -4    9     -1.07     -0.42
    5   -4    9     -0.86     -0.36
    4   -4    9     -0.10      0.26
    3   -4    9      0.43      0.72
    2   -4    9      0.27      0.14
    1   -4    9     -0.13     -0.92
    0   -4    9     -0.08     -1.24
   -1   -4    9      0.40     -0.77
   -2   -4    9      0.70     -0.37
   -3   -4    9      0.41     -0.21
   -4   -4    9     -0.15      0.13
   -5   -4    9     -0.43      0.59
   -6   -4    9     -0.20      0.79
   -7   -4    9      0.39      0.75
   -8   -4    9      0.97      0.56
   -9   -4    9      1.08      0.17
  -10   -4    9      0.62     -0.24
  -11   -4    9     -0.01     -0.29
   12   -5    9     -0.01     -0.38
   11   -5    9     -0.24     -0.70
   10   -5    9     -0.57     -0.85
    9   -5    9     -0.72     -0.82
    8   -5    9     -0.79     -0.66
    7   -5    9     -1.06     -0.50
    6   -5    9     -1.44     -0.48
    5   -5    9     -1.49     -0.34
    4   -5    9     -1.16      0.29
    3   -5    9     -0.84      0.87
    2   -5    9     -0.63      0.53
    1   -5    9     -0.19     -0.50
    0   -5    9      0.71     -1.02
   -1   -5    9      1.63     -0.67
   -2   -5    9      1.87     -0.22
   -3   -5    9      1.27     -0.13
   -4   -5    9      0.34     -0.09
   -5   -5    9     -0.26      0.11
   -6   -5    9     -0.24      0.29
   -7   -5    9      0.22      0.40
   -8   -5    9      0.74      0.45
   -9   -5    9      0.88      0.30
  -10   -5    9      0.50      0.00
  -11   -5    9     -0.01     -0.12
   12   -6    9      0.16     -0.02
   11   -6    9     -0.06     -0.13
   10   -6    9     -0.53     -0.31
    9   -6    9     -0.82     -0.49
    8   -6    9     -0.85     -0.54
    7   -6    9     -0.96     -0.47
    6   -6    9     -1.30     -0.48
    5   -6    9     -1.55     -0.42
    4   -6    9     -1.53      0.10
    3   -6    9     -1.42      0.84
    2   -6    9     -1.17      0.92
    1   -6    9     -0.42      0.17
    0   -6    9      0.86     -0.41
   -1   -6    9      2.02     -0.19
   -2   -6    9      2.36      0.28
   -3   -6    9      1.80      0.29
   -4   -6    9      0.85     -0.01
   -5   -6    9      0.06     -0.17
   -6   -6    9     -0.25     -0.06
   -7   -6    9     -0.06      0.18
   -8   -6    9      0.36      0.41
   -9   -6    9      0.57      0.40
  -10   -6    9      0.36      0.17
  -11   -6    9      0.04      0.00
   11   -7    9     -0.09      0.10
   10   -7    9     -0.66      0.02
    9   -7    9     -1.14     -0.22
    8   -7    9     -1.12     -0.38
    7   -7    9     -0.96     -0.35
    6   -7    9     -1.15     -0.32
    5   -7    9     -1.54     -0.36
    4   -7    9     -1.70     -0.05
    3   -7    9     -1.65      0.69
    2   -7    9     -1.45      1.17
    1   -7    9     -0.84      0.84
   -1   -7    9      1.51      0.34
   -2   -7    9      2.15      0.72
   -3   -7    9      2.03      0.65
   -4   -7    9      1.41      0.07
   -5   -7    9      0.58     -0.40
   -6   -7    9     -0.10     -0.34
   -7   -7    9     -0.30      0.08
   -8   -7    9     -0.03      0.42
   -9   -7    9      0.27      0.40
  -10   -7    9      0.26      0.13
  -11   -7    9      0.09     -0.08
   10   -8    9     -0.79      0.33
    9   -8    9     -1.44      0.19
    8   -8    9     -1.43     -0.05
    7   -8    9     -0.97     -0.15
    6   -8    9     -0.90     -0.19
    5   -8    9     -1.37     -0.32
    4   -8    9     -1.76     -0.24
    3   -8    9     -1.73      0.37
    2   -8    9     -1.50      1.14
    1   -8    9     -1.11      1.34
    0   -8    9     -0.35      1.00
   -1   -8    9      0.70      0.81
   -2   -8    9      1.61      0.93
   -3   -8    9      2.07      0.79
   -4   -8    9      1.95      0.10
   -5   -8    9      1.27     -0.56
   -6   -8    9      0.34     -0.58
   -7   -8    9     -0.25     -0.06
   -8   -8    9     -0.26      0.38
   -9   -8    9     -0.02      0.34
  -10   -8    9      0.06      0.02
  -11   -8    9      0.02     -0.19
    9   -9    9     -1.09      0.54
    8   -9    9     -1.23      0.32
    7   -9    9     -0.74      0.07
    6   -9    9     -0.51     -0.11
    5   -9    9     -1.02     -0.26
    4   -9    9     -1.62     -0.30
    3   -9    9     -1.69      0.09
    2   -9    9     -1.41      0.83
    1   -9    9     -1.12      1.32
    0   -9    9     -0.70      1.22
   -1   -9    9      0.04      0.89
   -2   -9    9      0.98      0.80
   -3   -9    9      1.82      0.71
   -4   -9    9      2.21      0.22
   -5   -9    9      1.87     -0.46
   -6   -9    9      0.96     -0.66
   -7   -9    9      0.10     -0.23
   -8   -9    9     -0.24      0.29
   -9   -9    9     -0.22      0.37
  -10   -9    9     -0.16      0.13
    8  -10    9     -0.71      0.39
    7  -10    9     -0.45      0.26
    6  -10    9     -0.21      0.15
    5  -10    9     -0.57      0.07
    4  -10    9     -1.17      0.03
    3  -10    9     -1.36      0.12
    2  -10    9     -1.21      0.43
    1  -10    9     -1.06      0.75
    0  -10    9     -0.88      0.70
   -1  -10    9     -0.41      0.37
   -2  -10    9      0.35      0.23
   -3  -10    9      1.24      0.37
   -4  -10    9      1.93      0.32
   -5  -10    9      1.98     -0.13
   -6  -10    9      1.30     -0.49
   -7  -10    9      0.43     -0.32
   -8  -10    9     -0.09      0.15
   -9  -10    9     -0.24      0.40
  -10  -10    9     -0.23      0.31
    7  -11    9     -0.26      0.39
    6  -11    9     -0.09      0.41
    5  -11    9     -0.21      0.40
    4  -11    9     -0.53      0.40
    3  -11    9     -0.70      0.35
    2  -11    9     -0.78      0.30
    1  -11    9     -0.90      0.26
    0  -11    9     -0.89      0.09
   -1  -11    9     -0.56     -0.24
   -2  -11    9     -0.02     -0.37
   -3  -11    9      0.61     -0.04
   -4  -11    9      1.24      0.37
   -5  -11    9      1.53      0.34
   -6  -11    9      1.20     -0.03
   -7  -11    9      0.54     -0.19
   -8  -11    9      0.07      0.05
   -9  -11    9     -0.10      0.30
    6  -12    9     -0.01      0.46
    5  -12    9     -0.05      0.46
    4  -12    9     -0.03      0.58
    3  -12    9      0.09      0.72
    1  -12    9     -0.25      0.47
    0  -12    9     -0.40      0.10
   -1  -12    9     -0.19     -0.33
   -2  -12    9      0.04     -0.53
   -3  -12    9      0.16     -0.17
   -4  -12    9      0.43      0.49
   -5  -12    9      0.79      0.79
   -6  -12    9      0.81      0.50
   -7  -12    9      0.45      0.09
   -8  -12    9      0.14      0.01
    5  -13    9     -0.06      0.32
    4  -13    9      0.09      0.57
    3  -13    9      0.58      0.99
    2  -13    9      0.90      1.21
    1  -13    9      0.73      1.00
    0  -13    9      0.45      0.47
   -1  -13    9      0.41     -0.07
   -2  -13    9      0.30     -0.27
   -3  -13    9     -0.08      0.08
   -4  -13    9     -0.24      0.74
   -5  -13    9      0.08      1.09
   -6  -13    9      0.38      0.83
   -7  -13    9      0.26      0.33
    3  -14    9      0.41      0.80
    2  -14    9      1.01      1.15
    1  -14    9      1.11      1.05
    0  -14    9      0.87      0.57
   -1  -14    9      0.71      0.11
   -2  -14    9      0.48      0.04
   -3  -14    9     -0.07      0.43
   -4  -14    9     -0.46      0.92
   -5  -14    9     -0.25      1.07
   -6  -14    9      0.17      0.74
   -1  -15    9      0.55      0.10
   -2  -15    9      0.46      0.15
   -3  -15    9      0.08      0.49
    7   17    8      0.05     -0.23
    6   17    8     -0.23     -0.07
    5   17    8     -0.42      0.13
    4   17    8     -0.36      0.29
   10   16    8     -0.24     -0.29
    9   16    8     -0.18     -0.46
    8   16    8      0.05     -0.45
    7   16    8      0.11     -0.32
    6   16    8     -0.22     -0.17
    5   16    8     -0.63     -0.07
    4   16    8     -0.77     -0.04
    3   16    8     -0.69     -0.03
    2   16    8     -0.42      0.00
    1   16    8      0.09      0.04
   11   15    8     -0.39      0.43
   10   15    8     -0.38      0.15
    9   15    8     -0.19     -0.14
    8   15    8      0.19     -0.28
    7   15    8      0.35     -0.24
    6   15    8     -0.05     -0.12
    5   15    8     -0.73     -0.12
    4   15    8     -1.18     -0.31
    3   15    8     -1.25     -0.46
    2   15    8     -0.99     -0.33
    1   15    8     -0.29     -0.01
    0   15    8      0.61      0.20
   -1   15    8      1.05      0.11
   12   14    8     -0.41      0.86
   11   14    8     -0.51      0.81
   10   14    8     -0.44      0.45
    9   14    8     -0.06      0.08
    8   14    8      0.51     -0.11
    7   14    8      0.78     -0.08
    6   14    8      0.35      0.09
    5   14    8     -0.50      0.13
    4   14    8     -1.14     -0.17
    3   14    8     -1.36     -0.56
    2   14    8     -1.24     -0.54
    1   14    8     -0.65     -0.07
    0   14    8      0.39      0.34
   -1   14    8      1.20      0.21
   -2   14    8      1.13     -0.29
   -3   14    8      0.44     -0.60
   13   13    8     -0.28      0.70
   12   13    8     -0.41      1.08
   11   13    8     -0.60      0.99
   10   13    8     -0.51      0.47
    9   13    8      0.09      0.02
    8   13    8      0.95     -0.09
    7   13    8      1.45     -0.01
    6   13    8      1.15      0.11
    5   13    8      0.30      0.12
    4   13    8     -0.42     -0.16
    3   13    8     -0.76     -0.63
    2   13    8     -0.86     -0.75
    1   13    8     -0.63     -0.23
   -1   13    8      1.05      0.32
   -2   13    8      1.35     -0.28
   -3   13    8      0.82     -0.76
   -4   13    8      0.12     -0.67
   14   12    8     -0.11      0.24
   13   12    8      0.09      0.55
   12   12    8      0.00      0.94
   11   12    8     -0.32      0.95
   10   12    8     -0.30      0.41
    9   12    8      0.40     -0.08
    8   12    8      1.45     -0.08
    7   12    8      2.14      0.09
    6   12    8      1.97      0.02
    5   12    8      1.15     -0.23
    4   12    8      0.34     -0.55
    3   12    8     -0.12     -0.92
    2   12    8     -0.34     -1.04
    1   12    8     -0.38     -0.56
    0   12    8      0.04      0.16
   -1   12    8      0.88      0.36
   -2   12    8      1.49     -0.04
   -3   12    8      1.33     -0.44
   -4   12    8      0.63     -0.40
   14   11    8      0.24      0.13
   13   11    8      0.62      0.15
   12   11    8      0.65      0.52
   11   11    8      0.33      0.83
   10   11    8      0.21      0.52
    9   11    8      0.75     -0.01
    8   11    8      1.69      0.02
    7   11    8      2.37      0.36
    6   11    8      2.31      0.27
    5   11    8      1.62     -0.24
    4   11    8      0.80     -0.69
    2   11    8     -0.05     -1.08
    1   11    8     -0.13     -0.81
    0   11    8      0.13     -0.23
   -1   11    8      0.82      0.12
   -2   11    8      1.58      0.03
   -3   11    8      1.78     -0.10
   -4   11    8      1.24     -0.01
   -5   11    8      0.45      0.13
   -6   11    8     -0.01      0.14
   15   10    8      0.08      0.27
   14   10    8      0.48      0.24
   13   10    8      0.97      0.05
   12   10    8      1.16      0.27
   11   10    8      0.97      0.80
   10   10    8      0.73      0.76
    9   10    8      0.84      0.20
    8   10    8      1.35      0.08
    7   10    8      1.92      0.57
    6   10    8      2.16      0.77
    5   10    8      1.93      0.30
    4   10    8      1.41     -0.27
    3   10    8      0.85     -0.58
    2   10    8      0.45     -0.75
    1   10    8      0.31     -0.77
    0   10    8      0.48     -0.52
   -1   10    8      0.96     -0.27
   -2   10    8      1.56     -0.23
   -4   10    8      1.37     -0.01
   -5   10    8      0.45      0.01
   -6   10    8     -0.25     -0.20
   15    9    8      0.16      0.36
   14    9    8      0.59      0.47
   13    9    8      1.04      0.22
   12    9    8      1.31      0.17
   11    9    8      1.30      0.64
   10    9    8      1.04      0.87
    9    9    8      0.75      0.42
    7    9    8      1.32      0.55
    6    9    8      1.96      1.06
    5    9    8      2.35      0.91
    4    9    8      2.31      0.39
    3    9    8      1.91      0.02
    2    9    8      1.40     -0.24
    1    9    8      1.12     -0.47
    0    9    8      1.20     -0.52
   -1    9    8      1.49     -0.47
   -2    9    8      1.73     -0.50
   -3    9    8      1.67     -0.47
   -4    9    8      1.06     -0.29
   -5    9    8      0.04     -0.25
   -6    9    8     -0.80     -0.51
   -7    9    8     -0.89     -0.69
   15    8    8      0.06      0.26
   14    8    8      0.47      0.52
   13    8    8      0.77      0.41
   12    8    8      0.99      0.21
   11    8    8      1.20      0.46
   10    8    8      1.20      0.82
    9    8    8      0.92      0.62
    8    8    8      0.82      0.15
    7    8    8      1.34      0.24
    6    8    8      2.24      0.78
    5    8    8      2.97      1.04
    4    8    8      3.20      0.86
    3    8    8      2.96      0.54
    2    8    8      2.44      0.17
    1    8    8      1.98     -0.21
    0    8    8      1.83     -0.41
   -2    8    8      1.93     -0.57
   -3    8    8      1.57     -0.64
   -4    8    8      0.76     -0.51
   -5    8    8     -0.32     -0.40
   -6    8    8     -1.19     -0.59
   -7    8    8     -1.31     -0.80
   -8    8    8     -0.72     -0.64
   15    7    8     -0.15      0.09
   14    7    8      0.20      0.42
   13    7    8      0.42      0.66
   12    7    8      0.58      0.57
   11    7    8      0.98      0.54
   10    7    8      1.33      0.71
    9    7    8      1.25      0.61
    8    7    8      1.15      0.08
    7    7    8      1.72     -0.26
    6    7    8      2.77      0.00
    5    7    8      3.58      0.54
    4    7    8      3.84      0.87
    3    7    8      3.70      0.79
    2    7    8      3.21      0.39
    1    7    8      2.50     -0.05
    0    7    8      1.91     -0.22
   -1    7    8      1.66     -0.16
   -2    7    8      1.53     -0.21
   -3    7    8      1.19     -0.38
   -4    7    8      0.45     -0.40
   -5    7    8     -0.52     -0.32
   -6    7    8     -1.30     -0.46
   -7    7    8     -1.45     -0.72
   -8    7    8     -0.95     -0.70
   -9    7    8     -0.29     -0.39
   15    6    8     -0.31     -0.07
   14    6    8      0.06      0.27
   13    6    8      0.42      0.80
   12    6    8      0.66      0.95
   11    6    8      1.06      0.71
   10    6    8      1.40      0.52
    9    6    8      1.27      0.43
    8    6    8      1.12      0.11
    7    6    8      1.78     -0.37
    6    6    8      3.08     -0.50
    5    6    8      4.06     -0.08
    4    6    8      4.34      0.47
    3    6    8      4.20      0.62
    2    6    8      3.70      0.29
    1    6    8      2.78     -0.06
    0    6    8      1.75      0.00
   -1    6    8      1.08      0.32
   -2    6    8      0.86      0.42
   -3    6    8      0.73      0.17
   -4    6    8      0.32     -0.08
   -5    6    8     -0.42     -0.16
   -6    6    8     -1.11     -0.30
   -7    6    8     -1.30     -0.53
   -8    6    8     -0.95     -0.58
   -9    6    8     -0.44     -0.39
   15    5    8     -0.37     -0.22
   14    5    8      0.05      0.05
   13    5    8      0.63      0.63
   12    5    8      0.96      0.98
   11    5    8      1.20      0.76
   10    5    8      1.30      0.39
    9    5    8      1.02      0.33
    8    5    8      0.84      0.31
    7    5    8      1.62     -0.10
    6    5    8      3.17     -0.63
    5    5    8      4.35     -0.73
    4    5    8      4.64     -0.42
    3    5    8      4.35     -0.27
    2    5    8      3.65     -0.48
    1    5    8      2.52     -0.60
    0    5    8      1.28     -0.23
   -1    5    8      0.52      0.36
   -2    5    8      0.37      0.58
   -3    5    8      0.52      0.31
   -4    5    8      0.51     -0.04
   -5    5    8      0.11     -0.21
   -6    5    8     -0.47     -0.29
   -7    5    8     -0.73     -0.37
   -8    5    8     -0.56     -0.33
   -9    5    8     -0.27     -0.15
  -10    5    8     -0.12     -0.02
   15    4    8     -0.37     -0.31
   14    4    8     -0.05     -0.15
   13    4    8      0.53      0.34
   12    4    8      0.84      0.81
   11    4    8      0.90      0.79
   10    4    8      0.83      0.42
    9    4    8      0.51      0.22
    8    4    8      0.29      0.19
    7    4    8      0.96     -0.19
    6    4    8      2.43     -0.89
    5    4    8      3.69     -1.28
    4    4    8      4.14     -1.18
    3    4    8      3.89     -1.07
    2    4    8      3.00     -1.17
    1    4    8      1.54     -1.06
   -1    4    8     -0.43      0.20
   -2    4    8     -0.28      0.41
   -3    4    8      0.16      0.16
   -4    4    8      0.53     -0.16
   -5    4    8      0.56     -0.31
   -6    4    8      0.23     -0.35
   -7    4    8     -0.07     -0.33
   -8    4    8     -0.05     -0.17
   -9    4    8      0.08      0.08
  -10    4    8      0.04      0.20
   15    3    8     -0.31     -0.30
   14    3    8     -0.21     -0.27
   13    3    8      0.15      0.07
   12    3    8      0.28      0.56
   11    3    8      0.17      0.72
   10    3    8     -0.01      0.36
    9    3    8     -0.39     -0.07
    8    3    8     -0.84     -0.27
    7    3    8     -0.62     -0.50
    6    3    8      0.53     -0.83
    5    3    8      1.99     -0.87
    4    3    8      3.13     -0.57
    3    3    8      3.64     -0.46
    2    3    8      3.05     -0.64
    1    3    8      1.33     -0.54
    0    3    8     -0.43      0.05
   -1    3    8     -1.09      0.56
   -2    3    8     -0.77      0.52
   -3    3    8     -0.24      0.19
   -4    3    8      0.16     -0.03
   -5    3    8      0.41     -0.11
   -6    3    8      0.34     -0.19
   -7    3    8      0.07     -0.20
   -8    3    8     -0.02     -0.01
   -9    3    8      0.09      0.27
  -10    3    8      0.06      0.40
   15    2    8     -0.20     -0.28
   14    2    8     -0.32     -0.44
   13    2    8     -0.24     -0.33
   12    2    8     -0.35      0.07
   11    2    8     -0.72      0.31
   10    2    8     -1.09      0.00
    9    2    8     -1.56     -0.51
    8    2    8     -2.18     -0.72
    7    2    8     -2.34     -0.63
    6    2    8     -1.42     -0.43
    5    2    8      0.38      0.06
    4    2    8      2.44      0.66
    3    2    8      4.06      0.75
    2    2    8      4.25      0.28
    1    2    8      2.57      0.13
    0    2    8      0.28      0.61
   -1    2    8     -0.93      0.98
   -2    2    8     -0.90      0.71
   -3    2    8     -0.64      0.28
   -4    2    8     -0.55      0.18
   -5    2    8     -0.41      0.20
   -6    2    8     -0.31      0.07
   -7    2    8     -0.42      0.00
   -8    2    8     -0.48      0.19
   -9    2    8     -0.30      0.51
  -10    2    8     -0.14      0.64
  -11    2    8     -0.14      0.47
   15    1    8     -0.19     -0.23
   14    1    8     -0.54     -0.56
   13    1    8     -0.73     -0.68
   12    1    8     -1.06     -0.35
   11    1    8     -1.65      0.04
   10    1    8     -2.22     -0.11
    9    1    8     -2.67     -0.61
    8    1    8     -3.18     -0.85
    7    1    8     -3.40     -0.71
    6    1    8     -2.66     -0.43
    5    1    8     -0.81      0.10
    4    1    8      1.70      0.78
    3    1    8      4.06      0.92
    2    1    8      5.03      0.35
    1    1    8      3.81      0.06
   -1    1    8     -0.69      1.28
   -2    1    8     -1.38      1.14
   -3    1    8     -1.58      0.71
   -4    1    8     -1.82      0.65
   -5    1    8     -1.82      0.67
   -6    1    8     -1.50      0.38
   -7    1    8     -1.20      0.09
   -8    1    8     -0.97      0.20
   -9    1    8     -0.64      0.51
  -10    1    8     -0.29      0.65
  -11    1    8     -0.11      0.52
   14    0    8     -0.82     -0.39
   13    0    8     -1.22     -0.65
   12    0    8     -1.57     -0.39
   11    0    8     -2.17      0.16
   10    0    8     -2.80      0.25
    9    0    8     -3.20     -0.23
    8    0    8     -3.52     -0.60
    7    0    8     -3.76     -0.59
    6    0    8     -3.40     -0.54
    5    0    8     -1.95     -0.41
    4    0    8      0.45     -0.02
    3    0    8      3.06      0.12
    2    0    8      4.70     -0.37
    1    0    8      4.32     -0.64
    0    0    8      2.17      0.18
   -1    0    8     -0.25      1.39
   -2    0    8     -1.81      1.79
   -3    0    8     -2.65      1.53
   -4    0    8     -3.15      1.38
   -5    0    8     -3.16      1.26
   -6    0    8     -2.63      0.72
   -7    0    8     -1.89      0.11
   -8    0    8     -1.25     -0.02
   -9    0    8     -0.71      0.17
  -10    0    8     -0.28      0.25
  -11    0    8     -0.02      0.17
   14   -1    8     -0.84     -0.15
   13   -1    8     -1.32     -0.51
   12   -1    8     -1.57     -0.49
   11   -1    8     -1.95     -0.01
   10   -1    8     -2.55      0.24
    9   -1    8     -3.01     -0.09
    8   -1    8     -3.28     -0.37
    7   -1    8     -3.59     -0.20
    6   -1    8     -3.70     -0.09
    5   -1    8     -2.92     -0.34
    4   -1    8     -1.00     -0.56
    3   -1    8      1.51     -0.77
    2   -1    8      3.54     -1.33
    1   -1    8      4.09     -1.73
    0   -1    8      2.89     -0.99
   -1   -1    8      0.71      0.54
   -2   -1    8     -1.39      1.48
   -3   -1    8     -2.87      1.50
   -4   -1    8     -3.63      1.34
   -5   -1    8     -3.65      1.20
   -6   -1    8     -3.06      0.71
   -7   -1    8     -2.17      0.07
   -8   -1    8     -1.27     -0.18
   -9   -1    8     -0.56     -0.11
  -10   -1    8     -0.13     -0.14
  -11   -1    8      0.07     -0.25
  -12   -1    8      0.13     -0.24
   14   -2    8     -0.56     -0.09
   13   -2    8     -1.07     -0.44
   12   -2    8     -1.29     -0.67
   11   -2    8     -1.51     -0.41
   10   -2    8     -2.03     -0.08
    9   -2    8     -2.52     -0.14
    8   -2    8     -2.73     -0.17
    7   -2    8     -2.94      0.30
    6   -2    8     -3.31      0.68
    5   -2    8     -3.29      0.30
    4   -2    8     -2.23     -0.50
    3   -2    8     -0.31     -1.14
    1   -2    8      2.80     -2.28
    0   -2    8      2.67     -1.95
   -1   -2    8      1.33     -0.73
   -2   -2    8     -0.61      0.32
   -3   -2    8     -2.33      0.53
   -4   -2    8     -3.21      0.40
   -5   -2    8     -3.20      0.38
   -6   -2    8     -2.68      0.23
   -7   -2    8     -1.96     -0.08
   -8   -2    8     -1.13     -0.20
   -9   -2    8     -0.34     -0.16
  -10   -2    8      0.12     -0.27
  -11   -2    8      0.22     -0.46
  -12   -2    8      0.20     -0.42
   13   -3    8     -0.66     -0.27
   12   -3    8     -0.93     -0.45
   11   -3    8     -1.09     -0.30
   10   -3    8     -1.47      0.04
    9   -3    8     -1.89      0.15
    8   -3    8     -1.99      0.19
    7   -3    8     -2.02      0.65
    6   -3    8     -2.47      1.12
    5   -3    8     -3.08      0.78
    4   -3    8     -3.01     -0.16
    3   -3    8     -1.93     -0.86
    2   -3    8     -0.33     -1.21
    1   -3    8      1.04     -1.56
    0   -3    8      1.66     -1.62
   -1   -3    8      1.25     -1.03
   -2   -3    8     -0.03     -0.30
   -3   -3    8     -1.47     -0.10
   -4   -3    8     -2.25     -0.23
   -5   -3    8     -2.21     -0.26
   -6   -3    8     -1.83     -0.19
   -7   -3    8     -1.45     -0.17
   -8   -3    8     -0.93     -0.10
   -9   -3    8     -0.25     -0.05
  -10   -3    8      0.24     -0.24
  -11   -3    8      0.33     -0.53
  -12   -3    8      0.24     -0.56
   13   -4    8     -0.32     -0.12
   12   -4    8     -0.61     -0.11
   11   -4    8     -0.76      0.04
   10   -4    8     -1.05      0.29
    9   -4    8     -1.44      0.35
    8   -4    8     -1.59      0.31
    7   -4    8     -1.61      0.58
    6   -4    8     -2.06      1.02
    5   -4    8     -2.95      0.91
    4   -4    8     -3.49      0.20
    3   -4    8     -3.06     -0.29
    2   -4    8     -1.82     -0.29
    1   -4    8     -0.42     -0.32
    0   -4    8      0.60     -0.56
   -1   -4    8      0.88     -0.56
   -2   -4    8      0.36     -0.28
   -3   -4    8     -0.52     -0.15
   -4   -4    8     -1.09     -0.29
   -5   -4    8     -1.11     -0.41
   -6   -4    8     -0.94     -0.35
   -7   -4    8     -0.88     -0.19
   -8   -4    8     -0.69      0.01
   -9   -4    8     -0.21      0.09
  -10   -4    8      0.22     -0.14
  -11   -4    8      0.28     -0.51
  -12   -4    8      0.15     -0.64
   12   -5    8     -0.52      0.07
   11   -5    8     -0.75      0.25
   10   -5    8     -1.10      0.38
    9   -5    8     -1.57      0.29
    8   -5    8     -1.85      0.10
    7   -5    8     -1.94      0.21
    6   -5    8     -2.27      0.65
    5   -5    8     -3.01      0.78
    4   -5    8     -3.63      0.40
    3   -5    8     -3.53      0.13
    2   -5    8     -2.67      0.38
    1   -5    8     -1.46      0.61
    0   -5    8     -0.32      0.35
   -1   -5    8      0.40     -0.08
   -2   -5    8      0.51     -0.23
   -3   -5    8      0.19     -0.23
   -4   -5    8     -0.15     -0.32
   -5   -5    8     -0.28     -0.48
   -6   -5    8     -0.37     -0.51
   -7   -5    8     -0.51     -0.35
   -8   -5    8     -0.49     -0.09
   -9   -5    8     -0.18      0.05
  -10   -5    8      0.11     -0.13
  -11   -5    8      0.09     -0.46
  -12   -5    8     -0.05     -0.61
   12   -6    8     -0.48      0.20
   11   -6    8     -0.71      0.50
   10   -6    8     -1.10      0.67
    9   -6    8     -1.63      0.46
    8   -6    8     -2.01      0.00
    7   -6    8     -2.11     -0.19
    6   -6    8     -2.26      0.08
    5   -6    8     -2.68      0.28
    4   -6    8     -3.11      0.06
    3   -6    8     -3.16     -0.08
    2   -6    8     -2.72      0.35
    1   -6    8     -1.93      0.88
    0   -6    8     -0.98      0.81
   -1   -6    8     -0.16      0.24
   -2   -6    8      0.28     -0.19
   -3   -6    8      0.34     -0.29
   -4   -6    8      0.25     -0.33
   -5   -6    8      0.09     -0.48
   -6   -6    8     -0.18     -0.61
   -7   -6    8     -0.50     -0.55
   -8   -6    8     -0.58     -0.31
   -9   -6    8     -0.37     -0.10
  -10   -6    8     -0.15     -0.14
  -11   -6    8     -0.17     -0.34
  -12   -6    8     -0.26     -0.42
   11   -7    8     -0.37      0.54
   10   -7    8     -0.60      0.87
    9   -7    8     -1.14      0.71
    8   -7    8     -1.63      0.09
    7   -7    8     -1.77     -0.41
    6   -7    8     -1.79     -0.37
    5   -7    8     -2.00     -0.22
    4   -7    8     -2.27     -0.47
    3   -7    8     -2.36     -0.74
    2   -7    8     -2.24     -0.37
    1   -7    8     -1.96      0.39
    0   -7    8     -1.49      0.68
   -1   -7    8     -0.90      0.33
   -2   -7    8     -0.41     -0.05
   -3   -7    8     -0.10     -0.11
   -4   -7    8      0.11     -0.08
   -5   -7    8      0.14     -0.26
   -6   -7    8     -0.16     -0.53
   -7   -7    8     -0.66     -0.60
   -8   -7    8     -0.92     -0.38
   -9   -7    8     -0.76     -0.11
  -10   -7    8     -0.47     -0.04
  -11   -7    8     -0.34     -0.14
   10   -8    8     -0.15      0.66
    9   -8    8     -0.64      0.77
    8   -8    8     -1.23      0.34
    7   -8    8     -1.40     -0.18
    6   -8    8     -1.23     -0.23
    5   -8    8     -1.22     -0.09
    4   -8    8     -1.47     -0.44
    3   -8    8     -1.70     -1.07
    2   -8    8     -1.83     -1.10
    1   -8    8     -1.94     -0.40
    0   -8    8     -1.95      0.24
   -1   -8    8     -1.71      0.33
   -2   -8    8     -1.29      0.24
   -3   -8    8     -0.77      0.32
   -4   -8    8     -0.24      0.35
   -5   -8    8      0.09      0.04
   -6   -8    8     -0.08     -0.41
   -7   -8    8     -0.63     -0.60
   -8   -8    8     -1.05     -0.43
   -9   -8    8     -0.99     -0.14
  -10   -8    8     -0.63     -0.03
  -11   -8    8     -0.35     -0.07
   10   -9    8     -0.03      0.44
    9   -9    8     -0.39      0.81
    8   -9    8     -0.97      0.73
    7   -9    8     -1.08      0.35
    6   -9    8     -0.66      0.23
    5   -9    8     -0.40      0.36
    4   -9    8     -0.69      0.05
    3   -9    8     -1.19     -0.79
    2   -9    8     -1.57     -1.25
    1   -9    8     -1.86     -0.77
    0   -9    8     -2.10      0.11
   -1   -9    8     -2.10      0.63
   -2   -9    8     -1.78      0.81
   -3   -9    8     -1.20      0.94
   -4   -9    8     -0.50      0.91
   -5   -9    8      0.06      0.48
   -6   -9    8      0.15     -0.17
   -7   -9    8     -0.22     -0.59
   -8   -9    8     -0.65     -0.60
   -9   -9    8     -0.74     -0.39
  -10   -9    8     -0.53     -0.23
  -11   -9    8     -0.28     -0.17
    9  -10    8     -0.13      0.78
    8  -10    8     -0.54      0.93
    7  -10    8     -0.62      0.67
    6  -10    8     -0.11      0.49
    5  -10    8      0.30      0.63
    4  -10    8      0.02      0.55
    3  -10    8     -0.65     -0.11
    2  -10    8     -1.14     -0.74
    1  -10    8     -1.43     -0.52
    0  -10    8     -1.69      0.38
   -1  -10    8     -1.86      1.13
   -2  -10    8     -1.74      1.44
   -3  -10    8     -1.31      1.53
   -4  -10    8     -0.66      1.47
   -5  -10    8      0.02      1.06
   -6  -10    8      0.42      0.32
   -7  -10    8      0.38     -0.38
   -8  -10    8      0.11     -0.72
   -9  -10    8     -0.11     -0.69
  -10  -10    8     -0.17     -0.46
    8  -11    8     -0.15      0.65
    7  -11    8     -0.21      0.55
    6  -11    8      0.20      0.45
    5  -11    8      0.62      0.66
    4  -11    8      0.44      0.85
    3  -11    8     -0.13      0.49
    2  -11    8     -0.56     -0.14
    1  -11    8     -0.80     -0.19
    0  -11    8     -1.10      0.55
   -1  -11    8     -1.41      1.38
   -2  -11    8     -1.49      1.73
   -3  -11    8     -1.30      1.70
   -4  -11    8     -0.84      1.59
   -5  -11    8     -0.18      1.37
   -6  -11    8      0.45      0.84
   -7  -11    8      0.73      0.08
   -8  -11    8      0.65     -0.54
   -9  -11    8      0.42     -0.74
  -10  -11    8      0.17     -0.53
    6  -12    8      0.20      0.26
    5  -12    8      0.50      0.46
    4  -12    8      0.35      0.67
    3  -12    8     -0.07      0.46
    2  -12    8     -0.34     -0.07
    1  -12    8     -0.48     -0.21
    0  -12    8     -0.76      0.43
   -1  -12    8     -1.07      1.29
   -2  -12    8     -1.19      1.58
   -3  -12    8     -1.15      1.28
   -4  -12    8     -0.97      0.98
   -5  -12    8     -0.46      0.97
   -6  -12    8      0.27      0.96
   -7  -12    8      0.79      0.56
   -8  -12    8      0.84     -0.07
   -9  -12    8      0.60     -0.47
    5  -13    8      0.28      0.19
    4  -13    8      0.01      0.24
    3  -13    8     -0.41      0.06
    2  -13    8     -0.52     -0.29
    1  -13    8     -0.44     -0.33
    0  -13    8     -0.52      0.27
   -1  -13    8     -0.70      1.04
   -2  -13    8     -0.74      1.17
   -3  -13    8     -0.82      0.53
   -4  -13    8     -0.98     -0.09
   -5  -13    8     -0.77     -0.01
   -6  -13    8     -0.03      0.50
   -7  -13    8      0.70      0.68
   -8  -13    8      0.85      0.29
    3  -14    8     -0.53     -0.14
    2  -14    8     -0.61     -0.35
    1  -14    8     -0.35     -0.34
    0  -14    8     -0.20      0.13
   -1  -14    8     -0.25      0.72
   -2  -14    8     -0.29      0.70
   -3  -14    8     -0.48     -0.07
   -4  -14    8     -0.93     -0.85
   -5  -14    8     -1.06     -0.81
   -6  -14    8     -0.41     -0.09
   -7  -14    8      0.46      0.46
    1  -15    8     -0.27     -0.30
    0  -15    8     -0.04     -0.04
   -1  -15    8      0.00      0.36
   -2  -15    8     -0.03      0.36
   -3  -15    8     -0.22     -0.24
   -4  -15    8     -0.71     -0.91
   -5  -15    8     -1.04     -0.96
    8   17    7      0.15     -1.23
    7   17    7      0.23     -1.15
    6   17    7      0.14     -0.93
    5   17    7      0.01     -0.58
    4   17    7     -0.06      0.02
    3   17    7     -0.14      0.67
   10   16    7     -0.86     -0.74
    8   16    7      0.00     -1.49
    7   16    7      0.18     -1.33
    6   16    7      0.27     -0.92
    5   16    7      0.36     -0.44
    4   16    7      0.37      0.14
    3   16    7      0.16      0.76
    2   16    7     -0.28      1.07
    1   16    7     -0.64      0.83
    0   16    7     -0.54      0.27
   12   15    7     -0.76      0.05
   11   15    7     -1.35     -0.20
   10   15    7     -1.37     -0.61
    9   15    7     -0.89     -1.05
    8   15    7     -0.41     -1.32
    7   15    7     -0.11     -1.25
    6   15    7      0.25     -0.90
    5   15    7      0.72     -0.48
    4   15    7      0.98     -0.06
    3   15    7      0.70      0.37
    2   15    7     -0.04      0.65
    1   15    7     -0.70      0.58
    0   15    7     -0.65      0.24
   -1   15    7      0.09     -0.06
   -2   15    7      0.80     -0.19
   12   14    7     -0.57      0.00
   11   14    7     -1.29     -0.03
   10   14    7     -1.52     -0.21
    9   14    7     -1.17     -0.47
    8   14    7     -0.73     -0.71
    7   14    7     -0.45     -0.81
    6   14    7     -0.05     -0.78
    5   14    7      0.58     -0.67
    4   14    7      1.05     -0.50
    3   14    7      0.89     -0.28
    2   14    7      0.12     -0.08
    1   14    7     -0.66      0.02
    0   14    7     -0.68      0.07
   -1   14    7      0.18      0.17
   -2   14    7      1.15      0.24
   -3   14    7      1.42      0.16
   13   13    7      0.04     -0.41
   12   13    7     -0.26     -0.17
   11   13    7     -0.91      0.13
   10   13    7     -1.31      0.22
    9   13    7     -1.18      0.10
    8   13    7     -0.84     -0.05
    7   13    7     -0.60     -0.16
    6   13    7     -0.30     -0.31
    5   13    7      0.20     -0.51
    4   13    7      0.66     -0.65
    3   13    7      0.67     -0.67
    2   13    7      0.15     -0.61
    1   13    7     -0.51     -0.47
    0   13    7     -0.67     -0.17
   -1   13    7     -0.02      0.24
   -2   13    7      0.99      0.52
   -3   13    7      1.53      0.43
   -4   13    7      1.29      0.07
   14   12    7     -0.32     -0.39
   13   12    7     -0.08     -0.54
   12   12    7     -0.04     -0.30
   11   12    7     -0.48      0.19
   10   12    7     -0.99      0.47
    9   12    7     -1.10      0.38
    8   12    7     -0.82      0.26
    7   12    7     -0.41      0.30
    6   12    7      0.01      0.22
    5   12    7      0.41     -0.17
    4   12    7      0.66     -0.65
    3   12    7      0.66     -0.92
    2   12    7      0.38     -0.95
    1   12    7     -0.10     -0.76
    0   12    7     -0.50     -0.33
   -1   12    7     -0.45      0.23
   -2   12    7      0.14      0.59
   -3   12    7      0.83      0.49
   -4   12    7      1.07      0.09
   -5   12    7      0.77     -0.21
   14   11    7     -0.42     -0.19
   13   11    7     -0.11     -0.54
   12   11    7      0.20     -0.56
   11   11    7      0.03     -0.09
   10   11    7     -0.51      0.35
    9   11    7     -0.85      0.36
    8   11    7     -0.66      0.23
    7   11    7     -0.05      0.38
    6   11    7      0.60      0.48
    5   11    7      0.96      0.05
    4   11    7      0.98     -0.73
    3   11    7      0.82     -1.26
    2   11    7      0.64     -1.29
    1   11    7      0.37     -0.93
    0   11    7     -0.12     -0.33
   -1   11    7     -0.62      0.33
   -2   11    7     -0.66      0.69
   -3   11    7     -0.09      0.58
   -4   11    7      0.61      0.25
   -5   11    7      0.88      0.04
   -6   11    7      0.62      0.02
   15   10    7     -0.26      0.10
   14   10    7     -0.41     -0.08
   13   10    7     -0.13     -0.48
   12   10    7      0.33     -0.78
   11   10    7      0.46     -0.54
   10   10    7      0.10      0.00
    9   10    7     -0.36      0.22
    8   10    7     -0.42      0.12
    7   10    7      0.05      0.23
    6   10    7      0.67      0.48
    5   10    7      0.99      0.22
    4   10    7      0.92     -0.61
    3   10    7      0.73     -1.30
    1   10    7      0.54     -0.87
    0   10    7      0.15     -0.19
   -1   10    7     -0.49      0.45
   -2   10    7     -0.89      0.78
   -3   10    7     -0.53      0.66
   -4   10    7      0.42      0.41
   -5   10    7      1.18      0.33
   -6   10    7      1.18      0.34
   15    9    7     -0.25      0.02
   14    9    7     -0.40     -0.02
   13    9    7     -0.17     -0.18
   12    9    7      0.32     -0.51
   11    9    7      0.67     -0.64
   10    9    7      0.57     -0.35
    9    9    7      0.08     -0.03
    8    9    7     -0.36     -0.01
    7    9    7     -0.34      0.01
    6    9    7      0.00      0.25
    5    9    7      0.27      0.23
    4    9    7      0.37     -0.33
    3    9    7      0.48     -0.90
    2    9    7      0.62     -0.89
    1    9    7      0.55     -0.39
    0    9    7      0.18      0.19
   -1    9    7     -0.34      0.63
   -2    9    7     -0.67      0.79
   -3    9    7     -0.42      0.63
   -5    9    7      1.38      0.31
   -6    9    7      1.57      0.39
   -7    9    7      0.99      0.26
   -8    9    7      0.27     -0.04
   15    8    7     -0.27     -0.14
   14    8    7     -0.38     -0.16
   13    8    7     -0.16     -0.01
   12    8    7      0.25     -0.10
   11    8    7      0.60     -0.49
   10    8    7      0.62     -0.62
    9    8    7      0.17     -0.31
    8    8    7     -0.47     -0.02
    7    8    7     -0.80      0.01
    6    8    7     -0.71     -0.03
    5    8    7     -0.49     -0.11
    4    8    7     -0.24     -0.34
    3    8    7      0.23     -0.49
    2    8    7      0.75     -0.20
    1    8    7      0.81      0.37
    0    8    7      0.40      0.75
   -1    8    7      0.00      0.80
   -2    8    7     -0.04      0.67
   -3    8    7      0.25      0.42
   -4    8    7      0.83      0.15
   -5    8    7      1.47      0.07
   -6    8    7      1.67      0.17
   -7    8    7      1.12      0.16
   -8    8    7      0.25     -0.06
   15    7    7     -0.31     -0.35
   14    7    7     -0.51     -0.59
   13    7    7     -0.39     -0.37
   12    7    7     -0.13     -0.09
   11    7    7      0.09     -0.30
   10    7    7      0.19     -0.63
    9    7    7      0.02     -0.41
    8    7    7     -0.40      0.11
    7    7    7     -0.71      0.20
    6    7    7     -0.71     -0.27
    5    7    7     -0.62     -0.74
    4    7    7     -0.51     -0.82
    3    7    7     -0.02     -0.42
    2    7    7      0.77      0.31
    1    7    7      1.13      0.98
    0    7    7      0.77      1.10
   -1    7    7      0.36      0.68
   -2    7    7      0.50      0.21
   -3    7    7      0.95     -0.02
   -4    7    7      1.33     -0.07
   -5    7    7      1.59     -0.06
   -6    7    7      1.66      0.03
   -7    7    7      1.23      0.08
   -8    7    7      0.34     -0.02
   -9    7    7     -0.39     -0.13
   15    6    7     -0.26     -0.43
   14    6    7     -0.81     -0.98
   13    6    7     -1.03     -0.93
   12    6    7     -0.93     -0.37
   11    6    7     -0.74     -0.15
   10    6    7     -0.50     -0.43
    9    6    7     -0.34     -0.44
    8    6    7     -0.44      0.05
    6    6    7     -0.61     -0.39
    5    6    7     -0.55     -1.18
    3    6    7     -0.30     -0.44
    2    6    7      0.50      0.67
    1    6    7      1.10      1.39
    0    6    7      0.85      1.31
   -2    6    7      0.16     -0.10
   -3    6    7      0.65     -0.19
   -4    6    7      1.11      0.11
   -5    6    7      1.29      0.34
   -6    6    7      1.34      0.34
   -7    6    7      1.10      0.23
   -8    6    7      0.36      0.09
   -9    6    7     -0.51     -0.01
  -10    6    7     -0.80     -0.01
   15    5    7     -0.02     -0.44
   14    5    7     -1.00     -1.06
   13    5    7     -1.67     -1.22
   12    5    7     -1.71     -0.68
   11    5    7     -1.43     -0.19
   10    5    7     -1.11     -0.28
    9    5    7     -0.90     -0.45
    8    5    7     -0.95     -0.10
    7    5    7     -1.13      0.28
    6    5    7     -1.11     -0.08
    5    5    7     -0.92     -0.88
    4    5    7     -0.81     -1.11
    3    5    7     -0.57     -0.35
    2    5    7      0.11      0.82
    1    5    7      0.77      1.57
    0    5    7      0.62      1.51
   -1    5    7     -0.20      0.83
   -2    5    7     -0.70      0.22
   -3    5    7     -0.43      0.27
   -4    5    7      0.13      0.83
   -5    5    7      0.50      1.26
   -6    5    7      0.67      1.18
   -7    5    7      0.63      0.81
   -8    5    7      0.16      0.48
   -9    5    7     -0.60      0.28
  -10    5    7     -1.03      0.16
   15    4    7      0.22     -0.49
   14    4    7     -0.93     -0.95
   13    4    7     -1.95     -1.15
   12    4    7     -2.14     -0.83
   11    4    7     -1.78     -0.34
   10    4    7     -1.40     -0.20
    9    4    7     -1.21     -0.28
    8    4    7     -1.26     -0.07
    7    4    7     -1.51      0.28
    6    4    7     -1.71      0.10
    5    4    7     -1.79     -0.69
    4    4    7     -1.85     -1.23
    3    4    7     -1.72     -0.87
    2    4    7     -1.14      0.13
    1    4    7     -0.43      1.00
    0    4    7     -0.37      1.26
   -1    4    7     -1.04      0.98
   -2    4    7     -1.67      0.62
   -3    4    7     -1.59      0.73
   -4    4    7     -0.94      1.35
   -5    4    7     -0.24      1.89
   -6    4    7      0.23      1.90
   -7    4    7      0.40      1.48
   -8    4    7      0.19      1.02
   -9    4    7     -0.35      0.70
  -10    4    7     -0.81      0.46
  -11    4    7     -0.77      0.22
   15    3    7      0.21     -0.53
   14    3    7     -0.81     -0.77
   13    3    7     -1.96     -0.82
   12    3    7     -2.32     -0.61
   11    3    7     -1.96     -0.21
   10    3    7     -1.45      0.10
    9    3    7     -1.12      0.13
    8    3    7     -1.10     -0.01
    7    3    7     -1.53     -0.19
    6    3    7     -2.44     -0.61
    5    3    7     -3.62     -1.33
    4    3    7     -4.63     -1.89
    3    3    7     -4.85     -1.70
    2    3    7     -4.01     -0.76
    1    3    7     -2.79      0.37
    0    3    7     -2.20      1.14
   -1    3    7     -2.46      1.32
   -3    3    7     -2.67      1.05
   -4    3    7     -1.81      1.40
   -5    3    7     -0.69      1.85
   -6    3    7      0.24      1.94
   -7    3    7      0.71      1.63
   -8    3    7      0.67      1.20
   -9    3    7      0.27      0.83
  -10    3    7     -0.19      0.53
  -11    3    7     -0.38      0.26
   15    2    7     -0.02     -0.43
   14    2    7     -0.75     -0.58
   13    2    7     -1.77     -0.48
   12    2    7     -2.21     -0.24
   11    2    7     -1.93      0.10
   10    2    7     -1.39      0.46
    9    2    7     -1.00      0.56
    8    2    7     -1.06      0.17
    7    2    7     -1.93     -0.53
    6    2    7     -3.80     -1.18
    5    2    7     -6.30     -1.62
    4    2    7     -8.43     -1.76
    3    2    7     -8.87     -1.44
    2    2    7     -7.16     -0.58
    1    2    7     -4.50      0.60
    0    2    7     -2.74      1.64
   -1    2    7     -2.46      2.08
   -2    2    7     -2.77      1.82
   -3    2    7     -2.67      1.31
   -4    2    7     -1.89      1.13
   -5    2    7     -0.71      1.30
   -6    2    7      0.41      1.40
   -7    2    7      1.05      1.22
   -8    2    7      1.07      0.91
   -9    2    7      0.69      0.60
  -10    2    7      0.24      0.30
  -11    2    7     -0.03      0.07
   15    1    7     -0.17     -0.29
   14    1    7     -0.60     -0.53
   13    1    7     -1.34     -0.48
   12    1    7     -1.77     -0.29
   11    1    7     -1.65     -0.03
   10    1    7     -1.30      0.38
    9    1    7     -1.06      0.68
    8    1    7     -1.34      0.46
    7    1    7     -2.64     -0.22
    6    1    7     -5.15     -0.78
    5    1    7     -8.47     -0.89
    4    1    7    -11.36     -0.68
    3    1    7    -11.97     -0.35
    2    1    7     -9.32      0.12
    1    1    7     -4.76      0.82
    0    1    7     -1.12      1.60
   -1    1    7      0.09      2.01
   -2    1    7     -0.32      1.67
   -3    1    7     -0.82      0.86
   -4    1    7     -0.74      0.33
   -5    1    7     -0.16      0.37
   -6    1    7      0.56      0.60
   -7    1    7      1.01      0.64
   -8    1    7      0.98      0.54
   -9    1    7      0.59      0.38
  -10    1    7      0.16      0.15
  -11    1    7     -0.09     -0.06
  -12    1    7     -0.09     -0.14
   14    0    7     -0.37     -0.55
   13    0    7     -0.91     -0.63
   12    0    7     -1.34     -0.56
   11    0    7     -1.46     -0.36
   10    0    7     -1.40      0.12
    9    0    7     -1.36      0.67
    8    0    7     -1.71      0.77
    7    0    7     -3.07      0.32
    6    0    7     -5.75     -0.10
    5    0    7     -9.35     -0.05
    4    0    7    -12.66      0.31
    2    0    7    -10.86      0.69
    1    0    7     -4.98      0.74
    0    0    7      0.67      0.91
   -1    0    7      3.34      1.07
   -2    0    7      3.12      0.80
   -3    0    7      1.85      0.10
   -4    0    7      0.92     -0.44
   -5    0    7      0.56     -0.33
   -6    0    7      0.57      0.09
   -7    0    7      0.63      0.33
   -8    0    7      0.51      0.34
   -9    0    7      0.19      0.28
  -10    0    7     -0.18      0.13
  -11    0    7     -0.40     -0.05
  -12    0    7     -0.32     -0.11
   14   -1    7     -0.08     -0.42
   13   -1    7     -0.54     -0.46
   12   -1    7     -1.02     -0.42
   11   -1    7     -1.32     -0.28
   10   -1    7     -1.50      0.16
    9   -1    7     -1.62      0.78
    8   -1    7     -1.95      0.98
    7   -1    7     -3.16      0.64
    6   -1    7     -5.69      0.33
    5   -1    7     -9.16      0.53
    4   -1    7    -12.41      1.07
    3   -1    7    -13.69      1.46
    2   -1    7    -11.27      1.44
    1   -1    7     -5.26      1.02
    0   -1    7      1.49      0.52
   -1   -1    7      5.57      0.27
   -2   -1    7      5.97      0.17
   -3   -1    7      4.25     -0.11
   -4   -1    7      2.36     -0.40
   -5   -1    7      1.13     -0.27
   -6   -1    7      0.50      0.18
   -7   -1    7      0.15      0.46
   -8   -1    7     -0.11      0.42
   -9   -1    7     -0.33      0.26
  -10   -1    7     -0.56      0.10
  -11   -1    7     -0.72     -0.07
  -12   -1    7     -0.62     -0.14
   14   -2    7      0.20     -0.21
   13   -2    7     -0.15     -0.13
   12   -2    7     -0.63     -0.07
   11   -2    7     -1.03     -0.09
   10   -2    7     -1.36      0.11
    9   -2    7     -1.67      0.57
    8   -2    7     -2.09      0.80
    7   -2    7     -3.14      0.63
    6   -2    7     -5.29      0.57
    5   -2    7     -8.21      1.07
    4   -2    7    -10.88      1.78
    3   -2    7    -11.95      2.19
    2   -2    7    -10.11      2.03
    1   -2    7     -5.04      1.28
    0   -2    7      1.40      0.26
   -1   -2    7      6.10     -0.43
   -2   -2    7      7.30     -0.49
   -3   -2    7      5.73     -0.31
   -4   -2    7      3.34     -0.26
   -5   -2    7      1.51     -0.11
   -6   -2    7      0.51      0.30
   -7   -2    7     -0.07      0.66
   -8   -2    7     -0.48      0.65
   -9   -2    7     -0.70      0.41
  -10   -2    7     -0.76      0.14
  -11   -2    7     -0.80     -0.08
  -12   -2    7     -0.71     -0.18
   13   -3    7      0.15      0.04
   12   -3    7     -0.28      0.19
   11   -3    7     -0.71      0.08
   10   -3    7     -1.10      0.00
    9   -3    7     -1.51      0.22
    8   -3    7     -1.97      0.47
    7   -3    7     -2.79      0.50
    6   -3    7     -4.34      0.66
    5   -3    7     -6.50      1.29
    4   -3    7     -8.52      2.02
    3   -3    7     -9.43      2.31
    2   -3    7     -8.33      2.03
    1   -3    7     -4.81      1.27
    0   -3    7      0.21      0.16
   -1   -3    7      4.60     -0.79
   -2   -3    7      6.48     -1.03
   -3   -3    7      5.70     -0.73
   -4   -3    7      3.58     -0.45
   -5   -3    7      1.67     -0.27
   -6   -3    7      0.62      0.09
   -7   -3    7      0.09      0.54
   -8   -3    7     -0.35      0.70
   -9   -3    7     -0.63      0.51
  -10   -3    7     -0.62      0.19
  -11   -3    7     -0.50     -0.07
  -12   -3    7     -0.41     -0.20
   13   -4    7      0.30      0.08
   12   -4    7      0.05      0.39
   11   -4    7     -0.28      0.46
   10   -4    7     -0.55      0.32
    9   -4    7     -0.81      0.33
    8   -4    7     -1.16      0.46
    7   -4    7     -1.73      0.44
    6   -4    7     -2.75      0.44
    5   -4    7     -4.27      0.82
    4   -4    7     -5.87      1.37
    3   -4    7     -6.90      1.64
    2   -4    7     -6.64      1.55
    1   -4    7     -4.68      1.23
    0   -4    7     -1.36      0.59
   -1   -4    7      2.07     -0.20
   -2   -4    7      4.20     -0.63
   -3   -4    7      4.40     -0.52
   -4   -4    7      3.17     -0.27
   -5   -4    7      1.65     -0.13
   -6   -4    7      0.72      0.07
   -7   -4    7      0.32      0.38
   -8   -4    7     -0.01      0.56
   -9   -4    7     -0.30      0.42
  -10   -4    7     -0.26      0.11
  -11   -4    7     -0.03     -0.16
  -12   -4    7      0.07     -0.26
   12   -5    7      0.24      0.31
   11   -5    7      0.12      0.60
   10   -5    7      0.08      0.60
    9   -5    7      0.07      0.56
    8   -5    7     -0.11      0.59
    7   -5    7     -0.59      0.48
    6   -5    7     -1.40      0.22
    5   -5    7     -2.54      0.17
    4   -5    7     -3.84      0.41
    3   -5    7     -4.90      0.69
    2   -5    7     -5.21      0.90
    1   -5    7     -4.37      1.08
    0   -5    7     -2.46      1.09
   -1   -5    7     -0.13      0.78
   -2   -5    7      1.81      0.40
   -3   -5    7      2.74      0.26
   -4   -5    7      2.50      0.32
   -5   -5    7      1.56      0.40
   -6   -5    7      0.71      0.44
   -7   -5    7      0.30      0.48
   -8   -5    7      0.10      0.45
   -9   -5    7     -0.04      0.25
  -10   -5    7      0.07     -0.04
  -11   -5    7      0.37     -0.27
  -12   -5    7      0.48     -0.35
   12   -6    7      0.07      0.07
   11   -6    7      0.05      0.36
   10   -6    7      0.13      0.50
    9   -6    7      0.29      0.58
    8   -6    7      0.29      0.72
    7   -6    7     -0.09      0.69
    6   -6    7     -0.81      0.37
    5   -6    7     -1.73      0.02
    4   -6    7     -2.70     -0.06
    3   -6    7     -3.54      0.09
    2   -6    7     -4.01      0.42
    1   -6    7     -3.80      0.88
    0   -6    7     -2.86      1.30
   -1   -6    7     -1.43      1.40
   -2   -6    7      0.11      1.17
   -3   -6    7      1.34      0.85
   -5   -6    7      1.35      0.69
   -6   -6    7      0.56      0.73
   -7   -6    7      0.06      0.61
   -8   -6    7     -0.07      0.32
   -9   -6    7      0.00      0.00
  -10   -6    7      0.24     -0.22
  -11   -6    7      0.55     -0.37
  -12   -6    7      0.65     -0.40
   11   -7    7     -0.26      0.21
   10   -7    7     -0.16      0.40
    9   -7    7      0.12      0.64
    8   -7    7      0.29      0.93
    7   -7    7      0.11      0.98
    6   -7    7     -0.45      0.61
    5   -7    7     -1.20      0.04
    4   -7    7     -1.90     -0.33
    3   -7    7     -2.40     -0.35
    2   -7    7     -2.67     -0.01
    1   -7    7     -2.69      0.58
    0   -7    7     -2.36      1.20
   -1   -7    7     -1.67      1.52
   -2   -7    7     -0.67      1.44
   -3   -7    7      0.40      1.10
   -4   -7    7      1.06      0.81
   -5   -7    7      0.97      0.75
   -6   -7    7      0.37      0.78
   -7   -7    7     -0.11      0.56
   -8   -7    7     -0.21      0.10
   -9   -7    7     -0.08     -0.25
  -10   -7    7      0.17     -0.31
  -11   -7    7      0.45     -0.27
  -12   -7    7      0.56     -0.27
   10   -8    7     -0.14      0.28
    9   -8    7      0.24      0.58
    8   -8    7      0.50      1.00
    7   -8    7      0.40      1.13
    6   -8    7     -0.04      0.72
    5   -8    7     -0.64      0.02
    4   -8    7     -1.17     -0.52
    3   -8    7     -1.39     -0.72
    2   -8    7     -1.33     -0.53
    1   -8    7     -1.23     -0.01
    0   -8    7     -1.23      0.62
   -1   -8    7     -1.20      1.03
   -2   -8    7     -0.87      1.14
   -3   -8    7     -0.26      1.06
   -4   -8    7      0.29      0.98
   -5   -8    7      0.41      0.96
   -6   -8    7      0.17      0.87
   -7   -8    7     -0.06      0.48
   -8   -8    7     -0.09     -0.08
   -9   -8    7     -0.04     -0.34
  -10   -8    7      0.06     -0.16
  -11   -8    7      0.23      0.09
  -12   -8    7      0.37      0.07
   10   -9    7      0.02      0.04
    9   -9    7      0.48      0.26
    8   -9    7      0.76      0.81
    7   -9    7      0.63      1.20
    6   -9    7      0.27      0.94
    5   -9    7     -0.12      0.25
    4   -9    7     -0.49     -0.36
    3   -9    7     -0.64     -0.71
    2   -9    7     -0.45     -0.83
    1   -9    7     -0.21     -0.64
    0   -9    7     -0.29     -0.22
   -1   -9    7     -0.67      0.16
   -2   -9    7     -0.93      0.41
   -3   -9    7     -0.80      0.67
   -4   -9    7     -0.49      1.01
   -5   -9    7     -0.29      1.22
   -6   -9    7     -0.19      1.06
   -7   -9    7     -0.04      0.48
   -8   -9    7      0.14     -0.15
   -9   -9    7      0.17     -0.32
  -10   -9    7      0.08      0.03
  -11   -9    7      0.09      0.37
    9  -10    7      0.45      0.08
    8  -10    7      0.78      0.66
    7  -10    7      0.69      1.24
    6  -10    7      0.45      1.13
    5  -10    7      0.31      0.44
    4  -10    7      0.15     -0.21
    3  -10    7     -0.08     -0.56
    2  -10    7     -0.08     -0.77
    1  -10    7      0.17     -0.82
    0  -10    7      0.22     -0.63
   -1  -10    7     -0.19     -0.38
   -2  -10    7     -0.73     -0.21
   -3  -10    7     -1.03      0.10
   -4  -10    7     -1.06      0.70
   -5  -10    7     -0.98      1.25
   -6  -10    7     -0.74      1.26
   -7  -10    7     -0.26      0.66
   -8  -10    7      0.21     -0.04
   -9  -10    7      0.36     -0.26
  -10  -10    7      0.19      0.05
  -11  -10    7      0.03      0.34
    8  -11    7      0.69      0.62
    7  -11    7      0.71      1.14
    6  -11    7      0.57      1.06
    5  -11    7      0.59      0.33
    4  -11    7      0.61     -0.32
    3  -11    7      0.40     -0.50
    2  -11    7      0.26     -0.47
    1  -11    7      0.50     -0.46
    0  -11    7      0.76     -0.39
   -1  -11    7      0.54     -0.32
   -2  -11    7     -0.12     -0.36
   -3  -11    7     -0.80     -0.27
   -4  -11    7     -1.25      0.26
   -5  -11    7     -1.41      1.00
   -6  -11    7     -1.19      1.29
   -7  -11    7     -0.57      0.86
   -8  -11    7      0.09      0.17
   -9  -11    7      0.37     -0.16
  -10  -11    7      0.24     -0.03
  -11  -11    7      0.03      0.14
    7  -12    7      0.65      0.83
    6  -12    7      0.61      0.79
    5  -12    7      0.71      0.20
    4  -12    7      0.84     -0.38
    3  -12    7      0.75     -0.47
    2  -12    7      0.64     -0.26
    1  -12    7      0.92     -0.14
    0  -12    7      1.31     -0.09
   -1  -12    7      1.22     -0.07
   -2  -12    7      0.51     -0.14
   -3  -12    7     -0.36     -0.20
   -4  -12    7     -1.04      0.07
   -5  -12    7     -1.39      0.64
   -6  -12    7     -1.28      1.00
   -7  -12    7     -0.74      0.82
   -8  -12    7     -0.14      0.32
   -9  -12    7      0.14      0.00
  -10  -12    7      0.09     -0.01
    5  -13    7      0.62      0.15
    4  -13    7      0.75     -0.34
    3  -13    7      0.65     -0.53
    2  -13    7      0.55     -0.42
    1  -13    7      0.83     -0.28
    0  -13    7      1.27     -0.16
   -1  -13    7      1.28      0.01
   -2  -13    7      0.73      0.15
   -3  -13    7      0.04      0.16
   -4  -13    7     -0.50      0.15
   -5  -13    7     -0.85      0.28
   -6  -13    7     -0.90      0.43
   -7  -13    7     -0.60      0.41
   -8  -13    7     -0.21      0.26
   -9  -13    7     -0.06      0.13
    4  -14    7      0.45     -0.25
    3  -14    7      0.21     -0.57
    2  -14    7     -0.02     -0.67
    1  -14    7      0.21     -0.60
    0  -14    7      0.72     -0.41
   -1  -14    7      0.88     -0.11
   -2  -14    7      0.58      0.21
   -3  -14    7      0.26      0.33
   -4  -14    7      0.09      0.19
   -5  -14    7     -0.10     -0.05
   -6  -14    7     -0.31     -0.19
   -7  -14    7     -0.27     -0.18
   -8  -14    7     -0.05     -0.05
    2  -15    7     -0.38     -0.66
    1  -15    7     -0.23     -0.69
    0  -15    7      0.25     -0.55
   -1  -15    7      0.49     -0.29
   -2  -15    7      0.32      0.00
   -3  -15    7      0.21      0.17
   -4  -15    7      0.36      0.10
   -5  -15    7      0.38     -0.16
   -6  -15    7      0.10     -0.41
    8   17    6     -1.03      0.02
    7   17    6     -0.67     -0.25
    6   17    6     -0.10     -0.39
    5   17    6      0.26     -0.50
    4   17    6      0.24     -0.65
    3   17    6      0.07     -0.67
    2   17    6      0.03     -0.41
   10   16    6     -0.28      0.39
    9   16    6     -0.95      0.64
    8   16    6     -1.26      0.40
    7   16    6     -1.05     -0.04
    6   16    6     -0.48     -0.27
    5   16    6      0.05     -0.32
    4   16    6      0.32     -0.46
    3   16    6      0.42     -0.64
    2   16    6      0.53     -0.55
    1   16    6      0.68     -0.18
    0   16    6      0.68      0.12
   12   15    6      1.04     -0.31
   11   15    6      0.94     -0.10
   10   15    6      0.30      0.36
    9   15    6     -0.50      0.69
    8   15    6     -1.04      0.54
    7   15    6     -1.12      0.13
    6   15    6     -0.79     -0.02
    5   15    6     -0.24      0.13
    4   15    6      0.39      0.19
    3   15    6      0.99     -0.01
    2   15    6      1.37     -0.17
    1   15    6      1.31     -0.10
    0   15    6      0.84      0.07
   -1   15    6      0.23      0.12
   -2   15    6     -0.17      0.08
   13   14    6      0.51     -0.38
   12   14    6      1.16     -0.38
   11   14    6      1.31     -0.20
   10   14    6      0.81      0.12
    9   14    6     -0.01      0.36
    8   14    6     -0.66      0.26
    7   14    6     -0.93     -0.03
    6   14    6     -0.81     -0.09
    5   14    6     -0.34      0.18
    4   14    6      0.50      0.42
    3   14    6      1.56      0.36
    2   14    6      2.26      0.15
    1   14    6      2.04      0.04
    0   14    6      0.98      0.05
   -1   14    6     -0.14      0.14
   -2   14    6     -0.68      0.28
   -3   14    6     -0.60      0.38
   13   13    6      0.56     -0.36
   12   13    6      1.28     -0.38
   11   13    6      1.62     -0.22
   10   13    6      1.25     -0.01
    9   13    6      0.44      0.07
    8   13    6     -0.32     -0.08
    7   13    6     -0.75     -0.32
    6   13    6     -0.80     -0.35
    5   13    6     -0.50     -0.13
    4   13    6      0.29      0.15
    3   13    6      1.51      0.25
    2   13    6      2.52      0.14
    1   13    6      2.48      0.01
    0   13    6      1.31     -0.02
   -2   13    6     -0.75      0.51
   -3   13    6     -0.66      0.86
   -4   13    6     -0.30      0.86
   -5   13    6     -0.02      0.45
   14   12    6      0.34     -0.25
   13   12    6      0.66     -0.30
   12   12    6      1.31     -0.26
   11   12    6      1.78     -0.10
   10   12    6      1.58      0.08
    9   12    6      0.77      0.06
    8   12    6     -0.18     -0.18
    7   12    6     -0.83     -0.41
    6   12    6     -1.01     -0.38
    5   12    6     -0.76     -0.08
    4   12    6     -0.09      0.27
    3   12    6      0.99      0.46
    1   12    6      2.44      0.05
    0   12    6      1.69     -0.19
   -1   12    6      0.48     -0.12
   -2   12    6     -0.30      0.31
   -3   12    6     -0.45      0.80
   -4   12    6     -0.30      0.91
   -5   12    6     -0.09      0.47
   -6   12    6      0.13     -0.12
   14   11    6      0.52     -0.29
   13   11    6      0.59     -0.05
   12   11    6      1.10      0.11
   11   11    6      1.68      0.17
   10   11    6      1.68      0.19
    9   11    6      0.93      0.10
    8   11    6     -0.16     -0.20
    7   11    6     -0.95     -0.45
    6   11    6     -1.08     -0.32
    5   11    6     -0.62      0.20
    4   11    6      0.11      0.82
    3   11    6      0.96      1.17
    2   11    6      1.83      1.00
    1   11    6      2.32      0.38
   -1   11    6      1.23     -0.50
   -2   11    6      0.31     -0.20
   -3   11    6     -0.39      0.23
   -4   11    6     -0.77      0.32
   -5   11    6     -0.73     -0.08
   -6   11    6     -0.32     -0.58
   -7   11    6      0.07     -0.69
   15   10    6      0.61     -0.60
   14   10    6      0.56     -0.43
   13   10    6      0.44      0.08
   12   10    6      0.75      0.39
   11   10    6      1.33      0.29
   10   10    6      1.52      0.10
    9   10    6      0.99     -0.05
    8   10    6      0.08     -0.30
    7   10    6     -0.61     -0.57
    6   10    6     -0.60     -0.46
    5   10    6      0.03      0.20
    4   10    6      0.81      1.14
    3   10    6      1.43      1.79
    2   10    6      1.94      1.68
    1   10    6      2.33      0.82
    0   10    6      2.36     -0.23
   -1   10    6      1.87     -0.76
   -2   10    6      0.90     -0.59
   -3   10    6     -0.34     -0.20
   -4   10    6     -1.37     -0.17
   -5   10    6     -1.60     -0.56
   -6   10    6     -0.99     -0.93
   15    9    6      0.50     -0.74
   14    9    6      0.36     -0.74
   13    9    6      0.07     -0.16
   12    9    6      0.20      0.38
   11    9    6      0.75      0.37
   10    9    6      1.16      0.08
    9    9    6      1.09     -0.13
    8    9    6      0.68     -0.32
    7    9    6      0.32     -0.60
    6    9    6      0.38     -0.63
    5    9    6      0.84     -0.01
    4    9    6      1.34      1.09
    3    9    6      1.63      2.01
    2    9    6      1.85      2.06
    1    9    6      2.12      1.15
   -2    9    6      0.98     -0.70
   -3    9    6     -0.35     -0.21
   -4    9    6     -1.64     -0.07
   -5    9    6     -2.04     -0.44
   -6    9    6     -1.31     -0.84
   -7    9    6     -0.27     -0.76
   15    8    6      0.30     -0.59
   14    8    6     -0.04     -0.86
   13    8    6     -0.48     -0.42
   12    8    6     -0.41      0.34
   11    8    6      0.17      0.67
    9    8    6      1.09      0.06
    8    8    6      1.18     -0.23
    7    8    6      1.17     -0.49
    6    8    6      1.22     -0.56
    5    8    6      1.39     -0.11
    4    8    6      1.44      0.84
    3    8    6      1.27      1.75
    2    8    6      1.21      1.96
    1    8    6      1.41      1.29
    0    8    6      1.44      0.24
   -1    8    6      0.96     -0.40
   -2    8    6      0.11     -0.28
   -3    8    6     -0.90      0.27
   -4    8    6     -1.81      0.55
   -5    8    6     -2.08      0.21
   -6    8    6     -1.32     -0.35
   -7    8    6     -0.12     -0.49
   -8    8    6      0.51     -0.15
   -9    8    6      0.37      0.17
   15    7    6      0.20     -0.23
   14    7    6     -0.36     -0.60
   13    7    6     -0.90     -0.45
   12    7    6     -0.77      0.24
   11    7    6     -0.12      0.84
   10    7    6      0.46      0.83
    9    7    6      0.83      0.41
    8    7    6      1.16      0.02
    7    7    6      1.41     -0.16
    6    7    6      1.51     -0.20
    5    7    6      1.49     -0.07
    4    7    6      1.17      0.32
    3    7    6      0.50      0.84
    2    7    6      0.03      1.13
    1    7    6      0.20      1.01
    0    7    6      0.47      0.67
   -2    7    6     -0.80      0.63
   -3    7    6     -1.46      0.99
   -4    7    6     -1.76      1.20
   -5    7    6     -1.70      0.91
   -6    7    6     -1.04      0.27
   -7    7    6      0.10     -0.15
   -8    7    6      0.92     -0.04
   -9    7    6      0.91      0.22
   15    6    6      0.21      0.08
   14    6    6     -0.41     -0.18
   13    6    6     -1.06     -0.32
   12    6    6     -0.97      0.01
   11    6    6     -0.30      0.61
   10    6    6      0.22      0.94
    9    6    6      0.52      0.74
    8    6    6      0.96      0.33
    7    6    6      1.40      0.09
    6    6    6      1.44      0.01
    5    6    6      1.12     -0.18
    4    6    6      0.45     -0.47
    3    6    6     -0.65     -0.54
    2    6    6     -1.60     -0.25
    1    6    6     -1.53      0.23
    0    6    6     -0.72      0.68
   -1    6    6     -0.42      1.01
   -2    6    6     -0.96      1.15
   -3    6    6     -1.42      1.15
   -4    6    6     -1.27      1.13
   -5    6    6     -0.87      1.00
   -7    6    6      0.51      0.13
   -8    6    6      1.39      0.03
   -9    6    6      1.57      0.19
  -10    6    6      1.01      0.20
   15    5    6      0.35      0.16
   14    5    6     -0.17      0.13
   13    5    6     -1.01     -0.06
   12    5    6     -1.21     -0.09
   11    5    6     -0.65      0.24
   10    5    6     -0.13      0.67
    9    5    6      0.13      0.70
    8    5    6      0.57      0.28
    7    5    6      1.01     -0.08
    6    5    6      0.82     -0.11
    5    5    6      0.07     -0.20
    4    5    6     -0.79     -0.67
    3    5    6     -1.82     -1.09
    2    5    6     -2.86     -0.91
    1    5    6     -3.00     -0.18
    0    5    6     -1.90      0.62
   -1    5    6     -0.79      1.11
   -2    5    6     -0.74      1.11
   -3    5    6     -1.12      0.76
   -4    5    6     -0.94      0.47
   -5    5    6     -0.33      0.47
   -6    5    6      0.15      0.46
   -7    5    6      0.68      0.20
   -8    5    6      1.44     -0.03
   -9    5    6      1.85      0.02
  -10    5    6      1.40      0.12
   15    4    6      0.44     -0.05
   14    4    6      0.19      0.10
   13    4    6     -0.71      0.16
   12    4    6     -1.30      0.04
   11    4    6     -1.06     -0.01
   10    4    6     -0.67      0.16
    9    4    6     -0.58      0.25
    8    4    6     -0.37      0.00
    7    4    6      0.02     -0.21
    6    4    6     -0.13      0.13
    5    4    6     -0.86      0.61
    4    4    6     -1.46      0.46
    3    4    6     -1.76     -0.18
    2    4    6     -2.21     -0.42
    1    4    6     -2.41      0.07
    0    4    6     -1.64      0.74
   -1    4    6     -0.42      1.05
   -2    4    6     -0.07      0.84
   -3    4    6     -0.60      0.30
   -4    4    6     -0.88     -0.14
   -5    4    6     -0.53     -0.10
   -6    4    6     -0.14      0.17
   -7    4    6      0.13      0.16
   -8    4    6      0.67     -0.09
   -9    4    6      1.25     -0.15
  -10    4    6      1.21      0.00
  -11    4    6      0.57      0.10
   15    3    6      0.28     -0.36
   14    3    6      0.43     -0.20
   13    3    6     -0.22      0.12
   12    3    6     -1.02      0.17
   11    3    6     -1.22     -0.12
   10    3    6     -1.15     -0.33
    9    3    6     -1.31     -0.25
    8    3    6     -1.27     -0.18
    7    3    6     -0.68     -0.08
    6    3    6     -0.19      0.51
    5    3    6     -0.33      1.37
    4    3    6     -0.56      1.48
    3    3    6     -0.40      0.57
    2    3    6     -0.23     -0.30
    1    3    6     -0.30     -0.31
    0    3    6     -0.07      0.16
   -1    3    6      0.58      0.38
   -2    3    6      0.73      0.15
   -3    3    6     -0.06     -0.28
   -4    3    6     -0.93     -0.59
   -5    3    6     -1.10     -0.48
   -6    3    6     -0.88     -0.10
   -7    3    6     -0.69      0.04
   -8    3    6     -0.33     -0.15
   -9    3    6      0.29     -0.28
  -10    3    6      0.63     -0.10
  -11    3    6      0.42      0.13
   15    2    6     -0.06     -0.47
   14    2    6      0.36     -0.39
   13    2    6      0.16      0.03
   12    2    6     -0.54      0.30
   11    2    6     -1.05      0.03
   10    2    6     -1.33     -0.38
    9    2    6     -1.65     -0.41
    8    2    6     -1.63     -0.22
    7    2    6     -0.73     -0.09
    6    2    6      0.51      0.28
    5    2    6      1.08      1.02
    4    2    6      0.92      1.25
    3    2    6      0.70      0.34
    2    2    6      0.72     -0.88
    1    2    6      0.77     -1.23
    0    2    6      0.85     -0.77
   -1    2    6      0.96     -0.35
   -2    2    6      0.69     -0.33
   -3    2    6     -0.28     -0.50
   -4    2    6     -1.38     -0.59
   -5    2    6     -1.79     -0.44
   -6    2    6     -1.54     -0.15
   -7    2    6     -1.16     -0.10
   -8    2    6     -0.79     -0.38
   -9    2    6     -0.26     -0.58
  -10    2    6      0.18     -0.37
  -11    2    6      0.26      0.00
  -12    2    6      0.14      0.18
   15    1    6     -0.29     -0.24
   14    1    6      0.17     -0.19
   13    1    6      0.35      0.16
   12    1    6      0.01      0.48
   11    1    6     -0.47      0.35
   10    1    6     -0.94     -0.07
    9    1    6     -1.45     -0.20
    8    1    6     -1.58     -0.03
    7    1    6     -0.78      0.03
    6    1    6      0.72      0.12
    5    1    6      1.84      0.61
    4    1    6      1.84      0.96
    3    1    6      1.01      0.30
    2    1    6      0.23     -0.98
    1    1    6      0.09     -1.60
   -1    1    6      0.69     -0.56
   -2    1    6      0.29     -0.23
   -3    1    6     -0.74     -0.18
   -4    1    6     -1.77     -0.16
   -6    1    6     -1.78      0.09
   -7    1    6     -1.21     -0.05
   -8    1    6     -0.75     -0.53
   -9    1    6     -0.33     -0.87
  -10    1    6      0.03     -0.70
  -11    1    6      0.16     -0.23
  -12    1    6      0.12      0.07
   14    0    6      0.19      0.13
   13    0    6      0.55      0.32
   12    0    6      0.64      0.45
   11    0    6      0.49      0.31
   10    0    6      0.05     -0.02
    9    0    6     -0.67     -0.06
    8    0    6     -1.17      0.28
    7    0    6     -0.79      0.57
    6    0    6      0.48      0.72
    5    0    6      1.79      1.02
    4    0    6      2.00      1.22
    3    0    6      0.68      0.56
    2    0    6     -1.26     -0.78
    1    0    6     -2.23     -1.70
    0    0    6     -1.65     -1.62
   -1    0    6     -0.52     -1.07
   -2    0    6     -0.14     -0.67
   -3    0    6     -0.69     -0.51
   -4    0    6     -1.43     -0.39
   -5    0    6     -1.67     -0.17
   -6    0    6     -1.35      0.12
   -7    0    6     -0.85      0.16
   -8    0    6     -0.44     -0.24
   -9    0    6     -0.09     -0.68
  -10    0    6      0.23     -0.62
  -11    0    6      0.32     -0.19
  -12    0    6      0.19      0.11
   14   -1    6      0.41      0.24
   13   -1    6      0.78      0.35
   12   -1    6      1.11      0.28
   11   -1    6      1.34      0.06
   10   -1    6      1.15     -0.13
    9   -1    6      0.39      0.04
    8   -1    6     -0.35      0.58
    7   -1    6     -0.29      1.10
    6   -1    6      0.62      1.32
    5   -1    6      1.62      1.36
    4   -1    6      1.53      1.19
    3   -1    6     -0.44      0.47
    2   -1    6     -3.62     -0.64
    1   -1    6     -5.85     -1.40
    0   -1    6     -5.54     -1.49
   -1   -1    6     -3.42     -1.33
   -2   -1    6     -1.48     -1.29
   -3   -1    6     -0.72     -1.28
   -4   -1    6     -0.70     -1.13
   -5   -1    6     -0.67     -0.73
   -6   -1    6     -0.42     -0.09
   -7   -1    6     -0.12      0.39
   -8   -1    6      0.13      0.30
   -9   -1    6      0.40     -0.14
  -10   -1    6      0.72     -0.26
  -11   -1    6      0.80      0.05
  -12   -1    6      0.51      0.29
   14   -2    6      0.68      0.20
   13   -2    6      1.02      0.35
   12   -2    6      1.35      0.31
   11   -2    6      1.80      0.14
   10   -2    6      1.96      0.08
    9   -2    6      1.42      0.33
    8   -2    6      0.65      0.80
    7   -2    6      0.55      1.16
    6   -2    6      1.18      1.19
    5   -2    6      1.66      0.99
    4   -2    6      0.97      0.67
    3   -2    6     -1.49      0.21
    2   -2    6     -5.19     -0.20
    1   -2    6     -8.18     -0.26
    0   -2    6     -8.52     -0.16
   -1   -2    6     -6.25     -0.37
   -2   -2    6     -3.25     -0.89
   -3   -2    6     -1.12     -1.25
   -4   -2    6     -0.10     -1.20
   -5   -2    6      0.29     -0.78
   -6   -2    6      0.46     -0.06
   -7   -2    6      0.56      0.64
   -8   -2    6      0.63      0.76
   -9   -2    6      0.77      0.32
  -10   -2    6      1.02      0.00
  -11   -2    6      1.14      0.15
  -12   -2    6      0.81      0.35
   13   -3    6      1.09      0.29
   12   -3    6      1.33      0.32
   11   -3    6      1.76      0.22
   10   -3    6      2.15      0.20
    9   -3    6      1.90      0.40
    8   -3    6      1.17      0.67
    7   -3    6      0.91      0.75
    6   -3    6      1.39      0.60
    5   -3    6      1.70      0.37
    4   -3    6      0.83      0.19
    3   -3    6     -1.51      0.07
    2   -3    6     -4.77      0.18
    1   -3    6     -7.60      0.60
    0   -3    6     -8.53      0.92
   -1   -3    6     -7.14      0.59
   -2   -3    6     -4.42     -0.23
   -3   -3    6     -1.77     -0.82
   -4   -3    6     -0.01     -0.86
   -5   -3    6      0.68     -0.49
   -6   -3    6      0.74      0.14
   -7   -3    6      0.70      0.80
   -8   -3    6      0.72      0.98
   -9   -3    6      0.74      0.55
  -10   -3    6      0.82      0.10
  -11   -3    6      0.93      0.10
  -12   -3    6      0.77      0.27
  -13   -3    6      0.30      0.20
   13   -4    6      0.80      0.19
   12   -4    6      0.93      0.20
   11   -4    6      1.18      0.10
   10   -4    6      1.55      0.06
    9   -4    6      1.55      0.18
    8   -4    6      1.05      0.31
    7   -4    6      0.80      0.23
    6   -4    6      1.31      0.00
    5   -4    6      1.88     -0.16
    4   -4    6      1.40     -0.16
    3   -4    6     -0.47     -0.07
    1   -4    6     -5.53      0.56
    0   -4    6     -6.86      0.84
   -1   -4    6     -6.69      0.58
   -2   -4    6     -5.15     -0.09
   -3   -4    6     -2.85     -0.62
   -4   -4    6     -0.76     -0.71
   -5   -4    6      0.28     -0.43
   -6   -4    6      0.38      0.10
   -7   -4    6      0.32      0.68
   -8   -4    6      0.44      0.88
   -9   -4    6      0.47      0.49
  -10   -4    6      0.33      0.02
  -11   -4    6      0.34     -0.04
  -12   -4    6      0.40      0.13
  -13   -4    6      0.24      0.13
   12   -5    6      0.49      0.12
   11   -5    6      0.60      0.04
   10   -5    6      0.86     -0.01
    9   -5    6      1.07      0.06
    8   -5    6      1.00      0.08
    7   -5    6      1.02     -0.16
    6   -5    6      1.64     -0.57
    5   -5    6      2.51     -0.83
    4   -5    6      2.60     -0.79
    3   -5    6      1.29     -0.55
    2   -5    6     -0.98     -0.22
    1   -5    6     -3.30      0.11
    0   -5    6     -5.02      0.30
   -1   -5    6     -5.85      0.24
   -2   -5    6     -5.54      0.01
   -3   -5    6     -4.03     -0.20
   -4   -5    6     -1.97     -0.34
   -5   -5    6     -0.55     -0.34
   -6   -5    6     -0.16     -0.05
   -7   -5    6     -0.13      0.43
   -8   -5    6      0.08      0.60
   -9   -5    6      0.13      0.23
  -10   -5    6     -0.16     -0.22
  -11   -5    6     -0.30     -0.26
  -12   -5    6     -0.09     -0.04
  -13   -5    6      0.07      0.06
   12   -6    6      0.28     -0.03
   11   -6    6      0.42     -0.10
   10   -6    6      0.66     -0.15
    9   -6    6      0.98     -0.08
    8   -6    6      1.23     -0.04
    7   -6    6      1.51     -0.29
    6   -6    6      2.10     -0.81
    5   -6    6      2.97     -1.21
    4   -6    6      3.42     -1.24
    3   -6    6      2.74     -0.97
    2   -6    6      0.90     -0.58
    1   -6    6     -1.44     -0.27
    0   -6    6     -3.52     -0.13
   -1   -6    6     -4.94      0.00
   -2   -6    6     -5.40      0.32
   -3   -6    6     -4.58      0.61
   -4   -6    6     -2.81      0.47
   -5   -6    6     -1.17      0.02
   -6   -6    6     -0.43     -0.11
   -7   -6    6     -0.26      0.21
   -8   -6    6     -0.10      0.37
   -9   -6    6     -0.11      0.00
  -10   -6    6     -0.46     -0.46
  -11   -6    6     -0.66     -0.47
  -12   -6    6     -0.40     -0.19
  -13   -6    6     -0.08     -0.01
   11   -7    6      0.35     -0.25
   10   -7    6      0.60     -0.35
    9   -7    6      0.91     -0.26
    8   -7    6      1.28     -0.02
    7   -7    6      1.69      0.02
    6   -7    6      2.21     -0.26
    5   -7    6      2.85     -0.58
    4   -7    6      3.32     -0.69
    3   -7    6      3.06     -0.58
    2   -7    6      1.73     -0.37
    1   -7    6     -0.37     -0.20
    0   -7    6     -2.52     -0.13
   -1   -7    6     -4.08      0.08
   -2   -7    6     -4.69      0.69
   -3   -7    6     -4.20      1.32
   -4   -7    6     -2.84      1.21
   -5   -7    6     -1.36      0.37
   -6   -7    6     -0.48     -0.23
   -7   -7    6     -0.13     -0.11
   -8   -7    6      0.02      0.08
   -9   -7    6     -0.07     -0.27
  -10   -7    6     -0.42     -0.75
  -11   -7    6     -0.62     -0.75
  -12   -7    6     -0.39     -0.39
   11   -8    6      0.21     -0.12
   10   -8    6      0.44     -0.23
    9   -8    6      0.77     -0.17
    8   -8    6      1.20      0.15
    7   -8    6      1.70      0.46
    6   -8    6      2.19      0.47
    5   -8    6      2.63      0.31
    4   -8    6      2.88      0.22
    3   -8    6      2.67      0.24
    2   -8    6      1.72      0.29
    1   -8    6      0.11      0.34
    0   -8    6     -1.66      0.37
   -1   -8    6     -2.92      0.52
   -2   -8    6     -3.35      1.03
   -3   -8    6     -3.02      1.63
   -4   -8    6     -2.21      1.52
   -5   -8    6     -1.31      0.57
   -6   -8    6     -0.58     -0.30
   -7   -8    6     -0.06     -0.40
   -8   -8    6      0.26     -0.29
   -9   -8    6      0.22     -0.65
  -10   -8    6     -0.13     -1.12
  -11   -8    6     -0.33     -1.04
  -12   -8    6     -0.16     -0.55
   10   -9    6      0.33      0.03
    9   -9    6      0.72      0.00
    8   -9    6      1.26      0.20
    7   -9    6      1.77      0.54
    6   -9    6      2.16      0.69
    5   -9    6      2.44      0.64
    4   -9    6      2.56      0.63
    3   -9    6      2.32      0.73
    2   -9    6      1.61      0.81
    1   -9    6      0.52      0.82
    0   -9    6     -0.62      0.80
   -1   -9    6     -1.41      0.87
   -2   -9    6     -1.68      1.15
   -3   -9    6     -1.57      1.51
   -4   -9    6     -1.37      1.45
   -5   -9    6     -1.18      0.71
   -6   -9    6     -0.84     -0.10
   -7   -9    6     -0.26     -0.40
   -8   -9    6      0.29     -0.50
   -9   -9    6      0.42     -0.91
  -10   -9    6      0.15     -1.30
  -11   -9    6     -0.02     -1.10
  -12   -9    6      0.11     -0.48
    9  -10    6      0.58     -0.04
    8  -10    6      1.17     -0.01
    7  -10    6      1.69      0.29
    6  -10    6      1.93      0.58
    5  -10    6      2.06      0.61
    4  -10    6      2.21      0.58
    3  -10    6      2.14      0.68
    2  -10    6      1.63      0.80
    1  -10    6      0.82      0.76
    0  -10    6      0.11      0.66
   -1  -10    6     -0.28      0.67
   -2  -10    6     -0.38      0.84
   -3  -10    6     -0.41      1.06
   -4  -10    6     -0.60      1.01
   -5  -10    6     -0.95      0.57
   -6  -10    6     -1.08      0.04
   -7  -10    6     -0.72     -0.22
   -8  -10    6     -0.12     -0.41
   -9  -10    6      0.18     -0.81
  -10  -10    6      0.11     -1.12
  -11  -10    6      0.04     -0.86
  -12  -10    6      0.20     -0.27
    8  -11    6      0.67     -0.13
    7  -11    6      1.21      0.10
    6  -11    6      1.39      0.43
    5  -11    6      1.36      0.47
    4  -11    6      1.51      0.23
    2  -11    6      1.41      0.17
    1  -11    6      0.75      0.16
    0  -11    6      0.22      0.04
   -1  -11    6      0.12      0.05
   -2  -11    6      0.29      0.25
   -3  -11    6      0.38      0.40
   -4  -11    6      0.12      0.27
   -5  -11    6     -0.47     -0.04
   -6  -11    6     -1.00     -0.22
   -7  -11    6     -1.06     -0.18
   -8  -11    6     -0.68     -0.17
   -9  -11    6     -0.30     -0.42
  -10  -11    6     -0.18     -0.68
  -11  -11    6     -0.12     -0.52
    7  -12    6      0.58      0.08
    6  -12    6      0.78      0.31
    5  -12    6      0.60      0.29
    4  -12    6      0.56     -0.12
    3  -12    6      0.83     -0.50
    2  -12    6      0.94     -0.57
    1  -12    6      0.63     -0.56
    0  -12    6      0.28     -0.68
   -1  -12    6      0.33     -0.71
   -2  -12    6      0.68     -0.50
   -3  -12    6      0.93     -0.33
   -4  -12    6      0.78     -0.48
   -5  -12    6      0.19     -0.78
   -6  -12    6     -0.53     -0.79
   -7  -12    6     -0.93     -0.44
   -8  -12    6     -0.84     -0.12
   -9  -12    6     -0.53     -0.13
  -10  -12    6     -0.31     -0.29
    6  -13    6      0.34      0.14
    5  -13    6      0.17      0.17
    4  -13    6     -0.02     -0.14
    3  -13    6      0.20     -0.60
    2  -13    6      0.61     -0.85
    1  -13    6      0.77     -0.99
    0  -13    6      0.70     -1.24
   -1  -13    6      0.73     -1.40
   -2  -13    6      0.96     -1.20
   -3  -13    6      1.18     -0.86
   -4  -13    6      1.13     -0.84
   -5  -13    6      0.71     -1.09
   -6  -13    6      0.05     -1.14
   -7  -13    6     -0.49     -0.79
   -8  -13    6     -0.63     -0.32
   -9  -13    6     -0.45     -0.10
  -10  -13    6     -0.22     -0.10
    4  -14    6     -0.07      0.02
    3  -14    6      0.02     -0.32
    2  -14    6      0.41     -0.68
    1  -14    6      0.80     -1.00
    0  -14    6      0.97     -1.38
   -1  -14    6      1.00     -1.63
   -2  -14    6      1.03     -1.43
   -3  -14    6      1.09     -0.94
   -4  -14    6      1.13     -0.67
   -5  -14    6      0.95     -0.83
   -6  -14    6      0.47     -1.01
   -7  -14    6     -0.07     -0.87
   -8  -14    6     -0.34     -0.50
   -9  -14    6     -0.26     -0.18
    2  -15    6      0.19     -0.37
    1  -15    6      0.48     -0.68
    0  -15    6      0.78     -1.02
   -1  -15    6      0.93     -1.26
   -2  -15    6      0.89     -1.14
   -3  -15    6      0.81     -0.72
   -4  -15    6      0.82     -0.40
   -5  -15    6      0.81     -0.46
   -6  -15    6      0.55     -0.67
   -7  -15    6      0.13     -0.71
   -1  -16    6      0.58     -0.69
   -2  -16    6      0.59     -0.69
   -3  -16    6      0.42     -0.47
   -4  -16    6      0.33     -0.24
   -5  -16    6      0.40     -0.22
    9   17    5      0.72      0.32
    8   17    5      0.63      0.36
    7   17    5      0.27      0.51
    6   17    5      0.01      0.94
    4   17    5      0.41      0.91
    3   17    5      0.74      0.11
    2   17    5      0.88     -0.48
   10   16    5      0.89      0.10
    9   16    5      1.18      0.34
    8   16    5      0.98      0.52
    7   16    5      0.34      0.69
    6   16    5     -0.19      0.98
    5   16    5     -0.17      1.18
    4   16    5      0.27      0.83
    3   16    5      0.81     -0.03
    2   16    5      1.18     -0.76
    1   16    5      1.24     -0.82
   -1   16    5      0.82     -0.05
   12   15    5      0.71     -0.14
   11   15    5      0.97     -0.13
   10   15    5      1.45      0.04
    9   15    5      1.83      0.37
    8   15    5      1.57      0.66
    7   15    5      0.68      0.77
    6   15    5     -0.19      0.81
    5   15    5     -0.54      0.81
    4   15    5     -0.38      0.49
    3   15    5      0.11     -0.19
    2   15    5      0.81     -0.74
    1   15    5      1.42     -0.74
    0   15    5      1.62     -0.35
   -1   15    5      1.40     -0.04
   -2   15    5      0.96     -0.06
   13   14    5      0.60      0.10
   12   14    5      0.80     -0.16
   11   14    5      1.25     -0.20
   10   14    5      1.98      0.01
    9   14    5      2.54      0.39
    8   14    5      2.35      0.73
    7   14    5      1.39      0.80
    6   14    5      0.29      0.72
    5   14    5     -0.51      0.66
    4   14    5     -0.95      0.48
    3   14    5     -0.91      0.06
    2   14    5     -0.12     -0.30
    1   14    5      1.10     -0.29
    0   14    5      1.88     -0.04
   -1   14    5      1.75      0.00
   -2   14    5      1.05     -0.25
   -4   14    5     -0.14     -0.39
   13   13    5      0.54      0.40
   12   13    5      0.69      0.00
   11   13    5      1.26     -0.18
   10   13    5      2.20     -0.03
    9   13    5      2.98      0.35
    7   13    5      2.29      0.75
    6   13    5      1.29      0.62
    5   13    5      0.31      0.58
    4   13    5     -0.69      0.58
    3   13    5     -1.39      0.37
    1   13    5      0.47      0.03
   -1   13    5      1.75      0.03
   -2   13    5      0.80     -0.41
   -3   13    5     -0.13     -0.73
   -4   13    5     -0.58     -0.59
   -5   13    5     -0.56     -0.13
   14   12    5      0.70      0.86
   13   12    5      0.67      0.58
   12   12    5      0.67      0.08
   11   12    5      1.19     -0.20
   10   12    5      2.20     -0.11
    9   12    5      3.13      0.29
    8   12    5      3.43      0.66
    7   12    5      3.01      0.71
    6   12    5      2.21      0.49
    5   12    5      1.21      0.39
    4   12    5     -0.14      0.49
    3   12    5     -1.49      0.45
    2   12    5     -1.73      0.19
    1   12    5     -0.41     -0.01
    0   12    5      1.24     -0.01
   -1   12    5      1.64     -0.12
   -2   12    5      0.77     -0.47
   -4   12    5     -0.66     -0.56
   -6   12    5     -0.42      0.46
   14   11    5      0.81      0.62
   13   11    5      0.77      0.37
   12   11    5      0.59      0.02
   11   11    5      0.99     -0.17
   10   11    5      2.02     -0.05
    9   11    5      3.05      0.34
    8   11    5      3.51      0.75
    7   11    5      3.25      0.81
    6   11    5      2.47      0.55
    5   11    5      1.35      0.37
    4   11    5     -0.17      0.52
    3   11    5     -1.80      0.70
    2   11    5     -2.50      0.53
    1   11    5     -1.51      0.14
    0   11    5      0.32     -0.20
   -1   11    5      1.31     -0.46
   -2   11    5      1.01     -0.68
   -3   11    5      0.28     -0.75
   -4   11    5     -0.16     -0.47
   -5   11    5     -0.35      0.09
   -6   11    5     -0.41      0.58
   15   10    5      0.15      0.33
   14   10    5      0.61      0.22
   13   10    5      0.59      0.06
   12   10    5      0.33      0.05
   11   10    5      0.65      0.13
   10   10    5      1.66      0.23
    9   10    5      2.71      0.46
    8   10    5      3.25      0.77
    7   10    5      3.08      0.84
    6   10    5      2.28      0.59
    5   10    5      1.04      0.38
    4   10    5     -0.52      0.58
    3   10    5     -2.12      1.02
    2   10    5     -3.00      1.18
    1   10    5     -2.40      0.82
    0   10    5     -0.72      0.12
   -1   10    5      0.68     -0.55
   -2   10    5      1.08     -0.92
   -3   10    5      0.84     -0.85
   -4   10    5      0.41     -0.45
   -5   10    5     -0.14      0.08
   -6   10    5     -0.62      0.52
   15    9    5     -0.07      0.25
   14    9    5      0.29     -0.08
   13    9    5      0.30     -0.27
   12    9    5      0.05     -0.02
   11    9    5      0.28      0.31
   10    9    5      1.16      0.43
    9    9    5      2.16      0.50
    8    9    5      2.82      0.65
    7    9    5      2.94      0.65
    6    9    5      2.35      0.35
    5    9    5      1.11      0.07
    4    9    5     -0.48      0.24
    3    9    5     -2.05      0.88
    1    9    5     -2.74      1.59
    0    9    5     -1.36      0.89
   -1    9    5      0.16     -0.18
   -2    9    5      1.05     -0.93
   -3    9    5      1.27     -0.95
   -4    9    5      0.91     -0.44
   -5    9    5      0.01      0.15
   -6    9    5     -0.92      0.55
   -8    9    5     -0.69      0.53
   -9    9    5     -0.15      0.20
   15    8    5     -0.15      0.32
   14    8    5      0.03     -0.18
   13    8    5     -0.03     -0.56
   12    8    5     -0.29     -0.33
   11    8    5     -0.17      0.16
   10    8    5      0.54      0.43
    9    8    5      1.53      0.52
    8    8    5      2.50      0.56
    6    8    5      2.96     -0.08
    5    8    5      1.85     -0.41
    4    8    5      0.22     -0.25
    3    8    5     -1.41      0.44
    2    8    5     -2.56      1.34
    1    8    5     -2.68      1.85
    0    8    5     -1.65      1.43
   -1    8    5     -0.23      0.23
   -2    8    5      0.79     -0.87
   -3    8    5      1.25     -1.10
   -4    8    5      1.09     -0.49
   -5    8    5      0.20      0.31
   -6    8    5     -0.95      0.80
   -7    8    5     -1.42      0.87
   -8    8    5     -1.01      0.63
   -9    8    5     -0.42      0.26
   15    7    5     -0.06      0.52
   14    7    5     -0.09      0.07
   13    7    5     -0.33     -0.45
   12    7    5     -0.66     -0.44
   11    7    5     -0.61     -0.05
   10    7    5     -0.06      0.25
    9    7    5      0.86      0.39
    8    7    5      2.03      0.37
    7    7    5      3.11      0.05
    6    7    5      3.40     -0.43
    5    7    5      2.60     -0.64
    4    7    5      1.23     -0.39
    3    7    5     -0.23      0.18
    2    7    5     -1.60      0.91
    1    7    5     -2.36      1.52
    0    7    5     -2.03      1.46
   -1    7    5     -1.00      0.53
   -2    7    5     -0.17     -0.57
   -3    7    5      0.23     -0.93
   -4    7    5      0.30     -0.37
   -5    7    5     -0.18      0.54
   -6    7    5     -1.11      1.12
   -7    7    5     -1.70      1.12
   -8    7    5     -1.45      0.73
   -9    7    5     -0.85      0.28
  -10    7    5     -0.47      0.01
   15    6    5      0.11      0.65
   14    6    5     -0.01      0.53
   13    6    5     -0.35      0.11
   12    6    5     -0.70     -0.13
   11    6    5     -0.73     -0.15
   10    6    5     -0.42     -0.13
    9    6    5      0.13     -0.04
    8    6    5      1.13      0.03
    7    6    5      2.40     -0.18
    6    6    5      3.11     -0.52
    5    6    5      2.79     -0.57
    4    6    5      1.91     -0.35
    3    6    5      0.89     -0.18
    2    6    5     -0.50      0.04
    1    6    5     -2.02      0.54
    0    6    5     -2.66      0.93
   -1    6    5     -2.15      0.66
   -2    6    5     -1.43      0.00
   -3    6    5     -1.12     -0.29
   -4    6    5     -0.98      0.10
   -5    6    5     -1.01      0.81
   -6    6    5     -1.51      1.29
   -7    6    5     -2.12      1.26
   -8    6    5     -2.08      0.80
   -9    6    5     -1.43      0.30
  -10    6    5     -0.77      0.02
   15    5    5      0.15      0.59
   14    5    5      0.20      0.84
   13    5    5      0.03      0.68
   12    5    5     -0.22      0.33
   11    5    5     -0.34     -0.10
   10    5    5     -0.35     -0.48
    9    5    5     -0.25     -0.54
    8    5    5      0.34     -0.38
    7    5    5      1.52     -0.43
    6    5    5      2.45     -0.70
    5    5    5      2.35     -0.78
    4    5    5      1.55     -0.80
    3    5    5      0.65     -1.13
    2    5    5     -0.67     -1.40
    1    5    5     -2.55     -0.96
    0    5    5     -3.88     -0.10
   -1    5    5     -3.68      0.29
   -2    5    5     -2.66      0.11
   -3    5    5     -1.97     -0.01
   -4    5    5     -1.66      0.23
   -5    5    5     -1.43      0.63
   -6    5    5     -1.54      0.92
   -7    5    5     -2.07      0.92
   -8    5    5     -2.30      0.61
   -9    5    5     -1.74      0.24
  -10    5    5     -0.84      0.06
  -11    5    5     -0.23      0.02
   15    4    5      0.10      0.46
   14    4    5      0.40      0.81
   13    4    5      0.59      0.83
   12    4    5      0.55      0.57
   11    4    5      0.35      0.08
   10    4    5      0.05     -0.50
    9    4    5     -0.27     -0.79
    8    4    5     -0.28     -0.76
    7    4    5      0.32     -0.83
    6    4    5      0.98     -1.07
    5    4    5      0.77     -1.12
    4    4    5     -0.27     -1.12
    3    4    5     -1.39     -1.55
    2    4    5     -2.49     -1.99
    1    4    5     -3.93     -1.54
    0    4    5     -5.14     -0.45
   -1    4    5     -5.02      0.12
   -3    4    5     -2.36     -0.29
   -4    4    5     -1.69     -0.18
   -5    4    5     -1.34     -0.03
   -7    4    5     -1.62      0.02
   -8    4    5     -2.04     -0.03
   -9    4    5     -1.74     -0.10
  -10    4    5     -0.80     -0.02
  -11    4    5      0.00      0.11
   15    3    5      0.10      0.31
   14    3    5      0.49      0.45
   13    3    5      0.98      0.41
   12    3    5      1.25      0.34
   11    3    5      1.08      0.18
   10    3    5      0.50     -0.23
    9    3    5     -0.34     -0.62
    8    3    5     -1.23     -0.68
    7    3    5     -1.75     -0.64
    6    3    5     -1.78     -0.63
    5    3    5     -1.88     -0.41
    4    3    5     -2.57     -0.14
    3    3    5     -3.51     -0.42
    2    3    5     -4.11     -0.96
    1    3    5     -4.41     -0.76
    0    3    5     -4.61      0.09
   -1    3    5     -4.26      0.38
   -2    3    5     -3.05     -0.23
   -3    3    5     -1.67     -0.77
   -4    3    5     -0.95     -0.75
   -5    3    5     -0.90     -0.67
   -6    3    5     -1.11     -0.82
   -7    3    5     -1.55     -0.88
   -8    3    5     -2.02     -0.73
   -9    3    5     -1.92     -0.49
  -10    3    5     -1.05     -0.17
  -11    3    5     -0.08      0.14
  -12    3    5      0.29      0.21
   15    2    5      0.19      0.09
   14    2    5      0.45     -0.07
   13    2    5      1.03     -0.37
   12    2    5      1.64     -0.38
   11    2    5      1.66     -0.11
   10    2    5      0.90     -0.05
    9    2    5     -0.43     -0.21
    8    2    5     -2.13     -0.11
    7    2    5     -3.74      0.28
    6    2    5     -4.53      0.59
    5    2    5     -4.33      0.81
    4    2    5     -4.06      0.93
    3    2    5     -4.39      0.62
    2    2    5     -4.70     -0.06
    1    2    5     -4.13     -0.29
    0    2    5     -2.94      0.04
   -1    2    5     -1.80     -0.08
   -2    2    5     -0.78     -0.98
   -3    2    5      0.11     -1.64
   -4    2    5      0.37     -1.47
   -5    2    5     -0.25     -1.14
   -6    2    5     -1.24     -1.18
   -7    2    5     -2.02     -1.25
   -8    2    5     -2.41     -1.00
   -9    2    5     -2.31     -0.60
  -10    2    5     -1.55     -0.20
  -11    2    5     -0.52      0.14
  -12    2    5      0.08      0.25
   15    1    5      0.36     -0.15
   14    1    5      0.41     -0.47
   13    1    5      0.80     -0.99
   12    1    5      1.51     -1.07
   11    1    5      1.79     -0.52
   10    1    5      1.08      0.00
    9    1    5     -0.42      0.13
    8    1    5     -2.39      0.35
    7    1    5     -4.52      0.90
    6    1    5     -5.92      1.24
    5    1    5     -5.77      1.05
    4    1    5     -4.72      0.68
    3    1    5     -4.35      0.37
    2    1    5     -4.71      0.06
    1    1    5     -4.29     -0.14
    0    1    5     -2.50     -0.24
   -1    1    5     -0.52     -0.76
   -2    1    5      0.67     -1.70
   -3    1    5      1.15     -2.17
   -4    1    5      0.98     -1.68
   -5    1    5     -0.10     -1.01
   -6    1    5     -1.67     -0.89
   -7    1    5     -2.73     -1.00
   -8    1    5     -2.93     -0.85
   -9    1    5     -2.63     -0.52
  -10    1    5     -1.99     -0.23
  -11    1    5     -1.09      0.00
  -12    1    5     -0.37      0.12
   14    0    5      0.46     -0.53
   13    0    5      0.51     -1.02
   12    0    5      0.99     -1.15
   11    0    5      1.39     -0.57
   10    0    5      0.95      0.10
    9    0    5     -0.34      0.26
    8    0    5     -2.13      0.30
    7    0    5     -4.21      0.73
    6    0    5     -5.94      1.05
    5    0    5     -6.09      0.64
    4    0    5     -4.56     -0.05
    3    0    5     -3.17     -0.19
    2    0    5     -3.22      0.23
    1    0    5     -3.65      0.56
    0    0    5     -2.89      0.31
   -1    0    5     -1.30     -0.54
   -2    0    5     -0.16     -1.46
   -3    0    5      0.23     -1.62
   -4    0    5      0.03     -0.88
   -5    0    5     -0.96     -0.15
   -6    0    5     -2.51     -0.14
   -7    0    5     -3.55     -0.47
   -8    0    5     -3.54     -0.56
   -9    0    5     -3.03     -0.43
  -10    0    5     -2.46     -0.33
  -11    0    5     -1.69     -0.27
  -12    0    5     -0.84     -0.16
  -13    0    5     -0.34     -0.09
   14   -1    5      0.47     -0.39
   13   -1    5      0.29     -0.72
   12   -1    5      0.39     -0.80
   11   -1    5      0.70     -0.39
   10   -1    5      0.60      0.07
    9   -1    5     -0.25      0.01
    8   -1    5     -1.63     -0.25
    7   -1    5     -3.34      0.04
    6   -1    5     -4.95      0.58
    5   -1    5     -5.25      0.42
    4   -1    5     -3.53     -0.40
    3   -1    5     -1.22     -0.74
    2   -1    5     -0.66     -0.12
    1   -1    5     -2.07      0.67
    0   -1    5     -3.54      0.63
   -1   -1    5     -3.85     -0.22
   -2   -1    5     -3.38     -1.01
   -3   -1    5     -2.76     -0.92
   -4   -1    5     -2.33     -0.11
   -5   -1    5     -2.59      0.45
   -6   -1    5     -3.52      0.25
   -7   -1    5     -4.18     -0.24
   -8   -1    5     -3.96     -0.41
   -9   -1    5     -3.38     -0.33
  -10   -1    5     -2.89     -0.34
  -11   -1    5     -2.15     -0.40
  -12   -1    5     -1.10     -0.37
  -13   -1    5     -0.35     -0.24
   14   -2    5      0.28     -0.32
   13   -2    5      0.10     -0.48
   12   -2    5     -0.08     -0.43
   11   -2    5     -0.03     -0.16
   10   -2    5      0.08     -0.01
    9   -2    5     -0.18     -0.36
    8   -2    5     -0.95     -0.90
    7   -2    5     -2.07     -0.80
    6   -2    5     -3.20     -0.07
    5   -2    5     -3.47      0.17
    4   -2    5     -2.10     -0.61
    3   -2    5      0.05     -1.44
    2   -2    5      0.63     -1.18
    1   -2    5     -1.55     -0.11
    0   -2    5     -5.01      0.54
   -1   -2    5     -7.47      0.26
   -2   -2    5     -7.99     -0.27
   -3   -2    5     -6.96     -0.24
   -4   -2    5     -5.36      0.27
   -5   -2    5     -4.29      0.46
   -6   -2    5     -4.11      0.02
   -7   -2    5     -4.10     -0.53
   -8   -2    5     -3.62     -0.64
   -9   -2    5     -3.08     -0.50
  -10   -2    5     -2.78     -0.48
  -11   -2    5     -2.15     -0.55
  -12   -2    5     -0.98     -0.49
  -13   -2    5     -0.10     -0.31
   13   -3    5      0.02     -0.45
   12   -3    5     -0.19     -0.23
   11   -3    5     -0.36      0.09
   10   -3    5     -0.24      0.07
    9   -3    5      0.00     -0.50
    8   -3    5     -0.08     -1.28
    7   -3    5     -0.62     -1.49
    6   -3    5     -1.32     -0.89
    5   -3    5     -1.55     -0.37
    4   -3    5     -0.80     -0.81
    3   -3    5      0.46     -1.75
    2   -3    5      0.58     -1.80
    1   -3    5     -1.74     -0.55
    0   -3    5     -5.79      0.93
   -1   -3    5     -9.38      1.54
   -2   -3    5    -10.82      1.32
   -3   -3    5     -9.83      1.04
   -4   -3    5     -7.43      0.91
   -5   -3    5     -5.17      0.54
   -6   -3    5     -3.92     -0.23
   -7   -3    5     -3.27     -0.92
   -8   -3    5     -2.61     -1.11
   -9   -3    5     -2.17     -1.01
  -10   -3    5     -2.12     -0.95
  -11   -3    5     -1.76     -0.89
  -12   -3    5     -0.70     -0.66
  -13   -3    5      0.20     -0.33
   13   -4    5      0.06     -0.61
   12   -4    5     -0.02     -0.35
   11   -4    5     -0.25      0.01
   10   -4    5     -0.27     -0.05
    9   -4    5      0.09     -0.70
    8   -4    5      0.39     -1.53
    7   -4    5      0.18     -1.85
    6   -4    5     -0.37     -1.34
    5   -4    5     -0.62     -0.58
    4   -4    5     -0.19     -0.50
    3   -4    5      0.56     -1.19
    2   -4    5      0.53     -1.49
    1   -4    5     -1.21     -0.50
    0   -4    5     -4.48      1.28
   -1   -4    5     -7.90      2.51
   -2   -4    5     -9.89      2.63
   -3   -4    5     -9.64      2.11
   -4   -4    5     -7.53      1.45
   -5   -4    5     -4.98      0.66
   -6   -4    5     -3.25     -0.30
   -7   -4    5     -2.36     -1.08
   -8   -4    5     -1.71     -1.39
   -9   -4    5     -1.32     -1.42
  -10   -4    5     -1.35     -1.38
  -11   -4    5     -1.22     -1.19
  -12   -4    5     -0.42     -0.73
  -13   -4    5      0.37     -0.24
   12   -5    5      0.01     -0.50
   11   -5    5     -0.21     -0.22
   10   -5    5     -0.42     -0.35
    9   -5    5     -0.30     -0.98
    8   -5    5      0.00     -1.63
    7   -5    5     -0.02     -1.72
    6   -5    5     -0.42     -1.07
    5   -5    5     -0.64     -0.11
    3   -5    5      0.56     -0.13
    2   -5    5      0.86     -0.73
    1   -5    5     -0.05     -0.35
    0   -5    5     -2.13      1.09
   -1   -5    5     -4.65      2.42
   -2   -5    5     -6.65      2.71
   -3   -5    5     -7.27      2.13
   -4   -5    5     -6.23      1.28
   -5   -5    5     -4.28      0.41
   -6   -5    5     -2.65     -0.45
   -7   -5    5     -1.81     -1.11
   -8   -5    5     -1.30     -1.41
   -9   -5    5     -0.91     -1.50
  -10   -5    5     -0.80     -1.49
  -11   -5    5     -0.71     -1.24
  -12   -5    5     -0.18     -0.67
  -13   -5    5      0.42     -0.10
   12   -6    5     -0.07     -0.34
   11   -6    5     -0.32     -0.19
   10   -6    5     -0.64     -0.37
    9   -6    5     -0.80     -0.96
    8   -6    5     -0.68     -1.48
    7   -6    5     -0.54     -1.42
    6   -6    5     -0.60     -0.75
    5   -6    5     -0.64      0.14
    4   -6    5     -0.20      0.61
    3   -6    5      0.74      0.27
    2   -6    5      1.53     -0.45
    1   -6    5      1.45     -0.51
    0   -6    5      0.33      0.50
   -1   -6    5     -1.39      1.69
   -2   -6    5     -3.18      2.04
   -3   -6    5     -4.44      1.52
   -4   -6    5     -4.57      0.77
   -5   -6    5     -3.59      0.09
   -6   -6    5     -2.33     -0.55
   -7   -6    5     -1.55     -1.06
   -8   -6    5     -1.17     -1.28
   -9   -6    5     -0.84     -1.31
  -10   -6    5     -0.61     -1.26
  -11   -6    5     -0.44     -0.99
  -12   -6    5     -0.09     -0.45
  -13   -6    5      0.33      0.07
   11   -7    5     -0.34     -0.10
   10   -7    5     -0.68     -0.27
    9   -7    5     -0.99     -0.78
    8   -7    5     -1.12     -1.26
    7   -7    5     -1.02     -1.26
    6   -7    5     -0.78     -0.78
    5   -7    5     -0.54     -0.16
    4   -7    5     -0.08      0.18
    3   -7    5      0.85     -0.11
    2   -7    5      2.03     -0.87
    1   -7    5      2.70     -1.24
    0   -7    5      2.34     -0.60
   -1   -7    5      1.07      0.50
   -3   -7    5     -2.28      0.79
   -4   -7    5     -3.20      0.38
   -5   -7    5     -3.04      0.02
   -6   -7    5     -2.19     -0.43
   -7   -7    5     -1.43     -0.89
   -8   -7    5     -1.06     -1.04
   -9   -7    5     -0.84     -0.91
  -10   -7    5     -0.62     -0.72
  -11   -7    5     -0.40     -0.47
  -12   -7    5     -0.14     -0.07
  -13   -7    5      0.15      0.27
   11   -8    5     -0.31     -0.14
   10   -8    5     -0.71     -0.29
    9   -8    5     -1.09     -0.65
    8   -8    5     -1.42     -1.00
    7   -8    5     -1.49     -1.02
    6   -8    5     -1.19     -0.71
    5   -8    5     -0.69     -0.30
    4   -8    5     -0.16     -0.04
    3   -8    5      0.60     -0.29
    2   -8    5      1.71     -1.14
    1   -8    5      2.73     -1.93
    0   -8    5      2.93     -1.77
   -1   -8    5      2.08     -0.78
   -2   -8    5      0.55      0.01
   -3   -8    5     -1.06      0.14
   -4   -8    5     -2.23      0.01
   -5   -8    5     -2.55     -0.10
   -6   -8    5     -2.12     -0.38
   -7   -8    5     -1.47     -0.74
   -8   -8    5     -1.03     -0.77
   -9   -8    5     -0.78     -0.44
  -10   -8    5     -0.57     -0.13
  -11   -8    5     -0.40      0.02
  -12   -8    5     -0.23      0.17
  -13   -8    5     -0.07      0.33
   10   -9    5     -0.77     -0.24
    9   -9    5     -1.28     -0.42
    8   -9    5     -1.66     -0.63
    7   -9    5     -1.77     -0.68
    6   -9    5     -1.48     -0.55
    5   -9    5     -0.90     -0.30
    4   -9    5     -0.30     -0.06
    3   -9    5      0.25     -0.12
    2   -9    5      0.96     -0.87
    1   -9    5      1.78     -1.92
    0   -9    5      2.25     -2.23
   -1   -9    5      1.95     -1.45
   -2   -9    5      0.96     -0.50
   -3   -9    5     -0.28     -0.23
   -4   -9    5     -1.33     -0.39
   -5   -9    5     -1.90     -0.50
   -6   -9    5     -1.92     -0.58
   -7   -9    5     -1.56     -0.68
   -8   -9    5     -1.07     -0.49
   -9   -9    5     -0.62     -0.03
  -10   -9    5     -0.32      0.28
  -11   -9    5     -0.25      0.23
  -12   -9    5     -0.27      0.12
    9  -10    5     -1.21     -0.16
    8  -10    5     -1.60     -0.33
    7  -10    5     -1.62     -0.49
    6  -10    5     -1.35     -0.54
    5  -10    5     -0.90     -0.43
    4  -10    5     -0.38     -0.15
    3  -10    5      0.15      0.04
    2  -10    5      0.68     -0.40
    1  -10    5      1.22     -1.40
    0  -10    5      1.66     -1.99
   -1  -10    5      1.76     -1.48
   -2  -10    5      1.40     -0.54
   -3  -10    5      0.65     -0.25
   -4  -10    5     -0.19     -0.60
   -5  -10    5     -0.84     -0.89
   -6  -10    5     -1.18     -0.88
   -7  -10    5     -1.18     -0.70
   -8  -10    5     -0.84     -0.31
   -9  -10    5     -0.31      0.23
  -10  -10    5      0.08      0.50
  -11  -10    5      0.08      0.31
  -12  -10    5     -0.13      0.02
    8  -11    5     -1.20     -0.28
    7  -11    5     -1.14     -0.51
    6  -11    5     -0.78     -0.58
    5  -11    5     -0.48     -0.40
    4  -11    5     -0.20     -0.05
    3  -11    5      0.31      0.21
    2  -11    5      0.97     -0.05
    1  -11    5      1.47     -0.93
    0  -11    5      1.74     -1.64
   -1  -11    5      1.89     -1.35
   -2  -11    5      1.89     -0.47
   -3  -11    5      1.60     -0.09
   -4  -11    5      1.08     -0.53
   -5  -11    5      0.55     -1.07
   -6  -11    5      0.12     -1.18
   -7  -11    5     -0.18     -0.91
   -8  -11    5     -0.24     -0.40
   -9  -11    5      0.04      0.23
  -10  -11    5      0.38      0.58
  -11  -11    5      0.36      0.41
  -12  -11    5      0.05      0.04
    7  -12    5     -0.67     -0.48
    6  -12    5     -0.17     -0.51
    5  -12    5      0.15     -0.25
    4  -12    5      0.15      0.11
    3  -12    5      0.36      0.28
    2  -12    5      0.99     -0.01
    1  -12    5      1.60     -0.76
    0  -12    5      1.86     -1.39
   -1  -12    5      1.93     -1.23
   -2  -12    5      2.06     -0.43
   -3  -12    5      2.13      0.03
   -4  -12    5      1.99     -0.34
   -5  -12    5      1.73     -1.06
   -6  -12    5      1.42     -1.42
   -7  -12    5      0.97     -1.26
   -8  -12    5      0.51     -0.70
   -9  -12    5      0.33      0.02
  -10  -12    5      0.42      0.51
  -11  -12    5      0.38      0.45
    6  -13    5      0.10     -0.38
    5  -13    5      0.48     -0.23
    4  -13    5      0.34      0.03
    3  -13    5      0.13      0.12
    2  -13    5      0.44     -0.16
    1  -13    5      1.10     -0.70
    0  -13    5      1.58     -1.15
   -1  -13    5      1.77     -1.09
   -2  -13    5      1.92     -0.55
   -3  -13    5      2.10     -0.12
   -4  -13    5      2.17     -0.32
   -5  -13    5      2.14     -0.97
   -6  -13    5      2.02     -1.47
   -7  -13    5      1.65     -1.48
   -8  -13    5      1.03     -1.02
   -9  -13    5      0.52     -0.32
  -10  -13    5      0.35      0.21
    4  -14    5      0.26     -0.18
    3  -14    5     -0.05     -0.11
    2  -14    5     -0.05     -0.28
    1  -14    5      0.44     -0.61
    0  -14    5      1.05     -0.92
   -1  -14    5      1.42     -1.00
   -2  -14    5      1.55     -0.78
   -3  -14    5      1.59     -0.45
   -4  -14    5      1.64     -0.37
   -5  -14    5      1.75     -0.70
   -6  -14    5      1.81     -1.14
   -7  -14    5      1.58     -1.31
   -8  -14    5      1.03     -1.06
   -9  -14    5      0.45     -0.55
    3  -15    5     -0.04     -0.16
    2  -15    5     -0.08     -0.27
    1  -15    5      0.07     -0.45
    0  -15    5      0.43     -0.63
   -1  -15    5      0.78     -0.75
   -2  -15    5      0.92     -0.73
   -3  -15    5      0.88     -0.48
   -4  -15    5      0.91     -0.20
   -5  -15    5      1.11     -0.21
   -6  -15    5      1.25     -0.53
   -7  -15    5      1.07     -0.80
   -8  -15    5      0.59     -0.74
    0  -16    5      0.00     -0.26
   -1  -16    5      0.11     -0.27
   -2  -16    5      0.26     -0.30
   -3  -16    5      0.29     -0.20
   -4  -16    5      0.35      0.05
   -5  -16    5      0.57      0.15
   -6  -16    5      0.71     -0.07
    9   17    4      0.57      0.21
    8   17    4      0.62      0.48
    7   17    4      0.59      0.83
    6   17    4      0.41      0.94
    5   17    4      0.03      0.81
    4   17    4     -0.30      0.72
    3   17    4     -0.19      0.78
    2   17    4      0.35      0.78
    1   17    4      0.76      0.52
   10   16    4      0.66      0.16
    9   16    4      1.01      0.18
    8   16    4      1.35      0.49
    7   16    4      1.47      0.99
    6   16    4      1.19      1.27
    5   16    4      0.50      1.22
    4   16    4     -0.20      1.19
    3   16    4     -0.37      1.38
    2   16    4      0.08      1.52
    1   16    4      0.57      1.25
    0   16    4      0.44      0.66
   -1   16    4     -0.16      0.19
   12   15    4      0.12      0.02
   11   15    4      0.28      0.06
   10   15    4      0.54      0.02
    9   15    4      0.99     -0.03
    8   15    4      1.62      0.27
    7   15    4      2.09      0.87
    6   15    4      1.99      1.25
    5   15    4      1.26      1.18
    4   15    4      0.28      1.03
    3   15    4     -0.35      1.15
    2   15    4     -0.35      1.42
    1   15    4     -0.10      1.42
    0   15    4     -0.21      1.08
   -1   15    4     -0.70      0.66
   -2   15    4     -0.94      0.44
   -3   15    4     -0.58      0.38
   12   14    4      0.07      0.16
   11   14    4      0.07      0.03
   10   14    4      0.23     -0.15
    9   14    4      0.65     -0.25
    8   14    4      1.40      0.08
    7   14    4      2.16      0.78
    6   14    4      2.35      1.20
    5   14    4      1.77      1.01
    4   14    4      0.73      0.61
    3   14    4     -0.27      0.52
    2   14    4     -0.85      0.75
    1   14    4     -0.97      0.99
    0   14    4     -0.97      1.09
   -1   14    4     -1.04      1.02
   -2   14    4     -0.89      0.83
   -3   14    4     -0.33      0.58
   -4   14    4      0.19      0.28
   13   13    4      0.29      0.46
   12   13    4     -0.09      0.36
   11   13    4     -0.21      0.07
   10   13    4     -0.05     -0.27
    9   13    4      0.32     -0.45
    8   13    4      1.03     -0.05
    7   13    4      1.86      0.83
    6   13    4      2.27      1.46
    5   13    4      1.93      1.33
    4   13    4      1.04      0.84
    3   13    4     -0.10      0.58
    2   13    4     -1.15      0.59
    1   13    4     -1.73      0.67
    0   13    4     -1.70      0.83
   -1   13    4     -1.31      0.99
   -2   13    4     -0.71      0.87
   -3   13    4      0.00      0.41
   -4   13    4      0.48     -0.14
   -5   13    4      0.31     -0.50
   14   12    4      0.31      0.33
   13   12    4     -0.05      0.70
   12   12    4     -0.51      0.66
   11   12    4     -0.60      0.18
   10   12    4     -0.32     -0.43
    9   12    4      0.10     -0.79
    8   12    4      0.75     -0.41
    7   12    4      1.63      0.67
    6   12    4      2.28      1.67
    5   12    4      2.28      1.86
    4   12    4      1.68      1.49
    3   12    4      0.59      1.18
    2   12    4     -0.83      1.01
   -1   12    4     -1.72      0.82
   -2   12    4     -0.85      0.78
   -3   12    4     -0.07      0.20
   -4   12    4      0.35     -0.62
   -5   12    4      0.17     -1.14
   -6   12    4     -0.38     -1.17
   14   11    4     -0.16      0.37
   13   11    4     -0.51      0.81
   12   11    4     -0.96      0.75
   11   11    4     -1.03      0.09
   10   11    4     -0.64     -0.74
    9   11    4     -0.07     -1.21
    8   11    4      0.68     -0.90
    7   11    4      1.72      0.23
    6   11    4      2.67      1.49
    5   11    4      2.98      2.02
    4   11    4      2.56      1.79
    3   11    4      1.48      1.40
    2   11    4     -0.23      1.14
    1   11    4     -2.00      0.86
   -1   11    4     -2.31      0.82
   -2   11    4     -1.23      0.92
   -3   11    4     -0.29      0.40
   -4   11    4      0.23     -0.55
   -5   11    4      0.23     -1.27
   -6   11    4     -0.21     -1.45
   -7   11    4     -0.58     -1.17
   14   10    4     -0.55      0.28
   13   10    4     -0.90      0.62
   12   10    4     -1.35      0.55
   11   10    4     -1.51     -0.10
   10   10    4     -1.11     -0.88
    9   10    4     -0.36     -1.27
    8   10    4      0.64     -0.99
    7   10    4      1.94     -0.02
    6   10    4      3.14      1.22
    5   10    4      3.64      1.95
    4   10    4      3.24      1.78
    3   10    4      2.04      1.16
    1   10    4     -2.19      0.54
    0   10    4     -3.58      0.64
   -1   10    4     -3.37      0.99
   -2   10    4     -2.07      1.24
   -3   10    4     -0.66      0.89
   -4   10    4      0.35      0.00
   -5   10    4      0.78     -0.84
   -6   10    4      0.55     -1.22
   15    9    4     -0.45      0.09
   14    9    4     -0.80      0.24
   13    9    4     -1.11      0.42
   12    9    4     -1.53      0.36
   11    9    4     -1.83     -0.12
   10    9    4     -1.64     -0.71
    9    9    4     -0.91     -0.95
    8    9    4      0.21     -0.68
    7    9    4      1.67      0.05
    6    9    4      3.09      1.04
    5    9    4      3.82      1.74
    4    9    4      3.58      1.56
    3    9    4      2.39      0.62
    2    9    4      0.25     -0.20
    1    9    4     -2.46     -0.23
    0    9    4     -4.54      0.46
   -1    9    4     -4.86      1.35
   -2    9    4     -3.55      1.84
   -3    9    4     -1.59      1.57
   -4    9    4      0.17      0.69
   -6    9    4      1.32     -0.77
   -9    9    4     -0.20     -0.51
   15    8    4     -0.48      0.20
   14    8    4     -0.82      0.32
   13    8    4     -0.98      0.32
   12    8    4     -1.26      0.16
   11    8    4     -1.74     -0.23
   10    8    4     -2.01     -0.66
    9    8    4     -1.74     -0.76
    8    8    4     -0.85     -0.38
    7    8    4      0.59      0.25
    6    8    4      2.20      0.87
    5    8    4      3.32      1.21
    4    8    4      3.49      0.85
    3    8    4      2.59     -0.30
    2    8    4      0.53     -1.39
    1    8    4     -2.41     -1.37
    0    8    4     -5.00     -0.08
   -1    8    4     -5.85      1.55
   -2    8    4     -4.72      2.45
   -3    8    4     -2.50      2.20
   -4    8    4     -0.19      1.22
   -5    8    4      1.40      0.26
   -6    8    4      1.76     -0.36
   -8    8    4      0.14     -0.88
   -9    8    4     -0.23     -0.65
  -10    8    4     -0.15     -0.23
   15    7    4     -0.40      0.18
   14    7    4     -0.63      0.33
   13    7    4     -0.60      0.18
   12    7    4     -0.72     -0.18
   11    7    4     -1.34     -0.56
   10    7    4     -2.13     -0.83
    9    7    4     -2.49     -0.77
    8    7    4     -2.09     -0.25
    7    7    4     -0.88      0.38
    6    7    4      0.78      0.69
    5    7    4      2.20      0.57
    4    7    4      2.84      0.00
    3    7    4      2.49     -1.06
    1    7    4     -1.81     -2.26
    0    7    4     -4.54     -0.95
   -1    7    4     -5.73      0.96
   -2    7    4     -4.89      2.16
   -3    7    4     -2.78      2.03
   -4    7    4     -0.40      1.05
   -5    7    4      1.44      0.13
   -6    7    4      2.07     -0.32
   -7    7    4      1.41     -0.50
   -8    7    4      0.35     -0.63
   -9    7    4     -0.22     -0.54
  -10    7    4     -0.24     -0.23
   15    6    4     -0.18     -0.08
   14    6    4     -0.34      0.08
   13    6    4     -0.24     -0.05
   12    6    4     -0.27     -0.45
   11    6    4     -0.92     -0.75
   10    6    4     -2.00     -0.86
    9    6    4     -2.90     -0.76
    8    6    4     -3.16     -0.29
    7    6    4     -2.51      0.36
    6    6    4     -1.08      0.67
    5    6    4      0.60      0.48
    4    6    4      1.91      0.03
    3    6    4      2.48     -0.64
    2    6    4      1.88     -1.51
    0    6    4     -2.91     -1.48
   -1    6    4     -4.58     -0.09
   -2    6    4     -4.36      1.08
   -3    6    4     -2.83      1.22
   -4    6    4     -0.87      0.47
   -5    6    4      0.91     -0.33
   -6    6    4      1.83     -0.58
   -7    6    4      1.50     -0.45
   -8    6    4      0.45     -0.36
   -9    6    4     -0.31     -0.27
  -10    6    4     -0.43     -0.02
  -11    6    4     -0.29      0.20
   15    5    4     -0.02     -0.55
   14    5    4     -0.21     -0.43
   13    5    4     -0.12     -0.34
   12    5    4     -0.06     -0.51
   11    5    4     -0.59     -0.64
   10    5    4     -1.71     -0.61
    9    5    4     -2.96     -0.52
    8    5    4     -3.90     -0.22
    7    5    4     -4.02      0.40
    6    5    4     -2.94      0.94
    5    5    4     -0.89      1.04
    4    5    4      1.39      0.87
    3    5    4      3.15      0.52
    2    5    4      3.68     -0.23
    1    5    4      2.38     -1.20
    0    5    4     -0.25     -1.59
   -2    5    4     -3.29      0.08
   -3    5    4     -2.68      0.62
   -4    5    4     -1.48      0.29
   -5    5    4     -0.11     -0.38
   -6    5    4      0.99     -0.64
   -7    5    4      1.12     -0.40
   -8    5    4      0.31     -0.13
   -9    5    4     -0.55     -0.01
  -10    5    4     -0.75      0.20
  -11    5    4     -0.49      0.47
   15    4    4     -0.12     -0.90
   14    4    4     -0.39     -0.86
   13    4    4     -0.27     -0.59
   12    4    4     -0.01     -0.51
   11    4    4     -0.26     -0.46
   10    4    4     -1.18     -0.28
    9    4    4     -2.43     -0.14
    8    4    4     -3.63     -0.02
    7    4    4     -4.30      0.32
    6    4    4     -3.70      0.73
    5    4    4     -1.59      0.86
    4    4    4      1.23      0.80
    3    4    4      3.58      0.66
    2    4    4      4.52      0.06
    1    4    4      3.63     -1.09
    0    4    4      1.30     -1.97
   -1    4    4     -1.13     -1.75
   -2    4    4     -2.41     -0.62
   -3    4    4     -2.46      0.42
   -4    4    4     -1.86      0.60
   -5    4    4     -0.85      0.07
   -6    4    4      0.33     -0.38
   -7    4    4      0.95     -0.28
   -9    4    4     -0.44      0.10
  -10    4    4     -0.89      0.20
  -11    4    4     -0.64      0.49
  -12    4    4     -0.21      0.62
   15    3    4     -0.31     -0.78
   14    3    4     -0.63     -0.84
   13    3    4     -0.52     -0.63
   12    3    4     -0.06     -0.52
   11    3    4      0.05     -0.42
   10    3    4     -0.49     -0.11
    9    3    4     -1.35      0.09
    8    3    4     -2.31     -0.07
    7    3    4     -3.22     -0.32
    6    3    4     -3.41     -0.51
    5    3    4     -2.12     -0.65
    4    3    4      0.26     -0.49
    3    3    4      2.28      0.00
    2    3    4      2.75      0.09
    1    3    4      1.62     -0.75
    0    3    4     -0.28     -1.76
   -1    3    4     -1.98     -1.69
   -2    3    4     -2.86     -0.45
   -3    3    4     -2.89      0.90
   -4    3    4     -2.32      1.37
   -5    3    4     -1.22      0.87
   -6    3    4      0.22      0.15
   -7    3    4      1.29     -0.08
   -8    3    4      1.21      0.04
   -9    3    4      0.20      0.04
  -10    3    4     -0.66     -0.01
  -11    3    4     -0.72      0.22
  -12    3    4     -0.30      0.52
   15    2    4     -0.28     -0.29
   14    2    4     -0.68     -0.37
   13    2    4     -0.69     -0.36
   12    2    4     -0.18     -0.49
   11    2    4      0.27     -0.50
   10    2    4      0.20     -0.15
    9    2    4     -0.20      0.10
    8    2    4     -0.79     -0.27
    7    2    4     -1.80     -1.00
    6    2    4     -2.91     -1.61
    5    2    4     -3.01     -1.86
    4    2    4     -1.68     -1.36
    3    2    4     -0.28     -0.05
    2    2    4     -0.53      1.03
    1    2    4     -2.31      0.72
    0    2    4     -4.01     -0.39
   -1    2    4     -4.51     -0.65
   -2    2    4     -4.09      0.45
   -3    2    4     -3.41      1.81
   -4    2    4     -2.50      2.25
   -5    2    4     -1.11      1.65
   -6    2    4      0.57      0.74
   -7    2    4      1.78      0.24
   -8    2    4      1.83      0.20
   -9    2    4      0.81      0.15
  -10    2    4     -0.34     -0.04
  -11    2    4     -0.73      0.00
  -12    2    4     -0.42      0.28
   15    1    4     -0.14      0.11
   14    1    4     -0.52      0.13
   13    1    4     -0.69      0.01
   12    1    4     -0.27     -0.39
   11    1    4      0.42     -0.65
   10    1    4      0.80     -0.35
    9    1    4      0.79     -0.01
    8    1    4      0.49     -0.36
    7    1    4     -0.40     -1.14
    6    1    4     -2.04     -1.73
    5    1    4     -3.44     -1.95
    4    1    4     -3.55     -1.50
    3    1    4     -3.12     -0.04
    2    1    4     -4.11      1.63
    1    1    4     -6.65      1.95
    0    1    4     -8.43      0.85
   -1    1    4     -7.71      0.09
   -2    1    4     -5.43      0.68
   -3    1    4     -3.36      1.76
   -4    1    4     -1.83      2.07
   -5    1    4     -0.17      1.51
   -6    1    4      1.54      0.78
   -7    1    4      2.48      0.46
   -8    1    4      2.26      0.52
   -9    1    4      1.23      0.55
  -10    1    4      0.09      0.32
  -11    1    4     -0.51      0.12
  -12    1    4     -0.42      0.15
  -13    1    4     -0.09      0.20
   14    0    4     -0.35      0.33
   13    0    4     -0.56      0.27
   12    0    4     -0.31     -0.22
   11    0    4      0.39     -0.67
   10    0    4      1.08     -0.45
    9    0    4      1.43     -0.03
    8    0    4      1.46     -0.27
    7    0    4      0.96     -1.00
    6    0    4     -0.52     -1.48
    5    0    4     -2.71     -1.64
    4    0    4     -4.43     -1.50
    3    0    4     -5.40     -0.42
    2    0    4     -6.95      1.51
    1    0    4     -9.64      2.72
    0    0    4    -11.36      2.16
   -1    0    4     -9.92      0.96
   -2    0    4     -6.20      0.63
   -3    0    4     -2.80      1.02
   -4    0    4     -0.59      1.09
   -5    0    4      1.31      0.65
   -6    0    4      2.99      0.30
   -7    0    4      3.59      0.38
   -8    0    4      2.94      0.64
   -9    0    4      1.80      0.73
  -10    0    4      0.76      0.56
  -11    0    4      0.04      0.30
  -12    0    4     -0.23      0.16
  -13    0    4     -0.13      0.09
   14   -1    4     -0.20      0.29
   13   -1    4     -0.35      0.40
   12   -1    4     -0.27      0.11
   11   -1    4      0.20     -0.32
   10   -1    4      0.92     -0.22
    9   -1    4      1.53      0.20
    8   -1    4      1.86      0.02
    7   -1    4      1.84     -0.75
    6   -1    4      0.97     -1.21
    5   -1    4     -1.09     -1.16
    4   -1    4     -3.55     -0.98
    3   -1    4     -5.24     -0.24
    2   -1    4     -6.37      1.61
    1   -1    4     -7.85      3.47
   -1   -1    4     -7.64      2.32
   -2   -1    4     -4.31      1.11
   -3   -1    4     -1.10      0.68
   -4   -1    4      0.96      0.47
   -5   -1    4      2.67      0.14
   -6   -1    4      4.21      0.01
   -7   -1    4      4.57      0.23
   -8   -1    4      3.56      0.45
   -9   -1    4      2.25      0.44
  -10   -1    4      1.29      0.32
  -11   -1    4      0.49      0.25
  -12   -1    4     -0.11      0.20
  -13   -1    4     -0.24      0.09
   14   -2    4     -0.17      0.17
   13   -2    4     -0.31      0.42
   12   -2    4     -0.30      0.42
   11   -2    4     -0.06      0.12
   10   -2    4      0.46      0.06
    9   -2    4      1.09      0.38
    8   -2    4      1.60      0.33
    7   -2    4      1.88     -0.30
    6   -2    4      1.72     -0.67
    5   -2    4      0.60     -0.36
    4   -2    4     -1.23      0.07
    3   -2    4     -2.45      0.46
    2   -2    4     -2.38      1.45
    1   -2    4     -1.97      2.81
   -1   -2    4     -1.47      2.15
   -2   -2    4     -0.10      0.82
   -3   -2    4      1.33      0.22
   -4   -2    4      2.22      0.14
   -5   -2    4      3.21      0.09
   -6   -2    4      4.38      0.10
   -7   -2    4      4.60      0.23
   -8   -2    4      3.51      0.24
   -9   -2    4      2.19      0.06
  -10   -2    4      1.33     -0.03
  -11   -2    4      0.56      0.15
  -12   -2    4     -0.21      0.34
  -13   -2    4     -0.44      0.25
   13   -3    4     -0.59      0.44
   12   -3    4     -0.59      0.63
   11   -3    4     -0.44      0.44
   10   -3    4     -0.14      0.23
    9   -3    4      0.38      0.36
    8   -3    4      1.00      0.48
    7   -3    4      1.59      0.18
    6   -3    4      2.05     -0.09
    5   -3    4      1.99      0.22
    4   -3    4      1.26      0.70
    3   -3    4      0.73      0.76
    2   -3    4      1.43      0.67
    1   -3    4      2.83      0.82
    0   -3    4      3.59      0.86
   -1   -3    4      3.45      0.35
   -2   -3    4      3.10     -0.27
   -3   -3    4      2.77     -0.36
   -4   -3    4      2.48      0.00
   -5   -3    4      2.75      0.35
   -6   -3    4      3.56      0.46
   -7   -3    4      3.81      0.38
   -8   -3    4      2.96      0.11
   -9   -3    4      1.87     -0.22
  -10   -3    4      1.20     -0.29
  -11   -3    4      0.50      0.05
  -12   -3    4     -0.35      0.44
  -13   -3    4     -0.65      0.43
   13   -4    4     -0.79      0.47
   12   -4    4     -0.86      0.69
   11   -4    4     -0.68      0.60
   10   -4    4     -0.43      0.33
    9   -4    4     -0.03      0.29
    8   -4    4      0.65      0.41
    7   -4    4      1.53      0.28
    6   -4    4      2.44     -0.06
    5   -4    4      3.03     -0.10
    4   -4    4      3.02      0.20
    3   -4    4      2.80      0.27
    2   -4    4      3.31     -0.13
    1   -4    4      4.51     -0.67
    0   -4    4      5.30     -0.99
   -1   -4    4      5.02     -1.02
   -2   -4    4      4.10     -0.76
   -3   -4    4      3.09     -0.20
   -4   -4    4      2.27      0.51
   -5   -4    4      2.10      1.03
   -6   -4    4      2.62      1.09
   -7   -4    4      2.93      0.66
   -8   -4    4      2.39      0.01
   -9   -4    4      1.59     -0.50
  -10   -4    4      1.10     -0.53
  -11   -4    4      0.51     -0.09
  -12   -4    4     -0.38      0.39
  -13   -4    4     -0.78      0.48
   12   -5    4     -0.77      0.47
   11   -5    4     -0.58      0.39
   10   -5    4     -0.26      0.18
    9   -5    4      0.05      0.09
    8   -5    4      0.56      0.12
    7   -5    4      1.37     -0.01
    6   -5    4      2.33     -0.40
    5   -5    4      3.09     -0.70
    4   -5    4      3.31     -0.59
    3   -5    4      3.22     -0.34
    2   -5    4      3.52     -0.47
    1   -5    4      4.33     -1.03
    0   -5    4      4.92     -1.50
   -1   -5    4      4.74     -1.34
   -3   -5    4      3.30      0.42
   -4   -5    4      2.53      1.24
   -5   -5    4      2.06      1.71
   -6   -5    4      2.18      1.65
   -7   -5    4      2.37      0.97
   -8   -5    4      2.00      0.00
   -9   -5    4      1.39     -0.63
  -10   -5    4      1.03     -0.58
  -11   -5    4      0.59     -0.09
  -12   -5    4     -0.21      0.36
  -13   -5    4     -0.73      0.45
   12   -6    4     -0.44      0.19
   11   -6    4     -0.37      0.05
   10   -6    4     -0.05     -0.08
    9   -6    4      0.23     -0.07
    8   -6    4      0.44     -0.02
    7   -6    4      0.85     -0.11
    6   -6    4      1.51     -0.36
    5   -6    4      2.11     -0.55
    4   -6    4      2.28     -0.46
    3   -6    4      2.17     -0.17
    2   -6    4      2.39     -0.09
    1   -6    4      3.12     -0.47
    0   -6    4      3.78     -0.93
   -1   -6    4      3.96     -0.83
   -2   -6    4      3.91     -0.08
   -3   -6    4      3.82      0.79
   -4   -6    4      3.38      1.40
   -5   -6    4      2.66      1.74
   -6   -6    4      2.22      1.72
   -7   -6    4      2.12      1.10
   -8   -6    4      1.85      0.09
   -9   -6    4      1.39     -0.56
  -10   -6    4      1.09     -0.46
  -11   -6    4      0.78      0.03
  -12   -6    4      0.13      0.35
  -13   -6    4     -0.43      0.35
   11   -7    4     -0.15     -0.02
   10   -7    4      0.04     -0.10
    9   -7    4      0.32      0.03
    8   -7    4      0.43      0.16
    7   -7    4      0.49      0.06
    6   -7    4      0.73     -0.14
    5   -7    4      1.06     -0.19
    4   -7    4      1.10     -0.03
    3   -7    4      0.86      0.24
    2   -7    4      0.96      0.44
    1   -7    4      1.78      0.39
    0   -7    4      2.88      0.20
   -1   -7    4      3.69      0.22
   -2   -7    4      4.30      0.52
   -3   -7    4      4.73      0.81
   -4   -7    4      4.50      0.96
   -5   -7    4      3.49      1.20
   -7   -7    4      2.06      1.12
   -8   -7    4      1.93      0.26
   -9   -7    4      1.65     -0.40
  -10   -7    4      1.33     -0.32
  -11   -7    4      0.99      0.13
  -12   -7    4      0.46      0.35
  -13   -7    4     -0.06      0.23
   11   -8    4      0.11      0.02
   10   -8    4      0.18     -0.06
    9   -8    4      0.43      0.12
    8   -8    4      0.62      0.31
    7   -8    4      0.56      0.18
    6   -8    4      0.42     -0.13
    5   -8    4      0.40     -0.27
    4   -8    4      0.34     -0.15
    3   -8    4      0.14      0.09
    2   -8    4      0.25      0.39
    1   -8    4      1.19      0.67
    0   -8    4      2.76      0.85
   -1   -8    4      4.23      0.89
   -2   -8    4      5.29      0.76
   -3   -8    4      5.85      0.46
   -4   -8    4      5.53      0.29
   -5   -8    4      4.29      0.60
   -6   -8    4      2.91      1.17
   -7   -8    4      2.23      1.21
   -8   -8    4      2.10      0.52
   -9   -8    4      1.91     -0.15
  -10   -8    4      1.52     -0.12
  -11   -8    4      1.09      0.28
  -12   -8    4      0.62      0.43
  -13   -8    4      0.23      0.24
   10   -9    4      0.35     -0.12
    9   -9    4      0.51      0.02
    8   -9    4      0.75      0.30
    7   -9    4      0.78      0.31
    6   -9    4      0.49      0.01
    5   -9    4      0.12     -0.29
    4   -9    4     -0.11     -0.42
    3   -9    4     -0.18     -0.39
    2   -9    4      0.10     -0.16
    1   -9    4      1.10      0.25
    0   -9    4      2.76      0.62
   -1   -9    4      4.52      0.69
   -2   -9    4      5.84      0.37
   -3   -9    4      6.43     -0.15
   -4   -9    4      6.10     -0.39
   -5   -9    4      4.88      0.06
   -6   -9    4      3.45      0.87
   -7   -9    4      2.52      1.18
   -8   -9    4      2.11      0.68
   -9   -9    4      1.77      0.10
  -10   -9    4      1.33      0.11
  -11   -9    4      0.89      0.44
  -12   -9    4      0.52      0.51
  -13   -9    4      0.28      0.26
    9  -10    4      0.40      0.01
    8  -10    4      0.59      0.31
    7  -10    4      0.82      0.47
    6  -10    4      0.72      0.28
    5  -10    4      0.21     -0.13
    4  -10    4     -0.34     -0.58
    3  -10    4     -0.53     -0.90
    2  -10    4     -0.15     -0.83
    1  -10    4      0.85     -0.40
    0  -10    4      2.33      0.04
   -1  -10    4      3.94      0.10
   -2  -10    4      5.28     -0.26
   -3  -10    4      6.04     -0.75
   -4  -10    4      5.95     -0.95
   -5  -10    4      5.05     -0.51
   -6  -10    4      3.81      0.35
   -7  -10    4      2.75      0.85
   -8  -10    4      1.94      0.62
   -9  -10    4      1.28      0.20
  -10  -10    4      0.79      0.18
  -11  -10    4      0.49      0.39
  -12  -10    4      0.27      0.37
    8  -11    4      0.29      0.37
    7  -11    4      0.61      0.49
    6  -11    4      0.80      0.33
    5  -11    4      0.43     -0.09
    4  -11    4     -0.37     -0.68
    3  -11    4     -0.90     -1.19
    2  -11    4     -0.60     -1.25
    1  -11    4      0.49     -0.82
    0  -11    4      1.87     -0.40
   -1  -11    4      3.14     -0.44
   -2  -11    4      4.20     -0.83
   -3  -11    4      4.98     -1.21
   -4  -11    4      5.18     -1.31
   -5  -11    4      4.70     -0.96
   -6  -11    4      3.79     -0.25
   -7  -11    4      2.81      0.31
   -8  -11    4      1.81      0.31
   -9  -11    4      0.88      0.01
  -10  -11    4      0.32     -0.08
  -11  -11    4      0.19      0.05
  -12  -11    4      0.16      0.06
    7  -12    4      0.39      0.28
    6  -12    4      0.70      0.13
    5  -12    4      0.63     -0.12
    4  -12    4     -0.03     -0.51
    3  -12    4     -0.76     -0.96
    2  -12    4     -0.73     -1.11
    1  -12    4      0.25     -0.81
    0  -12    4      1.55     -0.54
   -1  -12    4      2.51     -0.76
   -2  -12    4      3.14     -1.23
   -3  -12    4      3.71     -1.48
   -4  -12    4      4.09     -1.42
   -5  -12    4      3.95     -1.17
   -6  -12    4      3.33     -0.73
   -7  -12    4      2.52     -0.27
   -8  -12    4      1.59     -0.13
   -9  -12    4      0.63     -0.31
  -10  -12    4      0.05     -0.44
  -11  -12    4      0.02     -0.34
  -12  -12    4      0.17     -0.20
    6  -13    4      0.53     -0.03
    5  -13    4      0.70     -0.09
    4  -13    4      0.49     -0.20
    3  -13    4     -0.08     -0.46
    2  -13    4     -0.42     -0.63
    1  -13    4     -0.01     -0.46
    0  -13    4      0.88     -0.27
   -1  -13    4      1.60     -0.55
   -2  -13    4      2.03     -1.11
   -3  -13    4      2.50     -1.39
   -4  -13    4      2.99     -1.31
   -5  -13    4      3.03     -1.17
   -6  -13    4      2.51     -0.99
   -7  -13    4      1.74     -0.66
   -8  -13    4      0.99     -0.37
   -9  -13    4      0.29     -0.37
  -10  -13    4     -0.15     -0.48
  -11  -13    4     -0.13     -0.43
    5  -14    4      0.50     -0.03
    4  -14    4      0.62     -0.06
    3  -14    4      0.44     -0.20
    2  -14    4     -0.01     -0.28
    1  -14    4     -0.29     -0.06
    0  -14    4     -0.11      0.23
   -1  -14    4      0.37      0.07
   -2  -14    4      0.90     -0.57
   -3  -14    4      1.50     -1.10
   -4  -14    4      2.05     -1.23
   -5  -14    4      2.11     -1.18
   -6  -14    4      1.53     -1.08
   -7  -14    4      0.74     -0.77
   -8  -14    4      0.19     -0.35
   -9  -14    4     -0.11     -0.15
  -10  -14    4     -0.25     -0.23
    3  -15    4      0.37     -0.19
    2  -15    4      0.20     -0.20
    1  -15    4     -0.34      0.05
    0  -15    4     -0.77      0.42
   -1  -15    4     -0.69      0.41
   -2  -15    4     -0.11     -0.18
   -3  -15    4      0.67     -0.90
   -4  -15    4      1.24     -1.22
   -5  -15    4      1.29     -1.16
   -6  -15    4      0.77     -0.95
   -7  -15    4      0.06     -0.62
   -8  -15    4     -0.35     -0.21
   -9  -15    4     -0.36      0.02
    1  -16    4     -0.13     -0.03
    0  -16    4     -0.77      0.24
   -1  -16    4     -1.10      0.33
   -2  -16    4     -0.72     -0.01
   -3  -16    4      0.04     -0.60
   -4  -16    4      0.62     -0.95
   -5  -16    4      0.72     -0.86
   -6  -16    4      0.42     -0.56
   -7  -16    4     -0.04     -0.28
    8   17    3      0.20     -0.63
    7   17    3      0.23     -0.45
    6   17    3      0.17     -0.15
    5   17    3      0.25     -0.28
    4   17    3      0.37     -0.77
    3   17    3      0.30     -0.95
    2   17    3      0.13     -0.51
    1   17    3      0.10      0.06
   10   16    3     -0.30     -0.11
    9   16    3     -0.21     -0.47
    8   16    3      0.01     -0.87
    7   16    3      0.17     -0.85
    6   16    3      0.27     -0.58
    5   16    3      0.43     -0.61
    4   16    3      0.53     -1.04
    3   16    3      0.32     -1.21
    2   16    3     -0.11     -0.69
    1   16    3     -0.30      0.10
    0   16    3     -0.02      0.43
   -1   16    3      0.41      0.21
   11   15    3     -0.35     -0.04
   10   15    3     -0.32      0.04
    9   15    3     -0.29     -0.30
    8   15    3     -0.16     -0.80
    7   15    3      0.11     -0.88
    6   15    3      0.47     -0.51
    5   15    3      0.81     -0.28
    4   15    3      1.00     -0.45
    3   15    3      0.78     -0.60
    2   15    3      0.13     -0.32
    1   15    3     -0.43      0.23
    0   15    3     -0.37      0.51
   -1   15    3      0.20      0.33
   -2   15    3      0.66      0.01
   -3   15    3      0.62     -0.09
   12   14    3     -0.61     -0.17
   11   14    3     -0.55      0.14
   10   14    3     -0.45      0.37
    9   14    3     -0.49      0.05
    8   14    3     -0.47     -0.55
    7   14    3     -0.07     -0.68
    6   14    3      0.68     -0.18
    5   14    3      1.41      0.32
    4   14    3      1.87      0.38
    3   14    3      1.83      0.22
    2   14    3      1.17      0.17
    1   14    3      0.22      0.27
    0   14    3     -0.31      0.35
   -2   14    3      0.49      0.23
   -3   14    3      0.76      0.16
   -4   14    3      0.67      0.16
   13   13    3     -0.54     -0.39
   12   13    3     -0.65     -0.36
   11   13    3     -0.64      0.13
   10   13    3     -0.64      0.64
    9   13    3     -0.82      0.49
    8   13    3     -0.94     -0.16
    7   13    3     -0.48     -0.43
    6   13    3      0.57      0.05
    5   13    3      1.67      0.65
    4   13    3      2.46      0.81
    2   13    3      2.45      0.43
    1   13    3      1.45      0.23
    0   13    3      0.46      0.09
   -1   13    3      0.21      0.18
   -2   13    3      0.64      0.42
   -3   13    3      1.12      0.51
   -4   13    3      1.32      0.39
   -5   13    3      1.33      0.22
   -6   13    3      1.16      0.11
   14   12    3     -0.43     -0.50
   13   12    3     -0.57     -0.87
   12   12    3     -0.66     -0.81
   11   12    3     -0.76     -0.10
   10   12    3     -0.93      0.75
    9   12    3     -1.23      0.92
    8   12    3     -1.46      0.28
    7   12    3     -1.13     -0.26
    6   12    3     -0.10     -0.02
    5   12    3      1.15      0.62
    4   12    3      2.25      0.91
    2   12    3      3.38      0.70
    0   12    3      1.53      0.10
   -1   12    3      0.85      0.00
   -3   12    3      1.46      0.60
   -4   12    3      1.76      0.46
   -5   12    3      1.88      0.12
   -6   12    3      1.76     -0.06
   -7   12    3      1.25     -0.04
   14   11    3     -0.46     -0.77
   13   11    3     -0.68     -1.18
   12   11    3     -0.77     -1.09
   11   11    3     -0.95     -0.33
   10   11    3     -1.29      0.65
    9   11    3     -1.73      1.03
    8   11    3     -2.08      0.42
    7   11    3     -1.95     -0.45
    6   11    3     -1.11     -0.59
    5   11    3      0.20      0.03
    4   11    3      1.72      0.64
    2   11    3      4.38      0.93
    1   11    3      4.12      0.79
   -1   11    3      1.46     -0.05
   -2   11    3      1.12      0.10
   -3   11    3      1.30      0.48
   -4   11    3      1.42      0.43
   -5   11    3      1.49     -0.02
   -6   11    3      1.53     -0.31
   -7   11    3      1.24     -0.24
   14   10    3     -0.38     -0.69
   13   10    3     -0.66     -1.14
   12   10    3     -0.73     -1.17
   11   10    3     -0.98     -0.62
   10   10    3     -1.55      0.19
    9   10    3     -2.24      0.61
    8   10    3     -2.75      0.13
    7   10    3     -2.76     -0.91
    6   10    3     -2.03     -1.49
    5   10    3     -0.59     -1.04
    4   10    3      1.45     -0.08
    3   10    3      3.89      0.63
    2   10    3      5.87      0.87
    1   10    3      6.08      0.76
    0   10    3      4.38      0.30
   -1   10    3      2.27     -0.21
   -2   10    3      1.14     -0.20
   -3   10    3      0.86      0.26
   -4   10    3      0.71      0.43
   -5   10    3      0.63      0.02
   -6   10    3      0.79     -0.40
   -7   10    3      0.87     -0.38
   15    9    3      0.13     -0.07
   14    9    3     -0.29     -0.38
   13    9    3     -0.58     -0.86
   12    9    3     -0.57     -1.12
   11    9    3     -0.80     -0.87
   10    9    3     -1.57     -0.29
    9    9    3     -2.54      0.12
    8    9    3     -3.24     -0.18
    7    9    3     -3.38     -1.15
    6    9    3     -2.73     -2.01
    5    9    3     -1.13     -1.81
    4    9    3      1.45     -0.59
    3    9    3      4.78      0.61
    2    9    3      7.74      0.98
    1    9    3      8.56      0.57
    0    9    3      6.61     -0.19
   -1    9    3      3.47     -0.81
   -2    9    3      1.22     -0.81
   -3    9    3      0.34     -0.22
   -4    9    3      0.05      0.28
   -5    9    3     -0.03      0.14
   -6    9    3      0.26     -0.28
   15    8    3      0.15     -0.04
   14    8    3     -0.32     -0.07
   13    8    3     -0.63     -0.38
   12    8    3     -0.47     -0.76
   11    8    3     -0.47     -0.76
   10    8    3     -1.23     -0.39
    9    8    3     -2.46     -0.10
    8    8    3     -3.54     -0.34
    7    8    3     -4.07     -1.15
    6    8    3     -3.69     -1.95
    5    8    3     -2.00     -1.85
    4    8    3      1.17     -0.57
    3    8    3      5.42      0.96
    2    8    3      9.39      1.44
    1    8    3     10.95      0.62
    0    8    3      8.96     -0.67
   -1    8    3      4.84     -1.50
   -2    8    3      1.27     -1.42
   -3    8    3     -0.44     -0.63
   -4    8    3     -0.81      0.17
   -5    8    3     -0.65      0.31
   -6    8    3     -0.14     -0.04
   -7    8    3      0.46     -0.24
   -8    8    3      0.65     -0.10
   -9    8    3      0.32      0.03
  -10    8    3     -0.06      0.01
   15    7    3      0.14     -0.29
   13    7    3     -0.73      0.06
   12    7    3     -0.37     -0.24
   11    7    3     -0.03     -0.48
   10    7    3     -0.61     -0.35
    9    7    3     -2.07     -0.21
    8    7    3     -3.73     -0.53
    7    7    3     -5.02     -1.20
    6    7    3     -5.28     -1.76
    5    7    3     -3.81     -1.66
    4    7    3     -0.32     -0.63
    3    7    3      4.61      0.78
    2    7    3      9.45      1.39
    1    7    3     11.90      0.57
    0    7    3     10.44     -0.92
   -1    7    3      6.05     -1.86
   -2    7    3      1.61     -1.68
   -3    7    3     -0.86     -0.68
   -4    7    3     -1.41      0.32
   -5    7    3     -1.05      0.63
   -6    7    3     -0.37      0.30
   -7    7    3      0.32     -0.04
   -8    7    3      0.66      0.00
   -9    7    3      0.49      0.20
  -10    7    3      0.13      0.26
   15    6    3      0.21     -0.68
   14    6    3     -0.26     -0.41
   13    6    3     -0.56      0.05
   12    6    3     -0.11     -0.01
   11    6    3      0.44     -0.38
   10    6    3      0.08     -0.44
    9    6    3     -1.35     -0.35
    8    6    3     -3.39     -0.72
    7    6    3     -5.52     -1.47
    6    6    3     -6.91     -2.00
    5    6    3     -6.44     -1.91
    4    6    3     -3.54     -1.19
    3    6    3      1.32     -0.09
    2    6    3      6.69      0.64
    1    6    3     10.27      0.27
    0    6    3     10.14     -0.98
   -2    6    3      2.27     -2.00
   -3    6    3     -0.47     -1.02
   -4    6    3     -1.20      0.11
   -5    6    3     -0.82      0.60
   -7    6    3      0.58      0.04
   -8    6    3      0.95      0.08
   -9    6    3      0.85      0.37
  -10    6    3      0.43      0.54
  -11    6    3      0.06      0.50
   15    5    3      0.53     -0.92
   14    5    3      0.28     -1.04
   13    5    3      0.00     -0.54
   12    5    3      0.30     -0.24
   11    5    3      0.77     -0.46
   10    5    3      0.57     -0.56
    9    5    3     -0.55     -0.44
    8    5    3     -2.52     -0.83
    7    5    3     -5.26     -1.82
    6    5    3     -8.02     -2.49
    5    5    3     -9.25     -2.25
    4    5    3     -7.77     -1.34
    3    5    3     -3.60     -0.21
    2    5    3      2.12      0.66
    1    5    3      7.13      0.67
    0    5    3      8.91     -0.36
   -1    5    3      6.84     -1.68
   -2    5    3      3.04     -2.25
   -3    5    3      0.21     -1.70
   -4    5    3     -0.77     -0.60
   -5    5    3     -0.59      0.12
   -7    5    3      0.74     -0.10
   -8    5    3      1.22      0.04
   -9    5    3      1.19      0.47
  -10    5    3      0.68      0.74
  -11    5    3      0.05      0.73
   15    4    3      0.96     -0.91
   14    4    3      0.89     -1.57
   13    4    3      0.58     -1.31
   12    4    3      0.59     -0.66
   11    4    3      0.77     -0.43
   10    4    3      0.61     -0.41
    9    4    3     -0.10     -0.28
    8    4    3     -1.65     -0.59
    7    4    3     -4.49     -1.58
    6    4    3     -8.15     -2.30
    4    4    3    -10.90     -0.51
    3    4    3     -7.69      0.86
    2    4    3     -1.85      1.71
    1    4    3      4.57      1.64
    0    4    3      8.40      0.53
   -1    4    3      7.85     -1.10
   -2    4    3      4.47     -2.20
   -3    4    3      1.27     -2.13
   -4    4    3     -0.32     -1.17
   -5    4    3     -0.73     -0.26
   -6    4    3     -0.56     -0.03
   -7    4    3      0.06     -0.17
   -8    4    3      0.79      0.01
   -9    4    3      1.06      0.52
  -10    4    3      0.66      0.82
  -11    4    3     -0.05      0.72
  -12    4    3     -0.48      0.47
   15    3    3      1.11     -0.74
   14    3    3      1.14     -1.66
   13    3    3      0.80     -1.66
   12    3    3      0.57     -0.81
   11    3    3      0.49     -0.13
   10    3    3      0.32      0.07
    9    3    3      0.02      0.17
    8    3    3     -0.76      0.02
    7    3    3     -2.86     -0.70
    6    3    3     -6.33     -1.39
    5    3    3     -9.69     -1.12
    4    3    3    -11.12      0.08
    3    3    3     -9.52      1.42
    2    3    3     -4.63      2.19
    0    3    3      7.60      0.63
   -1    3    3      8.61     -1.16
   -2    3    3      5.82     -2.39
   -3    3    3      2.36     -2.45
   -5    3    3     -0.92     -0.39
   -6    3    3     -1.39      0.09
   -7    3    3     -1.04      0.01
   -8    3    3     -0.02      0.08
  -10    3    3      0.68      0.74
  -11    3    3     -0.02      0.45
  -12    3    3     -0.53      0.08
   15    2    3      0.93     -0.50
   14    2    3      1.00     -1.24
   13    2    3      0.64     -1.31
   12    2    3      0.24     -0.46
   11    2    3     -0.02      0.40
   10    2    3     -0.16      0.68
    9    2    3      0.00      0.69
    8    2    3      0.23      0.57
    7    2    3     -0.49      0.08
    6    2    3     -2.76     -0.59
    5    2    3     -5.85     -0.75
    4    2    3     -8.30     -0.05
    3    2    3     -8.77      1.20
    2    2    3     -6.09      2.32
    1    2    3     -0.50      2.42
    0    2    3      5.10      1.11
   -1    2    3      7.13     -0.85
   -2    2    3      5.17     -2.15
   -3    2    3      2.00     -2.16
   -4    2    3     -0.16     -1.19
   -5    2    3     -1.35     -0.04
   -6    2    3     -2.01      0.53
   -7    2    3     -1.76      0.39
   -8    2    3     -0.53      0.16
   -9    2    3      0.73      0.30
  -10    2    3      1.00      0.43
  -11    2    3      0.37      0.11
  -12    2    3     -0.29     -0.32
  -13    2    3     -0.35     -0.35
   15    1    3      0.63     -0.26
   14    1    3      0.67     -0.56
   13    1    3      0.24     -0.43
   12    1    3     -0.31      0.36
   11    1    3     -0.70      1.12
   10    1    3     -0.74      1.30
    9    1    3     -0.14      1.15
    8    1    3      0.97      0.96
    7    1    3      1.63      0.60
    6    1    3      0.97      0.08
    5    1    3     -0.91     -0.20
    4    1    3     -3.27      0.14
    3    1    3     -5.08      1.23
    2    1    3     -4.85      2.69
    1    1    3     -1.84      3.38
    0    1    3      2.09      2.40
   -1    1    3      3.75      0.40
   -2    1    3      2.29     -0.97
   -3    1    3     -0.17     -0.91
   -4    1    3     -1.65      0.00
   -5    1    3     -2.24      0.88
   -6    1    3     -2.46      1.20
   -7    1    3     -2.01      0.85
   -8    1    3     -0.67      0.28
   -9    1    3      0.77      0.07
  -10    1    3      1.33      0.14
  -11    1    3      0.92     -0.01
  -12    1    3      0.27     -0.34
  -13    1    3      0.03     -0.39
   14    0    3      0.18     -0.01
   13    0    3     -0.29      0.44
   12    0    3     -0.87      1.23
   11    0    3     -1.26      1.75
   10    0    3     -1.17      1.67
    9    0    3     -0.26      1.35
    8    0    3      1.37      1.17
    7    0    3      2.92      0.99
    6    0    3      3.62      0.71
    5    0    3      3.24      0.50
    4    0    3      1.77      0.49
    3    0    3     -0.54      0.90
    2    0    3     -2.48      1.86
    1    0    3     -2.67      2.71
   -1    0    3     -1.32      0.96
   -2    0    3     -2.47     -0.01
   -3    0    3     -3.65      0.28
   -4    0    3     -3.77      1.12
   -5    0    3     -3.24      1.58
   -6    0    3     -2.65      1.47
   -7    0    3     -1.74      0.97
   -8    0    3     -0.39      0.35
   -9    0    3      0.89      0.01
  -10    0    3      1.53      0.06
  -11    0    3      1.46      0.14
  -12    0    3      1.02      0.00
   14   -1    3     -0.33      0.22
   13   -1    3     -0.76      0.81
   11   -1    3     -1.52      1.90
   10   -1    3     -1.34      1.57
    9   -1    3     -0.31      1.12
    8   -1    3      1.51      1.00
    7   -1    3      3.43      1.00
    6   -1    3      4.79      0.82
    5   -1    3      5.27      0.53
    4   -1    3      4.37      0.18
    3   -1    3      1.62     -0.11
    2   -1    3     -2.11      0.07
    1   -1    3     -4.99      0.76
    0   -1    3     -6.34      1.21
   -1   -1    3     -7.04      0.99
   -2   -1    3     -7.48      0.80
   -3   -1    3     -6.95      1.25
   -4   -1    3     -5.38      1.80
   -5   -1    3     -3.68      1.71
   -6   -1    3     -2.29      1.11
   -7   -1    3     -0.85      0.50
   -8   -1    3      0.60      0.05
   -9   -1    3      1.57     -0.17
  -10   -1    3      1.97     -0.09
  -11   -1    3      2.05      0.14
  -12   -1    3      1.80      0.28
  -13   -1    3      1.19      0.27
   14   -2    3     -0.45      0.14
   13   -2    3     -0.80      0.56
   12   -2    3     -1.12      1.17
   11   -2    3     -1.31      1.45
   10   -2    3     -1.19      1.10
    9   -2    3     -0.35      0.57
    8   -2    3      1.32      0.43
    7   -2    3      3.17      0.53
    6   -2    3      4.51      0.39
    5   -2    3      5.03      0.02
    4   -2    3      4.26     -0.34
    3   -2    3      1.51     -0.60
    2   -2    3     -2.62     -0.60
    0   -2    3     -8.22      0.69
   -1   -2    3     -8.93      1.29
   -2   -2    3     -8.69      1.71
   -3   -2    3     -7.18      2.12
   -4   -2    3     -4.83      2.19
   -5   -2    3     -2.82      1.58
   -6   -2    3     -1.36      0.57
   -7   -2    3      0.20     -0.22
   -8   -2    3      1.71     -0.56
   -9   -2    3      2.43     -0.59
  -10   -2    3      2.47     -0.43
  -11   -2    3      2.48     -0.10
  -12   -2    3      2.31      0.30
  -13   -2    3      1.56      0.56
  -14   -2    3      0.61      0.46
   13   -3    3     -0.40      0.00
   12   -3    3     -0.64      0.29
   11   -3    3     -0.79      0.57
   10   -3    3     -0.83      0.43
    9   -3    3     -0.44     -0.04
    8   -3    3      0.68     -0.24
    7   -3    3      2.09     -0.02
    6   -3    3      3.04      0.15
    5   -3    3      3.27      0.03
    4   -3    3      2.67     -0.13
    3   -3    3      0.84     -0.09
    2   -3    3     -1.96      0.03
    0   -3    3     -5.46      0.34
   -1   -3    3     -5.63      0.76
   -2   -3    3     -5.22      1.33
   -3   -3    3     -3.93      1.78
   -4   -3    3     -2.14      1.71
   -5   -3    3     -0.94      1.01
   -6   -3    3     -0.35      0.05
   -7   -3    3      0.62     -0.67
   -8   -3    3      1.95     -0.93
   -9   -3    3      2.61     -0.81
  -10   -3    3      2.52     -0.49
  -11   -3    3      2.49     -0.10
  -12   -3    3      2.45      0.35
  -13   -3    3      1.73      0.74
  -14   -3    3      0.62      0.75
   13   -4    3      0.01     -0.31
   12   -4    3     -0.23     -0.35
   11   -4    3     -0.44     -0.15
   10   -4    3     -0.68     -0.03
    9   -4    3     -0.75     -0.26
    8   -4    3     -0.25     -0.47
    7   -4    3      0.66     -0.15
    6   -4    3      1.31      0.49
    5   -4    3      1.38      0.83
    4   -4    3      1.06      0.80
    3   -4    3      0.34      0.82
    2   -4    3     -0.71      0.91
    1   -4    3     -1.47      0.65
    0   -4    3     -1.46      0.01
   -1   -4    3     -1.12     -0.42
   -2   -4    3     -0.78     -0.20
   -3   -4    3     -0.12      0.29
   -4   -4    3      0.71      0.39
   -5   -4    3      0.86      0.03
   -6   -4    3      0.39     -0.41
   -7   -4    3      0.50     -0.71
   -8   -4    3      1.44     -0.81
   -9   -4    3      2.12     -0.62
  -10   -4    3      2.14     -0.21
  -11   -4    3      2.16      0.17
  -12   -4    3      2.26      0.47
  -13   -4    3      1.72      0.75
  -14   -4    3      0.66      0.81
   12   -5    3      0.03     -0.40
   11   -5    3     -0.34     -0.35
   10   -5    3     -0.78     -0.05
    9   -5    3     -1.15      0.05
    8   -5    3     -1.04     -0.13
    7   -5    3     -0.37      0.02
    6   -5    3      0.30      0.71
    5   -5    3      0.54      1.31
    4   -5    3      0.52      1.30
    3   -5    3      0.53      1.08
    2   -5    3      0.59      1.12
    1   -5    3      0.87      0.99
    0   -5    3      1.46      0.12
   -1   -5    3      1.99     -0.99
   -2   -5    3      2.18     -1.42
   -3   -5    3      2.31     -1.12
   -4   -5    3      2.46     -0.84
   -5   -5    3      2.02     -0.81
   -6   -5    3      1.03     -0.72
   -7   -5    3      0.55     -0.52
   -8   -5    3      1.03     -0.43
   -9   -5    3      1.58     -0.33
  -10   -5    3      1.62      0.01
  -11   -5    3      1.63      0.37
  -12   -5    3      1.78      0.52
  -13   -5    3      1.46      0.58
  -14   -5    3      0.63      0.60
   12   -6    3      0.24     -0.30
   11   -6    3     -0.20     -0.37
   10   -6    3     -0.85     -0.03
    9   -6    3     -1.42      0.36
    8   -6    3     -1.50      0.36
    7   -6    3     -0.95      0.24
    6   -6    3     -0.17      0.53
    5   -6    3      0.38      1.00
    4   -6    3      0.71      1.00
    3   -6    3      1.11      0.64
    2   -6    3      1.65      0.55
    1   -6    3      2.31      0.61
    0   -6    3      3.03      0.01
   -1   -6    3      3.52     -1.24
   -2   -6    3      3.53     -2.11
   -3   -6    3      3.29     -2.05
   -4   -6    3      3.05     -1.61
   -5   -6    3      2.52     -1.28
   -6   -6    3      1.61     -0.89
   -7   -6    3      0.99     -0.40
   -8   -6    3      1.07     -0.14
   -9   -6    3      1.30     -0.10
  -10   -6    3      1.20      0.09
  -11   -6    3      1.10      0.40
  -12   -6    3      1.22      0.49
  -13   -6    3      1.08      0.39
  -14   -6    3      0.52      0.32
   11   -7    3      0.01     -0.44
   10   -7    3     -0.73     -0.19
    9   -7    3     -1.47      0.38
    8   -7    3     -1.69      0.70
    7   -7    3     -1.23      0.59
    6   -7    3     -0.42      0.50
    5   -7    3      0.32      0.70
    4   -7    3      0.88      0.76
    3   -7    3      1.37      0.46
    2   -7    3      1.80      0.18
    1   -7    3      2.21      0.08
    0   -7    3      2.66     -0.36
   -1   -7    3      3.07     -1.39
   -2   -7    3      3.17     -2.28
   -3   -7    3      2.97     -2.38
   -4   -7    3      2.71     -1.98
   -5   -7    3      2.39     -1.62
   -6   -7    3      1.86     -1.21
   -7   -7    3      1.38     -0.60
   -8   -7    3      1.21     -0.12
   -9   -7    3      1.15      0.02
  -10   -7    3      0.96      0.09
  -11   -7    3      0.84      0.25
  -12   -7    3      0.89      0.26
  -13   -7    3      0.80      0.12
  -14   -7    3      0.41      0.03
   11   -8    3      0.16     -0.40
   10   -8    3     -0.47     -0.26
    9   -8    3     -1.27      0.28
    8   -8    3     -1.59      0.80
    7   -8    3     -1.17      0.86
    6   -8    3     -0.36      0.61
    5   -8    3      0.40      0.50
    4   -8    3      0.96      0.59
    3   -8    3      1.27      0.57
    2   -8    3      1.25      0.38
    1   -8    3      1.00      0.15
    0   -8    3      0.92     -0.24
   -1   -8    3      1.23     -0.93
   -2   -8    3      1.68     -1.63
   -3   -8    3      1.91     -1.94
   -4   -8    3      1.91     -1.96
   -5   -8    3      1.81     -1.91
   -6   -8    3      1.62     -1.66
   -7   -8    3      1.37     -1.01
   -8   -8    3      1.14     -0.30
   -9   -8    3      0.99      0.03
  -10   -8    3      0.89      0.05
  -11   -8    3      0.88     -0.01
  -12   -8    3      0.89     -0.11
  -13   -8    3      0.71     -0.21
   10   -9    3     -0.12     -0.22
    9   -9    3     -0.75      0.13
    8   -9    3     -1.10      0.57
    7   -9    3     -0.82      0.72
    6   -9    3     -0.15      0.48
    5   -9    3      0.50      0.21
    4   -9    3      0.93      0.24
    3   -9    3      1.04      0.49
    2   -9    3      0.71      0.63
    1   -9    3      0.03      0.53
    0   -9    3     -0.46      0.23
   -1   -9    3     -0.30     -0.20
   -2   -9    3      0.38     -0.68
   -3   -9    3      0.98     -1.16
   -4   -9    3      1.21     -1.66
   -5   -9    3      1.23     -2.06
   -6   -9    3      1.25     -2.00
   -7   -9    3      1.22     -1.35
   -8   -9    3      1.08     -0.51
   -9   -9    3      0.92     -0.01
  -10   -9    3      0.93      0.05
  -11   -9    3      1.08     -0.09
  -12   -9    3      1.10     -0.25
  -13   -9    3      0.81     -0.31
    9  -10    3     -0.07     -0.07
    8  -10    3     -0.30      0.18
    7  -10    3     -0.24      0.33
    6  -10    3      0.12      0.28
    5  -10    3      0.55      0.14
    4  -10    3      0.84      0.18
    3  -10    3      0.83      0.45
    2  -10    3      0.39      0.73
    1  -10    3     -0.39      0.77
    0  -10    3     -1.01      0.54
   -1  -10    3     -0.99      0.19
   -2  -10    3     -0.35     -0.18
   -3  -10    3      0.37     -0.69
   -4  -10    3      0.77     -1.42
   -5  -10    3      0.91     -2.10
   -6  -10    3      1.05     -2.23
   -7  -10    3      1.19     -1.64
   -8  -10    3      1.14     -0.73
   -9  -10    3      0.95     -0.07
  -10  -10    3      0.92      0.18
  -11  -10    3      1.12      0.14
  -12  -10    3      1.19      0.00
  -13  -10    3      0.89     -0.08
    8  -11    3      0.37     -0.06
    7  -11    3      0.30      0.04
    6  -11    3      0.32      0.08
    5  -11    3      0.53      0.10
    4  -11    3      0.78      0.19
    3  -11    3      0.71      0.37
    2  -11    3      0.08      0.58
    1  -11    3     -0.86      0.70
    0  -11    3     -1.51      0.63
   -1  -11    3     -1.50      0.37
   -2  -11    3     -0.93     -0.04
   -3  -11    3     -0.22     -0.60
   -4  -11    3      0.28     -1.34
   -5  -11    3      0.54     -2.04
   -6  -11    3      0.75     -2.26
   -7  -11    3      0.96     -1.76
   -8  -11    3      1.02     -0.83
   -9  -11    3      0.89     -0.01
  -10  -11    3      0.79      0.41
  -11  -11    3      0.87      0.46
  -12  -11    3      0.92      0.32
    7  -12    3      0.45     -0.09
    6  -12    3      0.17     -0.23
    5  -12    3      0.13     -0.34
    4  -12    3      0.43     -0.27
    3  -12    3      0.52     -0.10
    2  -12    3     -0.18      0.08
    1  -12    3     -1.35      0.31
    0  -12    3     -2.12      0.53
   -1  -12    3     -2.05      0.49
   -2  -12    3     -1.47      0.04
   -3  -12    3     -0.88     -0.63
   -4  -12    3     -0.45     -1.24
   -5  -12    3     -0.14     -1.65
   -6  -12    3      0.12     -1.75
   -7  -12    3      0.37     -1.40
   -8  -12    3      0.60     -0.66
   -9  -12    3      0.69      0.10
  -10  -12    3      0.62      0.51
  -11  -12    3      0.53      0.53
  -12  -12    3      0.47      0.34
    6  -13    3     -0.22     -0.51
    5  -13    3     -0.54     -0.87
    4  -13    3     -0.21     -0.92
    3  -13    3      0.29     -0.69
    2  -13    3     -0.02     -0.48
    1  -13    3     -1.22     -0.25
    0  -13    3     -2.30      0.15
   -1  -13    3     -2.46      0.42
   -2  -13    3     -2.02      0.14
   -3  -13    3     -1.60     -0.50
   -4  -13    3     -1.29     -0.88
   -5  -13    3     -0.93     -0.82
   -6  -13    3     -0.55     -0.65
   -7  -13    3     -0.25     -0.53
   -8  -13    3      0.04     -0.29
   -9  -13    3      0.32      0.11
  -10  -13    3      0.40      0.40
  -11  -13    3      0.25      0.37
    5  -14    3     -0.91     -0.91
    4  -14    3     -0.67     -1.08
    3  -14    3      0.16     -0.88
    2  -14    3      0.45     -0.70
    1  -14    3     -0.47     -0.59
    0  -14    3     -1.87     -0.20
   -1  -14    3     -2.64      0.37
   -2  -14    3     -2.61      0.51
   -3  -14    3     -2.33      0.11
   -4  -14    3     -2.00     -0.10
   -5  -14    3     -1.48      0.23
   -6  -14    3     -0.92      0.60
   -7  -14    3     -0.58      0.50
   -8  -14    3     -0.39      0.20
   -9  -14    3     -0.11      0.15
  -10  -14    3      0.12      0.30
  -11  -14    3      0.08      0.29
    3  -15    3      0.09     -0.62
    2  -15    3      0.73     -0.47
    1  -15    3      0.31     -0.45
    0  -15    3     -1.06     -0.18
   -1  -15    3     -2.34      0.51
   -2  -15    3     -2.84      1.02
   -3  -15    3     -2.74      0.90
   -4  -15    3     -2.34      0.66
   -5  -15    3     -1.72      0.89
   -6  -15    3     -1.07      1.27
   -7  -15    3     -0.69      1.14
   -8  -15    3     -0.56      0.59
   -9  -15    3     -0.35      0.23
    1  -16    3      0.54     -0.07
    0  -16    3     -0.34      0.02
   -1  -16    3     -1.60      0.49
   -2  -16    3     -2.44      1.03
   -3  -16    3     -2.57      1.10
   -4  -16    3     -2.22      0.84
   -5  -16    3     -1.66      0.85
   -6  -16    3     -1.09      1.12
   -7  -16    3     -0.67      1.10
   -8  -16    3     -0.46      0.65
   -2  -17    3     -1.53      0.52
   -3  -17    3     -1.77      0.67
   -4  -17    3     -1.54      0.53
   -5  -17    3     -1.15      0.43
    8   17    2     -0.11      0.56
    7   17    2     -0.11      0.28
    6   17    2      0.10     -0.13
    5   17    2      0.51     -0.27
    4   17    2      0.86     -0.07
    3   17    2      0.81      0.15
    2   17    2      0.37      0.06
    1   17    2      0.00     -0.15
   10   16    2     -0.09      0.13
    9   16    2     -0.21      0.49
    8   16    2     -0.39      0.71
    7   16    2     -0.36      0.50
    6   16    2      0.04     -0.01
    5   16    2      0.73     -0.35
    4   16    2      1.40     -0.31
    3   16    2      1.59     -0.23
    2   16    2      1.08     -0.46
    1   16    2      0.26     -0.75
    0   16    2     -0.17     -0.53
   -1   16    2      0.02      0.17
   -2   16    2      0.42      0.72
   11   15    2     -0.39     -0.05
   10   15    2     -0.35      0.10
    9   15    2     -0.39      0.49
    8   15    2     -0.59      0.81
    7   15    2     -0.65      0.68
    6   15    2     -0.26      0.16
    5   15    2      0.56     -0.33
    4   15    2      1.48     -0.48
    3   15    2      2.01     -0.50
    2   15    2      1.79     -0.77
    1   15    2      0.94     -1.13
    0   15    2      0.15     -0.98
   -1   15    2     -0.01     -0.16
   -2   15    2      0.39      0.66
   -3   15    2      0.74      0.80
   12   14    2     -0.43     -0.03
   11   14    2     -0.55     -0.07
   10   14    2     -0.39      0.09
    9   14    2     -0.25      0.51
    8   14    2     -0.42      0.81
    7   14    2     -0.70      0.68
    6   14    2     -0.63      0.25
    5   14    2      0.03     -0.09
    4   14    2      1.00     -0.16
    3   14    2      1.79     -0.15
    2   14    2      1.97     -0.40
    1   14    2      1.45     -0.91
    0   14    2      0.63     -1.15
   -2   14    2      0.03      0.13
   -3   14    2      0.23      0.48
   -4   14    2      0.31      0.25
   -5   14    2      0.21      0.00
   13   13    2     -0.46      0.02
   12   13    2     -0.70      0.02
   11   13    2     -0.63     -0.10
   10   13    2     -0.26      0.00
    9   13    2      0.04      0.39
    8   13    2     -0.10      0.59
    7   13    2     -0.62      0.31
    6   13    2     -0.94     -0.06
    5   13    2     -0.57     -0.08
    4   13    2      0.35      0.14
    3   13    2      1.28      0.24
    2   13    2      1.74     -0.02
    1   13    2      1.58     -0.60
    0   13    2      0.94     -1.11
   -1   13    2      0.14     -1.04
   -2   13    2     -0.48     -0.42
   -3   13    2     -0.79      0.09
   -4   13    2     -0.79      0.07
   -5   13    2     -0.54     -0.10
   -6   13    2     -0.18     -0.03
   13   12    2     -0.65      0.07
   12   12    2     -0.80      0.04
   11   12    2     -0.52     -0.20
   10   12    2     -0.04     -0.22
    9   12    2      0.26      0.18
    8   12    2      0.08      0.38
    7   12    2     -0.59     -0.08
    6   12    2     -1.21     -0.63
    5   12    2     -1.21     -0.58
    4   12    2     -0.47     -0.18
    3   12    2      0.49     -0.06
    2   12    2      1.16     -0.36
    0   12    2      0.97     -1.20
   -1   12    2      0.30     -1.19
   -2   12    2     -0.53     -0.70
   -3   12    2     -1.25     -0.10
   -4   12    2     -1.50      0.11
   -5   12    2     -1.13      0.03
   -6   12    2     -0.36      0.06
   -7   12    2      0.23      0.21
   14   11    2     -0.08     -0.04
   13   11    2     -0.48      0.01
   12   11    2     -0.61      0.01
   11   11    2     -0.29     -0.19
   10   11    2      0.17     -0.19
    9   11    2      0.39      0.28
    8   11    2      0.10      0.59
    7   11    2     -0.69      0.05
    6   11    2     -1.63     -0.82
    5   11    2     -2.13     -1.04
    3   11    2     -0.92     -0.53
    2   11    2      0.04     -0.84
    1   11    2      0.64     -1.17
    0   11    2      0.74     -1.25
   -1   11    2      0.41     -1.13
   -2   11    2     -0.21     -0.75
   -3   11    2     -0.91     -0.18
   -4   11    2     -1.34      0.25
   -5   11    2     -1.11      0.38
   -6   11    2     -0.31      0.42
   -7   11    2      0.43      0.46
   14   10    2      0.15     -0.18
   13   10    2     -0.10     -0.06
   12   10    2     -0.21      0.10
   11   10    2      0.04      0.08
   10   10    2      0.41      0.15
    9   10    2      0.48      0.62
    8   10    2      0.00      0.97
    7   10    2     -1.07      0.47
    6   10    2     -2.43     -0.62
    5   10    2     -3.50     -1.23
    4   10    2     -3.73     -1.04
    3   10    2     -3.00     -0.75
    2   10    2     -1.68     -0.81
    1   10    2     -0.38     -0.94
    0   10    2      0.37     -0.85
   -1   10    2      0.46     -0.67
   -2   10    2      0.10     -0.48
   -3   10    2     -0.44     -0.09
   -4   10    2     -0.91      0.46
   -5   10    2     -0.95      0.87
   -6   10    2     -0.42      0.99
   -7   10    2      0.24      0.86
   14    9    2      0.46     -0.43
   13    9    2      0.40     -0.17
   12    9    2      0.31      0.09
   11    9    2      0.41      0.13
   10    9    2      0.61      0.20
    9    9    2      0.53      0.60
    8    9    2     -0.19      0.94
    7    9    2     -1.66      0.52
    6    9    2     -3.59     -0.59
    5    9    2     -5.28     -1.48
    4    9    2     -6.10     -1.51
    3    9    2     -5.72     -0.99
    2    9    2     -4.22     -0.50
    1    9    2     -2.11     -0.21
    0    9    2     -0.27     -0.06
   -1    9    2      0.64     -0.05
   -2    9    2      0.64     -0.10
   -3    9    2      0.15      0.07
   -4    9    2     -0.43      0.63
   -5    9    2     -0.78      1.28
   -6    9    2     -0.68      1.56
   15    8    2      0.65     -0.79
   14    8    2      0.98     -0.91
   13    8    2      0.97     -0.54
   12    8    2      0.71     -0.20
   11    8    2      0.55     -0.21
   10    8    2      0.62     -0.17
    9    8    2      0.64      0.26
    8    8    2     -0.04      0.60
    7    8    2     -1.84      0.20
    6    8    2     -4.45     -0.85
    5    8    2     -6.97     -1.75
    4    8    2     -8.56     -1.83
    3    8    2     -8.79     -1.07
    2    8    2     -7.43      0.01
    1    8    2     -4.67      0.72
    0    8    2     -1.49      0.71
   -1    8    2      0.79      0.19
   -2    8    2      1.51     -0.33
   -3    8    2      1.02     -0.35
   -4    8    2      0.10      0.24
   -5    8    2     -0.58      1.13
   -6    8    2     -0.79      1.69
   -7    8    2     -0.68      1.50
   -8    8    2     -0.59      0.82
   -9    8    2     -0.65      0.26
  -10    8    2     -0.65      0.07
   15    7    2      1.22     -1.17
   14    7    2      1.67     -1.53
   13    7    2      1.51     -1.08
   12    7    2      0.87     -0.53
   11    7    2      0.35     -0.45
   10    7    2      0.45     -0.40
    9    7    2      0.91      0.05
    8    7    2      0.67      0.37
    7    7    2     -1.20     -0.13
    6    7    2     -4.46     -1.11
    5    7    2     -7.92     -1.72
    4    7    2    -10.44     -1.51
    3    7    2    -11.44     -0.57
    2    7    2    -10.50      0.69
    1    7    2     -7.50      1.50
    0    7    2     -3.32      1.17
   -1    7    2      0.30     -0.02
   -2    7    2      1.97     -1.05
   -3    7    2      1.60     -1.20
   -4    7    2      0.25     -0.51
   -5    7    2     -0.83      0.53
   -6    7    2     -1.13      1.30
   -7    7    2     -0.99      1.31
   -8    7    2     -0.92      0.67
   -9    7    2     -0.96      0.08
  -10    7    2     -0.88      0.01
  -11    7    2     -0.61      0.18
   15    6    2      1.54     -1.23
   13    6    2      1.81     -1.49
   12    6    2      0.81     -0.64
   11    6    2     -0.01     -0.27
   10    6    2      0.20     -0.22
    9    6    2      1.23      0.16
    8    6    2      1.64      0.47
    7    6    2      0.08     -0.06
    6    6    2     -3.41     -1.03
    5    6    2     -7.62     -1.42
    4    6    2    -11.35     -0.98
    3    6    2    -13.74     -0.14
    2    6    2    -13.83      0.75
    1    6    2    -11.03      1.25
    0    6    2     -6.17      0.78
   -1    6    2     -1.33     -0.54
   -2    6    2      1.52     -1.63
   -3    6    2      1.76     -1.67
   -4    6    2      0.31     -0.84
   -5    6    2     -1.18      0.18
   -6    6    2     -1.64      0.88
   -7    6    2     -1.36      0.91
   -8    6    2     -1.14      0.35
   -9    6    2     -1.10     -0.22
  -10    6    2     -0.90     -0.24
  -11    6    2     -0.51      0.12
   15    5    2      1.20     -0.72
   14    5    2      1.85     -1.52
   13    5    2      1.73     -1.45
   12    5    2      0.73     -0.61
   11    5    2     -0.21     -0.01
   10    5    2      0.08      0.13
    9    5    2      1.53      0.43
    8    5    2      2.64      0.80
    7    5    2      1.80      0.40
    6    5    2     -1.29     -0.68
    5    5    2     -5.97     -1.33
    4    5    2    -11.54     -1.08
    3    5    2    -16.79     -0.48
    2    5    2    -19.39     -0.06
    1    5    2    -17.40      0.05
    0    5    2    -11.57     -0.38
   -1    5    2     -4.94     -1.31
   -2    5    2     -0.25     -2.01
   -3    5    2      1.47     -1.78
   -4    5    2      0.79     -0.84
   -5    5    2     -0.71      0.09
   -6    5    2     -1.48      0.59
   -7    5    2     -1.23      0.54
   -8    5    2     -0.86      0.04
   -9    5    2     -0.78     -0.48
  -10    5    2     -0.60     -0.51
  -11    5    2     -0.20     -0.11
  -12    5    2      0.02      0.19
   15    4    2      0.55      0.19
   14    4    2      1.21     -0.52
   13    4    2      1.42     -1.00
   12    4    2      0.75     -0.70
   11    4    2     -0.10     -0.10
   10    4    2      0.13      0.24
    9    4    2      1.70      0.58
    8    4    2      3.26      1.02
    7    4    2      3.22      0.83
    6    4    2      0.92     -0.26
    5    4    2     -3.82     -1.25
    4    4    2    -11.31     -1.25
    2    4    2    -26.96     -0.08
    1    4    2    -26.69     -0.11
    0    4    2    -19.67     -0.62
   -1    4    2    -10.39     -1.35
   -2    4    2     -3.21     -1.74
   -3    4    2      0.50     -1.41
   -4    4    2      1.29     -0.57
   -5    4    2      0.43      0.19
   -6    4    2     -0.50      0.53
   -7    4    2     -0.57      0.41
   -8    4    2     -0.23     -0.02
   -9    4    2     -0.14     -0.44
  -10    4    2     -0.11     -0.46
  -11    4    2      0.11     -0.14
  -12    4    2      0.20      0.15
   15    3    2      0.06      0.92
   14    3    2      0.55      0.53
   13    3    2      0.96     -0.37
   12    3    2      0.70     -0.82
   11    3    2      0.08     -0.51
   10    3    2      0.19      0.06
    9    3    2      1.44      0.61
    8    3    2      2.91      1.12
    7    3    2      3.30      1.22
    6    3    2      1.90      0.51
    5    3    2     -2.10     -0.45
    4    3    2    -10.22     -0.61
    3    3    2    -22.15      0.18
    2    3    2    -32.79      1.03
    1    3    2    -35.18      1.13
    0    3    2    -27.64      0.45
   -1    3    2    -15.64     -0.39
   -2    3    2     -5.74     -0.76
   -3    3    2     -0.19     -0.49
   -4    3    2      1.95      0.06
   -5    3    2      1.90      0.51
   -6    3    2      0.86      0.71
   -7    3    2      0.13      0.63
   -8    3    2      0.06      0.31
   -9    3    2      0.11      0.02
  -10    3    2      0.13      0.01
  -11    3    2      0.25      0.18
  -12    3    2      0.26      0.25
  -13    3    2     -0.03      0.17
   15    2    2     -0.20      1.05
   14    2    2      0.02      1.04
   13    2    2      0.45      0.15
   12    2    2      0.51     -0.79
   11    2    2      0.17     -0.88
   10    2    2      0.11     -0.25
    9    2    2      0.76      0.51
    8    2    2      1.68      1.15
    7    2    2      2.10      1.52
    6    2    2      1.53      1.31
    5    2    2     -1.09      0.59
    4    2    2     -8.13      0.10
    3    2    2    -20.51      0.45
    2    2    2    -33.62      1.30
    1    2    2    -38.94      1.70
   -1    2    2    -18.90      0.44
   -2    2    2     -6.75      0.04
   -3    2    2      0.29      0.16
   -4    2    2      3.22      0.39
   -5    2    2      3.61      0.50
   -6    2    2      2.40      0.64
   -7    2    2      0.85      0.76
   -8    2    2      0.02      0.69
   -9    2    2     -0.10      0.51
  -10    2    2      0.05      0.46
  -11    2    2      0.24      0.46
  -12    2    2      0.22      0.28
  -13    2    2     -0.12      0.02
   14    1    2     -0.20      0.83
   13    1    2      0.17      0.26
   12    1    2      0.32     -0.64
   11    1    2      0.04     -1.00
   10    1    2     -0.29     -0.55
    9    1    2     -0.30      0.24
    8    1    2     -0.05      0.94
    7    1    2      0.22      1.43
    6    1    2      0.28      1.52
    5    1    2     -0.83      1.02
    4    1    2     -5.50      0.30
    3    1    2    -15.46      0.12
    2    1    2    -27.69      0.76
    0    1    2    -30.08      1.84
   -1    1    2    -17.68      1.39
   -2    1    2     -5.33      0.89
   -3    1    2      1.99      0.67
   -4    1    2      4.78      0.50
   -5    1    2      4.98      0.27
   -6    1    2      3.53      0.28
   -7    1    2      1.43      0.55
   -8    1    2     -0.01      0.69
   -9    1    2     -0.38      0.56
  -10    1    2     -0.16      0.39
  -11    1    2      0.14      0.26
  -12    1    2      0.15      0.02
  -13    1    2     -0.21     -0.24
   14    0    2     -0.03      0.19
   13    0    2      0.24     -0.06
   12    0    2      0.26     -0.49
   11    0    2     -0.24     -0.75
   10    0    2     -0.94     -0.55
    9    0    2     -1.52      0.00
    8    0    2     -1.85      0.64
    7    0    2     -1.84      1.20
    6    0    2     -1.40      1.47
    5    0    2     -1.07      1.26
    4    0    2     -2.49      0.66
    3    0    2     -7.38      0.24
    2    0    2    -14.78      0.49
   -1    0    2     -9.48      1.93
   -2    0    2     -0.42      1.57
   -3    0    2      4.84      1.20
   -4    0    2      6.21      0.84
   -5    0    2      5.42      0.45
   -6    0    2      3.47      0.25
   -7    0    2      1.16      0.37
   -8    0    2     -0.44      0.48
   -9    0    2     -0.91      0.32
  -10    0    2     -0.68      0.04
  -11    0    2     -0.26     -0.19
  -12    0    2     -0.01     -0.38
  -13    0    2     -0.14     -0.48
   14   -1    2      0.21     -0.40
   13   -1    2      0.42     -0.48
   12   -1    2      0.28     -0.35
   11   -1    2     -0.43     -0.22
   10   -1    2     -1.39     -0.17
    9   -1    2     -2.28     -0.02
    8   -1    2     -2.99      0.49
    7   -1    2     -3.31      1.24
    6   -1    2     -2.82      1.80
    5   -1    2     -1.45      1.77
    4   -1    2      0.12      1.15
    3   -1    2      0.61      0.25
    2   -1    2     -0.63     -0.47
    1   -1    2     -2.30     -0.68
   -1   -1    2      1.22      0.10
   -2   -1    2      4.95      0.54
   -3   -1    2      6.81      0.86
   -4   -1    2      6.41      0.96
   -5   -1    2      4.62      0.85
   -6   -1    2      2.16      0.66
   -7   -1    2     -0.19      0.56
   -8   -1    2     -1.54      0.50
   -9   -1    2     -1.80      0.36
  -10   -1    2     -1.52      0.10
  -11   -1    2     -0.98     -0.25
  -12   -1    2     -0.32     -0.58
  -13   -1    2      0.08     -0.66
  -14   -1    2      0.04     -0.41
   14   -2    2      0.20     -0.59
   13   -2    2      0.40     -0.65
   12   -2    2      0.27     -0.21
   11   -2    2     -0.44      0.24
   10   -2    2     -1.40      0.23
    9   -2    2     -2.27      0.06
    8   -2    2     -3.04      0.39
    7   -2    2     -3.56      1.37
    6   -2    2     -3.26      2.23
    5   -2    2     -1.60      2.20
    4   -2    2      1.32      1.17
    2   -2    2      7.14     -2.07
    1   -2    2      7.89     -3.24
    0   -2    2      7.41     -3.46
   -1   -2    2      6.77     -2.63
   -2   -2    2      6.32     -1.22
   -3   -2    2      5.71      0.05
   -4   -2    2      4.61      0.81
   -5   -2    2      2.86      1.09
   -6   -2    2      0.54      1.09
   -7   -2    2     -1.56      0.91
   -8   -2    2     -2.51      0.70
   -9   -2    2     -2.41      0.59
  -10   -2    2     -2.04      0.48
  -11   -2    2     -1.57      0.07
  -12   -2    2     -0.68     -0.56
  -13   -2    2      0.24     -0.85
  -14   -2    2      0.52     -0.57
   13   -3    2      0.35     -0.58
   12   -3    2      0.34     -0.18
   11   -3    2     -0.21      0.29
   10   -3    2     -1.02      0.29
    9   -3    2     -1.67     -0.02
    8   -3    2     -2.24      0.15
    7   -3    2     -2.76      1.09
    6   -3    2     -2.68      2.05
    5   -3    2     -1.33      1.97
    4   -3    2      1.46      0.64
    3   -3    2      5.04     -1.28
    2   -3    2      8.16     -3.01
    1   -3    2      9.56     -4.13
    0   -3    2      8.88     -4.34
   -1   -3    2      6.95     -3.47
   -2   -3    2      4.86     -1.82
   -3   -3    2      3.30     -0.22
   -4   -3    2      2.31      0.74
   -5   -3    2      1.30      1.10
   -6   -3    2     -0.25      1.16
   -7   -3    2     -1.89      1.00
   -8   -3    2     -2.62      0.70
   -9   -3    2     -2.37      0.57
  -10   -3    2     -2.02      0.62
  -11   -3    2     -1.78      0.35
  -12   -3    2     -1.01     -0.43
  -13   -3    2      0.17     -1.01
  -14   -3    2      0.76     -0.79
   13   -4    2      0.42     -0.48
   12   -4    2      0.58     -0.27
   11   -4    2      0.26      0.00
   10   -4    2     -0.35     -0.06
    9   -4    2     -0.86     -0.32
    8   -4    2     -1.28     -0.23
    7   -4    2     -1.76      0.50
    6   -4    2     -1.94      1.35
    5   -4    2     -1.11      1.40
    4   -4    2      1.00      0.24
    3   -4    2      3.86     -1.55
    2   -4    2      6.40     -3.02
    1   -4    2      7.61     -3.66
    0   -4    2      7.20     -3.54
   -1   -4    2      5.67     -2.81
   -2   -4    2      3.77     -1.59
   -3   -4    2      2.16     -0.30
   -4   -4    2      1.20      0.51
   -5   -4    2      0.68      0.75
   -6   -4    2     -0.11      0.78
   -7   -4    2     -1.29      0.73
   -8   -4    2     -2.07      0.55
   -9   -4    2     -2.04      0.45
  -10   -4    2     -1.78      0.61
  -11   -4    2     -1.65      0.57
  -12   -4    2     -1.13     -0.13
  -13   -4    2     -0.04     -0.93
  -14   -4    2      0.72     -0.92
   12   -5    2      0.72     -0.23
   11   -5    2      0.70     -0.15
   10   -5    2      0.30     -0.32
    9   -5    2     -0.17     -0.51
    8   -5    2     -0.61     -0.36
    7   -5    2     -1.13      0.21
    6   -5    2     -1.49      0.91
    5   -5    2     -1.15      1.21
    4   -5    2      0.23      0.63
    3   -5    2      2.28     -0.76
    2   -5    2      4.13     -2.12
    1   -5    2      5.02     -2.62
    0   -5    2      4.93     -2.22
   -1   -5    2      4.32     -1.53
   -2   -5    2      3.44     -0.85
   -3   -5    2      2.33     -0.21
   -4   -5    2      1.30      0.22
   -5   -5    2      0.72      0.28
   -6   -5    2      0.30      0.24
   -7   -5    2     -0.49      0.35
   -8   -5    2     -1.37      0.47
   -9   -5    2     -1.67      0.52
  -10   -5    2     -1.47      0.66
  -11   -5    2     -1.26      0.71
  -12   -5    2     -0.92      0.16
  -13   -5    2     -0.20     -0.68
  -14   -5    2      0.44     -0.93
   12   -6    2      0.61      0.03
   11   -6    2      0.89      0.09
   10   -6    2      0.74     -0.14
    9   -6    2      0.27     -0.36
    8   -6    2     -0.28     -0.20
    7   -6    2     -0.81      0.23
    6   -6    2     -1.17      0.67
    5   -6    2     -1.06      1.01
    3   -6    2      1.13      0.31
    2   -6    2      2.48     -0.80
    1   -6    2      3.23     -1.32
    0   -6    2      3.40     -0.81
   -1   -6    2      3.49      0.00
   -2   -6    2      3.53      0.32
   -3   -6    2      3.02      0.25
   -4   -6    2      1.91      0.14
   -5   -6    2      0.92      0.02
   -6   -6    2      0.41     -0.04
   -7   -6    2     -0.10      0.19
   -8   -6    2     -0.87      0.57
   -9   -6    2     -1.36      0.76
  -10   -6    2     -1.22      0.79
  -11   -6    2     -0.85      0.72
  -12   -6    2     -0.57      0.33
  -13   -6    2     -0.25     -0.35
  -14   -6    2      0.10     -0.70
   11   -7    2      0.84      0.31
   10   -7    2      1.00      0.14
    9   -7    2      0.60     -0.12
    8   -7    2     -0.12     -0.08
    7   -7    2     -0.76      0.18
    6   -7    2     -1.12      0.33
    5   -7    2     -1.07      0.47
    4   -7    2     -0.50      0.72
    3   -7    2      0.55      0.67
    2   -7    2      1.78      0.04
    1   -7    2      2.69     -0.51
    0   -7    2      3.14     -0.19
   -1   -7    2      3.46      0.58
   -2   -7    2      3.76      0.82
   -3   -7    2      3.49      0.43
   -4   -7    2      2.34      0.07
   -5   -7    2      0.95      0.00
   -6   -7    2      0.16      0.08
   -7   -7    2     -0.20      0.36
   -8   -7    2     -0.71      0.81
   -9   -7    2     -1.21      1.10
  -10   -7    2     -1.16      1.06
  -11   -7    2     -0.67      0.88
  -12   -7    2     -0.30      0.58
  -13   -7    2     -0.16      0.13
  -14   -7    2     -0.05     -0.21
   11   -8    2      0.60      0.23
   10   -8    2      1.08      0.21
    9   -8    2      0.88      0.01
    8   -8    2      0.09     -0.05
    7   -8    2     -0.76      0.09
    6   -8    2     -1.23      0.18
    5   -8    2     -1.22      0.22
    4   -8    2     -0.72      0.44
    3   -8    2      0.22      0.65
    2   -8    2      1.40      0.35
    1   -8    2      2.41     -0.26
    0   -8    2      2.94     -0.40
   -1   -8    2      3.09      0.02
   -2   -8    2      3.11      0.30
   -3   -8    2      2.84      0.10
   -4   -8    2      1.93     -0.10
   -5   -8    2      0.66      0.00
   -6   -8    2     -0.23      0.23
   -7   -8    2     -0.57      0.53
   -8   -8    2     -0.86      0.97
   -9   -8    2     -1.27      1.35
  -10   -8    2     -1.31      1.37
  -11   -8    2     -0.82      1.14
  -12   -8    2     -0.27      0.86
  -13   -8    2     -0.05      0.53
  -14   -8    2      0.00      0.23
   10   -9    2      0.88      0.19
    9   -9    2      0.93      0.13
    8   -9    2      0.27      0.01
    7   -9    2     -0.60      0.00
    6   -9    2     -1.14      0.06
    5   -9    2     -1.17      0.16
    4   -9    2     -0.72      0.34
    3   -9    2      0.09      0.49
    2   -9    2      1.02      0.30
    1   -9    2      1.75     -0.23
    0   -9    2      2.01     -0.58
   -1   -9    2      1.82     -0.48
   -2   -9    2      1.46     -0.23
   -3   -9    2      1.14     -0.15
   -4   -9    2      0.67     -0.11
   -5   -9    2     -0.06      0.02
   -6   -9    2     -0.73      0.18
   -7   -9    2     -1.01      0.41
   -8   -9    2     -1.11      0.85
   -9   -9    2     -1.31      1.29
  -10   -9    2     -1.40      1.38
  -11   -9    2     -1.05      1.12
  -12   -9    2     -0.47      0.81
  -13   -9    2     -0.09      0.56
  -14   -9    2      0.04      0.34
    9  -10    2      0.64      0.17
    8  -10    2      0.24      0.03
    7  -10    2     -0.44     -0.22
    6  -10    2     -0.92     -0.34
    5  -10    2     -0.99     -0.20
    4  -10    2     -0.60      0.07
    3  -10    2      0.11      0.19
    2  -10    2      0.79      0.00
    1  -10    2      1.16     -0.33
    0  -10    2      1.09     -0.51
   -1  -10    2      0.64     -0.42
   -2  -10    2      0.00     -0.21
   -3  -10    2     -0.50      0.00
   -4  -10    2     -0.77      0.18
   -5  -10    2     -0.97      0.22
   -6  -10    2     -1.21      0.10
   -7  -10    2     -1.27      0.07
   -8  -10    2     -1.12      0.38
   -9  -10    2     -1.02      0.79
  -10  -10    2     -1.08      0.87
  -11  -10    2     -1.01      0.62
  -12  -10    2     -0.65      0.39
  -13  -10    2     -0.21      0.28
    8  -11    2      0.14     -0.08
    7  -11    2     -0.22     -0.41
    6  -11    2     -0.56     -0.70
    5  -11    2     -0.67     -0.56
    4  -11    2     -0.36     -0.10
    3  -11    2      0.31      0.15
    2  -11    2      0.89     -0.07
    1  -11    2      0.99     -0.41
    0  -11    2      0.63     -0.43
   -1  -11    2      0.02     -0.16
   -2  -11    2     -0.74      0.12
   -3  -11    2     -1.44      0.37
   -4  -11    2     -1.76      0.58
   -5  -11    2     -1.69      0.51
   -6  -11    2     -1.51      0.05
   -7  -11    2     -1.28     -0.39
   -8  -11    2     -0.91     -0.36
   -9  -11    2     -0.58     -0.02
  -10  -11    2     -0.56      0.13
  -11  -11    2     -0.72      0.02
  -12  -11    2     -0.66     -0.04
  -13  -11    2     -0.30      0.02
    7  -12    2      0.06     -0.37
    6  -12    2     -0.08     -0.64
    5  -12    2     -0.20     -0.57
    4  -12    2     -0.01     -0.05
    3  -12    2      0.55      0.37
    2  -12    2      1.02      0.19
    1  -12    2      0.88     -0.29
    0  -12    2      0.20     -0.36
   -1  -12    2     -0.56      0.09
   -2  -12    2     -1.27      0.60
   -3  -12    2     -1.93      0.89
   -4  -12    2     -2.32      0.98
   -5  -12    2     -2.19      0.72
   -6  -12    2     -1.76      0.02
   -7  -12    2     -1.34     -0.72
   -8  -12    2     -0.89     -0.90
   -9  -12    2     -0.45     -0.54
  -10  -12    2     -0.29     -0.20
  -11  -12    2     -0.47     -0.14
  -12  -12    2     -0.59     -0.11
    6  -13    2      0.18     -0.27
    5  -13    2      0.04     -0.33
    4  -13    2      0.03     -0.03
    3  -13    2      0.38      0.41
    2  -13    2      0.73      0.42
    1  -13    2      0.50     -0.05
    0  -13    2     -0.29     -0.32
   -1  -13    2     -1.10      0.10
   -2  -13    2     -1.67      0.84
   -3  -13    2     -2.18      1.28
   -4  -13    2     -2.58      1.22
   -5  -13    2     -2.55      0.75
   -6  -13    2     -2.08     -0.01
   -7  -13    2     -1.51     -0.72
   -8  -13    2     -1.01     -0.91
   -9  -13    2     -0.56     -0.54
  -10  -13    2     -0.30     -0.12
  -11  -13    2     -0.35      0.04
  -12  -13    2     -0.49      0.05
    5  -14    2     -0.14     -0.08
    4  -14    2     -0.32     -0.02
    3  -14    2     -0.22      0.31
    2  -14    2      0.05      0.48
    1  -14    2      0.03      0.09
    0  -14    2     -0.46     -0.46
   -1  -14    2     -1.09     -0.37
   -2  -14    2     -1.60      0.44
   -3  -14    2     -2.09      1.19
   -4  -14    2     -2.56      1.25
   -5  -14    2     -2.66      0.70
   -6  -14    2     -2.19     -0.02
   -7  -14    2     -1.47     -0.52
   -8  -14    2     -0.90     -0.60
   -9  -14    2     -0.55     -0.34
  -10  -14    2     -0.39     -0.03
  -11  -14    2     -0.37      0.13
    3  -15    2     -0.56      0.32
    2  -15    2     -0.40      0.50
    1  -15    2     -0.18      0.21
    0  -15    2     -0.17     -0.51
   -1  -15    2     -0.42     -0.81
   -2  -15    2     -0.90     -0.11
   -3  -15    2     -1.53      0.97
   -4  -15    2     -2.15      1.37
   -5  -15    2     -2.35      0.87
   -6  -15    2     -1.91      0.12
   -7  -15    2     -1.12     -0.27
   -8  -15    2     -0.53     -0.25
   -9  -15    2     -0.34     -0.09
  -10  -15    2     -0.38      0.01
    2  -16    2     -0.27      0.44
    1  -16    2     -0.03      0.32
    0  -16    2      0.38     -0.22
   -1  -16    2      0.58     -0.63
   -2  -16    2      0.23     -0.16
   -3  -16    2     -0.58      0.96
   -4  -16    2     -1.40      1.61
   -5  -16    2     -1.75      1.22
   -6  -16    2     -1.47      0.39
   -7  -16    2     -0.84     -0.04
   -8  -16    2     -0.32      0.04
   -9  -16    2     -0.17      0.17
   -1  -17    2      1.15     -0.17
   -2  -17    2      1.04      0.02
   -3  -17    2      0.24      0.81
   -4  -17    2     -0.67      1.44
   -5  -17    2     -1.13      1.26
   -6  -17    2     -1.05      0.55
    8   17    1     -0.48      0.41
    7   17    1     -0.78      0.64
    6   17    1     -0.94      0.61
    5   17    1     -0.80      0.39
    4   17    1     -0.39      0.19
    3   17    1      0.00      0.13
    2   17    1     -0.01      0.15
    1   17    1     -0.39      0.10
   10   16    1     -0.23      0.12
    9   16    1     -0.21      0.24
    8   16    1     -0.50      0.55
    7   16    1     -0.95      0.92
    6   16    1     -1.23      1.05
    5   16    1     -1.20      0.92
    4   16    1     -0.87      0.71
    3   16    1     -0.45      0.54
    2   16    1     -0.30      0.35
    1   16    1     -0.63      0.01
    0   16    1     -1.27     -0.50
   -1   16    1     -1.76     -0.92
   -2   16    1     -1.78     -0.93
   11   15    1     -0.39      0.20
   10   15    1     -0.35      0.28
    9   15    1     -0.38      0.30
    8   15    1     -0.67      0.50
    7   15    1     -1.09      0.82
    6   15    1     -1.39      0.99
    5   15    1     -1.42      0.91
    4   15    1     -1.21      0.67
    3   15    1     -0.86      0.38
    2   15    1     -0.59      0.02
    1   15    1     -0.72     -0.42
   -1   15    1     -2.19     -1.26
   -2   15    1     -2.64     -1.23
   -3   15    1     -2.38     -0.80
   12   14    1     -0.15     -0.08
   11   14    1     -0.35      0.19
   10   14    1     -0.54      0.27
    9   14    1     -0.75      0.25
    8   14    1     -1.02      0.35
    7   14    1     -1.28      0.47
    6   14    1     -1.49      0.38
    5   14    1     -1.60      0.13
    4   14    1     -1.55     -0.13
    3   14    1     -1.30     -0.38
    2   14    1     -0.96     -0.65
    1   14    1     -0.81     -0.92
   -1   14    1     -1.73     -1.28
   -2   14    1     -2.41     -1.24
   -3   14    1     -2.61     -0.92
   -4   14    1     -2.18     -0.43
   -5   14    1     -1.41     -0.07
   13   13    1      0.15     -0.51
   12   13    1     -0.08     -0.31
   11   13    1     -0.46      0.05
   10   13    1     -0.87      0.17
    9   13    1     -1.19      0.14
    8   13    1     -1.37      0.19
    7   13    1     -1.47      0.10
    6   13    1     -1.66     -0.36
    5   13    1     -1.98     -0.87
    4   13    1     -2.20     -1.00
    3   13    1     -2.05     -0.85
    2   13    1     -1.63     -0.77
    1   13    1     -1.22     -0.82
    0   13    1     -1.04     -0.89
   -1   13    1     -1.19     -0.99
   -2   13    1     -1.67     -1.07
   -3   13    1     -2.27     -0.91
   -4   13    1     -2.58     -0.46
   -5   13    1     -2.37      0.00
   -6   13    1     -1.75      0.17
   13   12    1      0.32     -0.68
   12   12    1     -0.07     -0.50
   11   12    1     -0.70     -0.08
   10   12    1     -1.26      0.02
    9   12    1     -1.59     -0.12
    8   12    1     -1.68     -0.15
    7   12    1     -1.70     -0.31
    6   12    1     -1.94     -0.95
    5   12    1     -2.47     -1.58
    4   12    1     -2.95     -1.46
    3   12    1     -2.94     -0.74
    2   12    1     -2.46     -0.21
    1   12    1     -1.92     -0.17
    0   12    1     -1.56     -0.36
   -1   12    1     -1.38     -0.60
   -2   12    1     -1.50     -0.80
   -3   12    1     -2.12     -0.74
   -4   12    1     -3.02     -0.27
   -5   12    1     -3.55      0.26
   -6   12    1     -3.27      0.43
   -7   12    1     -2.31      0.27
   14   11    1      0.48     -0.27
   13   11    1      0.53     -0.71
   12   11    1      0.08     -0.72
   11   11    1     -0.76     -0.39
   10   11    1     -1.49     -0.33
    9   11    1     -1.80     -0.59
    8   11    1     -1.79     -0.70
    7   11    1     -1.79     -0.77
    6   11    1     -2.08     -1.27
    5   11    1     -2.72     -1.82
    4   11    1     -3.45     -1.54
    3   11    1     -3.79     -0.49
    2   11    1     -3.52      0.31
    1   11    1     -2.97      0.33
    0   11    1     -2.55     -0.08
   -1   11    1     -2.26     -0.46
   -2   11    1     -2.09     -0.71
   -3   11    1     -2.37     -0.67
   -4   11    1     -3.25     -0.19
   -5   11    1     -4.20      0.41
   -6   11    1     -4.38      0.59
   -7   11    1     -3.53      0.33
   -8   11    1     -2.17      0.07
   14   10    1      0.57     -0.24
   13   10    1      0.67     -0.80
   12   10    1      0.27     -1.05
   11   10    1     -0.63     -0.79
   10   10    1     -1.46     -0.63
    9   10    1     -1.70     -0.85
    8   10    1     -1.48     -1.03
    7   10    1     -1.38     -0.99
    6   10    1     -1.73     -1.13
    5   10    1     -2.51     -1.40
    4   10    1     -3.56     -1.12
    3   10    1     -4.53     -0.19
    2   10    1     -4.92      0.52
    1   10    1     -4.63      0.43
    0   10    1     -4.06     -0.11
   -1   10    1     -3.56     -0.59
   -2   10    1     -3.19     -0.90
   -3   10    1     -3.04     -0.98
   -4   10    1     -3.39     -0.62
   -5   10    1     -4.09      0.00
   -6   10    1     -4.47      0.35
   -7   10    1     -3.96      0.23
   14    9    1      0.66     -0.33
   13    9    1      0.63     -0.89
   12    9    1      0.29     -1.21
   11    9    1     -0.47     -0.92
   10    9    1     -1.24     -0.56
    9    9    1     -1.36     -0.70
    8    9    1     -0.86     -1.01
    7    9    1     -0.56     -0.98
    6    9    1     -1.00     -0.74
    5    9    1     -2.03     -0.60
    4    9    1     -3.49     -0.42
    3    9    1     -5.23     -0.04
    2    9    1     -6.69      0.21
    1    9    1     -7.09      0.04
    0    9    1     -6.46     -0.32
   -1    9    1     -5.50     -0.61
   -2    9    1     -4.72     -0.91
   -3    9    1     -4.17     -1.20
   -4    9    1     -3.86     -1.17
   -5    9    1     -3.90     -0.70
   -6    9    1     -4.05     -0.19
   -7    9    1     -3.78      0.01
   14    8    1      0.77     -0.40
   13    8    1      0.54     -0.90
   12    8    1      0.19     -1.17
   11    8    1     -0.38     -0.84
   10    8    1     -1.06     -0.38
    9    8    1     -1.19     -0.48
    8    8    1     -0.51     -0.90
    7    8    1      0.12     -0.92
    6    8    1     -0.22     -0.42
    5    8    1     -1.61      0.01
    4    8    1     -3.76     -0.04
    3    8    1     -6.54     -0.46
    2    8    1     -9.31     -0.93
    1    8    1    -10.77     -1.11
    0    8    1    -10.23     -0.90
   -1    8    1     -8.46     -0.56
   -2    8    1     -6.64     -0.55
   -3    8    1     -5.24     -0.95
   -4    8    1     -4.25     -1.29
   -5    8    1     -3.67     -1.17
   -6    8    1     -3.48     -0.68
   -7    8    1     -3.30     -0.18
   -8    8    1     -2.72      0.16
   -9    8    1     -1.71      0.38
  -10    8    1     -0.72      0.46
   15    7    1      0.71     -0.02
   14    7    1      0.89     -0.31
   13    7    1      0.64     -0.90
   12    7    1      0.22     -1.21
   11    7    1     -0.35     -0.86
   10    7    1     -1.10     -0.34
    9    7    1     -1.37     -0.37
    8    7    1     -0.57     -0.77
    7    7    1      0.63     -0.77
    6    7    1      0.73     -0.18
    5    7    1     -0.93      0.35
    4    7    1     -4.15      0.13
    3    7    1     -8.45     -0.88
    2    7    1    -12.82     -1.96
    1    7    1    -15.45     -2.29
    0    7    1    -15.09     -1.65
   -1    7    1    -12.37     -0.77
   -2    7    1     -8.98     -0.48
   -3    7    1     -6.08     -0.90
   -4    7    1     -4.09     -1.44
   -5    7    1     -3.03     -1.54
   -6    7    1     -2.67     -1.10
   -7    7    1     -2.54     -0.37
   -8    7    1     -2.21      0.30
   -9    7    1     -1.52      0.66
  -10    7    1     -0.71      0.66
  -11    7    1     -0.19      0.46
   15    6    1      0.52      0.27
   14    6    1      0.92     -0.09
   13    6    1      0.87     -0.91
   12    6    1      0.42     -1.41
   11    6    1     -0.32     -1.03
   10    6    1     -1.28     -0.34
    9    6    1     -1.74     -0.23
    8    6    1     -0.82     -0.58
    7    6    1      0.99     -0.57
    6    6    1      1.92      0.09
    5    6    1      0.55      0.80
    4    6    1     -3.31      0.81
    3    6    1     -9.09     -0.10
    2    6    1    -15.27     -1.39
    1    6    1    -19.33     -2.09
    0    6    1    -19.46     -1.74
   -1    6    1    -16.22     -0.95
   -2    6    1    -11.64     -0.71
   -3    6    1     -7.32     -1.18
   -4    6    1     -4.15     -1.74
   -5    6    1     -2.53     -1.85
   -6    6    1     -2.12     -1.41
   -7    6    1     -2.07     -0.57
   -8    6    1     -1.81      0.33
   -9    6    1     -1.33      0.83
  -10    6    1     -0.80      0.75
  -11    6    1     -0.40      0.41
   15    5    1      0.13      0.44
   14    5    1      0.56      0.15
   13    5    1      0.77     -0.76
   12    5    1      0.48     -1.43
   11    5    1     -0.34     -1.06
   10    5    1     -1.48     -0.20
    9    5    1     -2.14      0.03
    8    5    1     -1.26     -0.36
    7    5    1      0.98     -0.36
    6    5    1      2.91      0.46
    5    5    1      2.87      1.47
    4    5    1     -0.08      1.92
    3    5    1     -6.24      1.44
    2    5    1    -14.33      0.25
    1    5    1    -20.81     -0.90
    0    5    1    -22.43     -1.25
   -1    5    1    -19.34     -0.92
   -2    5    1    -14.14     -0.76
   -3    5    1     -8.95     -1.13
   -4    5    1     -4.81     -1.60
   -5    5    1     -2.50     -1.67
   -6    5    1     -2.04     -1.32
   -7    5    1     -2.22     -0.65
   -8    5    1     -2.00      0.16
   -9    5    1     -1.49      0.67
  -10    5    1     -1.06      0.50
  -11    5    1     -0.70     -0.02
  -12    5    1     -0.43     -0.25
   15    4    1     -0.44      0.32
   14    4    1     -0.24      0.32
   13    4    1      0.14     -0.30
   12    4    1      0.18     -0.99
   11    4    1     -0.43     -0.81
   10    4    1     -1.56      0.01
    9    4    1     -2.35      0.30
    8    4    1     -1.62     -0.14
    7    4    1      0.76     -0.22
    6    4    1      3.59      0.67
    5    4    1      5.50      1.88
    4    4    1      5.03      2.53
    3    4    1      0.09      2.33
    2    4    1     -9.71      1.36
    1    4    1    -20.14      0.06
    0    4    1    -25.15     -0.82
   -1    4    1    -23.02     -0.91
   -2    4    1    -17.11     -0.73
   -4    4    1     -5.95     -1.19
   -5    4    1     -2.78     -1.27
   -6    4    1     -1.90     -1.06
   -7    4    1     -2.25     -0.67
   -8    4    1     -2.24     -0.19
   -9    4    1     -1.67      0.11
  -10    4    1     -1.17     -0.15
  -11    4    1     -0.84     -0.78
  -12    4    1     -0.48     -1.06
   15    3    1     -0.87     -0.03
   14    3    1     -0.98      0.26
   13    3    1     -0.63      0.19
   12    3    1     -0.32     -0.31
   11    3    1     -0.57     -0.43
   10    3    1     -1.42      0.09
    9    3    1     -2.15      0.37
    8    3    1     -1.61     -0.05
    7    3    1      0.58     -0.27
    6    3    1      3.78      0.54
    5    3    1      7.39      1.87
    4    3    1     10.11      2.73
    3    3    1      8.17      2.82
    2    3    1     -1.82      2.26
    1    3    1    -16.62      1.21
    0    3    1    -27.12      0.17
   -1    3    1    -27.71     -0.29
   -2    3    1    -21.35     -0.24
   -3    3    1    -13.88     -0.28
   -4    3    1     -7.85     -0.59
   -5    3    1     -3.63     -0.83
   -6    3    1     -1.69     -0.80
   -7    3    1     -1.66     -0.67
   -8    3    1     -1.86     -0.55
   -9    3    1     -1.42     -0.51
  -10    3    1     -0.89     -0.78
  -11    3    1     -0.59     -1.33
  -12    3    1     -0.28     -1.60
  -13    3    1     -0.01     -1.12
   14    2    1     -1.27     -0.07
   13    2    1     -1.13      0.36
   12    2    1     -0.80      0.30
   11    2    1     -0.71      0.04
   10    2    1     -1.04      0.16
    9    2    1     -1.46      0.34
    8    2    1     -1.16      0.02
    7    2    1      0.43     -0.27
    6    2    1      3.32      0.39
    5    2    1      7.76      1.82
    4    2    1     13.28      3.01
    3    2    1     15.50      3.36
    2    2    1      7.96      2.96
    1    2    1     -9.12      2.06
    0    2    1    -25.50      1.06
   -2    2    1    -25.59      0.58
   -3    2    1    -17.00      0.68
   -4    2    1     -9.94      0.35
   -5    2    1     -4.79     -0.14
   -6    2    1     -1.58     -0.42
   -7    2    1     -0.65     -0.51
   -8    2    1     -0.90     -0.60
   -9    2    1     -0.88     -0.73
  -10    2    1     -0.50     -0.91
  -11    2    1     -0.15     -1.22
  -12    2    1      0.19     -1.42
  -13    2    1      0.42     -1.09
   14    1    1     -1.21     -0.42
   13    1    1     -1.27      0.23
   12    1    1     -1.01      0.64
   11    1    1     -0.65      0.51
   10    1    1     -0.35      0.35
    9    1    1     -0.28      0.33
    8    1    1     -0.25      0.11
    7    1    1      0.42     -0.17
    6    1    1      2.38      0.22
    5    1    1      6.47      1.44
    4    1    1     12.93      2.61
    3    1    1     18.13      2.81
    2    1    1     14.48      2.01
   -1    1    1    -30.72     -0.08
   -2    1    1    -27.88      0.54
   -3    1    1    -19.01      1.06
   -4    1    1    -11.02      0.87
   -5    1    1     -5.21      0.21
   -6    1    1     -1.10     -0.28
   -7    1    1      0.71     -0.44
   -8    1    1      0.49     -0.52
   -9    1    1     -0.11     -0.61
  -10    1    1     -0.16     -0.64
  -11    1    1      0.19     -0.69
  -12    1    1      0.63     -0.83
  -13    1    1      0.85     -0.76
   14    0    1     -0.93     -0.53
   13    0    1     -0.99     -0.09
   12    0    1     -0.76      0.46
   11    0    1     -0.29      0.56
   10    0    1      0.39      0.35
    9    0    1      0.87      0.15
    8    0    1      0.70     -0.07
    7    0    1      0.42     -0.37
    6    0    1      1.18     -0.34
    5    0    1      3.96      0.38
    4    0    1      9.13      1.30
    3    0    1     14.55      1.45
    2    0    1     14.21      0.49
   -2    0    1    -25.27      0.02
   -3    0    1    -17.79      0.77
   -4    0    1     -9.93      0.56
   -5    0    1     -4.07     -0.18
   -6    0    1      0.24     -0.67
   -7    0    1      2.44     -0.70
   -8    0    1      2.21     -0.64
   -9    0    1      1.00     -0.66
  -10    0    1      0.33     -0.58
  -11    0    1      0.39     -0.41
  -12    0    1      0.76     -0.39
  -13    0    1      0.95     -0.45
  -14    0    1      0.63     -0.32
   14   -1    1     -0.39     -0.42
   13   -1    1     -0.34     -0.44
   12   -1    1     -0.11     -0.18
   11   -1    1      0.26      0.05
   10   -1    1      0.87      0.05
    9   -1    1      1.41     -0.13
    8   -1    1      1.11     -0.46
    7   -1    1      0.16     -0.88
    6   -1    1     -0.12     -1.12
    5   -1    1      1.32     -0.74
    4   -1    1      4.63      0.19
    3   -1    1      8.89      0.88
    2   -1    1     11.02      0.47
   -2   -1    1    -14.83     -0.53
   -3   -1    1    -11.16      0.03
   -4   -1    1     -5.86     -0.30
   -5   -1    1     -1.33     -0.98
   -6   -1    1      2.22     -1.20
   -7   -1    1      4.04     -0.96
   -8   -1    1      3.53     -0.83
   -9   -1    1      1.89     -0.95
  -10   -1    1      0.74     -0.89
  -11   -1    1      0.42     -0.51
  -12   -1    1      0.52     -0.22
  -13   -1    1      0.66     -0.20
  -14   -1    1      0.49     -0.19
   13   -2    1      0.29     -0.59
   12   -2    1      0.54     -0.74
   11   -2    1      0.78     -0.56
   10   -2    1      1.11     -0.27
    9   -2    1      1.42     -0.26
    8   -2    1      1.02     -0.65
    7   -2    1     -0.24     -1.21
    6   -2    1     -1.18     -1.51
    5   -2    1     -0.58     -1.15
    4   -2    1      1.66     -0.03
    3   -2    1      5.15      1.16
    2   -2    1      8.91      1.28
    1   -2    1     10.59      0.01
    0   -2    1      8.22     -1.56
   -1   -2    1      3.24     -2.14
   -2   -2    1     -0.63     -1.71
   -3   -2    1     -1.56     -1.28
   -4   -2    1     -0.40     -1.42
   -5   -2    1      1.72     -1.66
   -6   -2    1      3.91     -1.34
   -7   -2    1      4.83     -0.71
   -8   -2    1      3.76     -0.54
   -9   -2    1      1.90     -0.89
  -10   -2    1      0.70     -1.04
  -11   -2    1      0.25     -0.57
  -12   -2    1      0.09     -0.04
  -13   -2    1      0.13      0.06
  -14   -2    1      0.23     -0.05
   13   -3    1      0.45     -0.33
   12   -3    1      0.69     -0.74
   11   -3    1      0.93     -0.76
   10   -3    1      1.09     -0.37
    9   -3    1      1.16     -0.14
    8   -3    1      0.76     -0.47
    7   -3    1     -0.40     -1.05
    6   -3    1     -1.56     -1.30
    5   -3    1     -1.44     -0.83
    4   -3    1      0.31      0.37
    3   -3    1      3.38      1.68
    2   -3    1      7.50      1.97
    1   -3    1     11.62      0.71
    0   -3    1     13.63     -1.19
   -1   -3    1     12.31     -2.32
   -2   -3    1      8.82     -2.33
   -3   -3    1      5.37     -2.01
   -4   -3    1      3.46     -1.90
   -5   -3    1      3.50     -1.69
   -6   -3    1      4.58     -0.91
   -7   -3    1      4.80      0.06
   -8   -3    1      3.33      0.28
   -9   -3    1      1.41     -0.35
  -10   -3    1      0.42     -0.85
  -11   -3    1      0.08     -0.51
  -12   -3    1     -0.33      0.12
  -13   -3    1     -0.53      0.26
  -14   -3    1     -0.24      0.03
   13   -4    1      0.25      0.06
   12   -4    1      0.39     -0.36
   11   -4    1      0.66     -0.64
   10   -4    1      0.83     -0.42
    9   -4    1      0.83     -0.11
    8   -4    1      0.55     -0.28
    7   -4    1     -0.21     -0.82
    6   -4    1     -1.14     -1.11
    5   -4    1     -1.26     -0.71
    4   -4    1      0.07      0.38
    3   -4    1      2.72      1.68
    2   -4    1      6.30      2.20
    1   -4    1     10.14      1.39
    0   -4    1     12.85     -0.13
   -1   -4    1     13.11     -1.21
   -2   -4    1     10.91     -1.50
   -3   -4    1      7.57     -1.50
   -4   -4    1      4.81     -1.50
   -5   -4    1      3.82     -1.16
   -6   -4    1      4.27     -0.22
   -7   -4    1      4.36      0.80
   -8   -4    1      2.97      0.99
   -9   -4    1      1.14      0.19
  -10   -4    1      0.23     -0.62
  -11   -4    1     -0.07     -0.50
  -12   -4    1     -0.65      0.17
  -13   -4    1     -1.15      0.40
  -14   -4    1     -0.82      0.10
   12   -5    1      0.04     -0.21
   11   -5    1      0.28     -0.65
   10   -5    1      0.58     -0.69
    9   -5    1      0.72     -0.46
    8   -5    1      0.61     -0.49
    7   -5    1      0.20     -0.90
    6   -5    1     -0.43     -1.28
    5   -5    1     -0.69     -1.20
    4   -5    1      0.15     -0.44
    3   -5    1      2.25      0.76
    2   -5    1      5.12      1.55
    1   -5    1      7.86      1.27
    0   -5    1      9.53      0.30
   -1   -5    1      9.63     -0.46
   -2   -5    1      8.40     -0.76
   -3   -5    1      6.43     -0.98
   -4   -5    1      4.43     -1.10
   -5   -5    1      3.31     -0.71
   -6   -5    1      3.40      0.22
   -7   -5    1      3.64      1.08
   -8   -5    1      2.77      1.17
   -9   -5    1      1.17      0.42
  -10   -5    1      0.14     -0.38
  -11   -5    1     -0.25     -0.37
  -12   -5    1     -0.82      0.27
  -13   -5    1     -1.40      0.60
  -14   -5    1     -1.14      0.29
   12   -6    1     -0.16     -0.32
   11   -6    1      0.06     -0.78
   10   -6    1      0.54     -1.00
    9   -6    1      0.98     -0.92
    8   -6    1      1.13     -0.87
    7   -6    1      0.88     -1.03
    6   -6    1      0.35     -1.32
    5   -6    1     -0.08     -1.51
    4   -6    1      0.20     -1.25
    3   -6    1      1.44     -0.37
    2   -6    1      3.29      0.56
    1   -6    1      4.86      0.69
    0   -6    1      5.36      0.09
   -1   -6    1      4.86     -0.45
   -2   -6    1      4.15     -0.64
   -3   -6    1      3.67     -0.83
   -4   -6    1      3.15     -0.97
   -5   -6    1      2.58     -0.60
   -6   -6    1      2.49      0.19
   -7   -6    1      2.80      0.80
   -8   -6    1      2.51      0.81
   -9   -6    1      1.32      0.33
  -10   -6    1      0.15     -0.18
  -11   -6    1     -0.42     -0.17
  -12   -6    1     -0.82      0.36
  -13   -6    1     -1.22      0.72
  -14   -6    1     -1.06      0.46
   11   -7    1      0.00     -0.70
   10   -7    1      0.55     -0.99
    9   -7    1      1.29     -1.06
    8   -7    1      1.80     -1.06
    7   -7    1      1.77     -1.08
    6   -7    1      1.23     -1.20
    5   -7    1      0.62     -1.53
    4   -7    1      0.39     -1.78
    3   -7    1      0.73     -1.34
    2   -7    1      1.38     -0.27
    1   -7    1      1.83      0.49
    0   -7    1      1.66      0.40
   -1   -7    1      1.06     -0.02
   -2   -7    1      0.81     -0.29
   -3   -7    1      1.31     -0.59
   -4   -7    1      1.93     -0.88
   -5   -7    1      2.01     -0.74
   -6   -7    1      1.87     -0.20
   -7   -7    1      2.05      0.17
   -8   -7    1      2.14      0.14
   -9   -7    1      1.44     -0.06
  -10   -7    1      0.27     -0.22
  -11   -7    1     -0.54     -0.14
  -12   -7    1     -0.85      0.26
  -13   -7    1     -0.95      0.63
  -14   -7    1     -0.78      0.54
   10   -8    1      0.45     -0.71
    9   -8    1      1.30     -0.86
    8   -8    1      2.14     -0.98
    7   -8    1      2.38     -1.05
    6   -8    1      1.84     -1.11
    5   -8    1      0.96     -1.43
    4   -8    1      0.35     -2.02
    3   -8    1      0.18     -2.05
    2   -8    1      0.17     -0.98
    1   -8    1      0.06      0.40
    0   -8    1     -0.14      0.95
   -1   -8    1     -0.26      0.58
   -2   -8    1     -0.02     -0.05
   -3   -8    1      0.69     -0.61
   -4   -8    1      1.47     -1.00
   -5   -8    1      1.76     -0.99
   -6   -8    1      1.66     -0.66
   -7   -8    1      1.72     -0.46
   -8   -8    1      1.92     -0.52
   -9   -8    1      1.56     -0.55
  -10   -8    1      0.48     -0.42
  -11   -8    1     -0.55     -0.21
  -12   -8    1     -0.92      0.15
  -13   -8    1     -0.76      0.55
  -14   -8    1     -0.45      0.63
   10   -9    1      0.28     -0.41
    9   -9    1      1.07     -0.53
    8   -9    1      2.08     -0.66
    7   -9    1      2.59     -0.76
    6   -9    1      2.12     -0.75
    5   -9    1      1.00     -0.89
    4   -9    1      0.03     -1.43
    3   -9    1     -0.38     -1.80
    2   -9    1     -0.47     -1.14
    1   -9    1     -0.55      0.26
    0   -9    1     -0.50      1.06
   -1   -9    1     -0.10      0.64
   -2   -9    1      0.53     -0.38
   -3   -9    1      1.09     -1.17
   -4   -9    1      1.48     -1.45
   -5   -9    1      1.67     -1.30
   -6   -9    1      1.72     -1.01
   -7   -9    1      1.78     -0.94
   -8   -9    1      1.86     -1.00
   -9   -9    1      1.55     -0.85
  -10   -9    1      0.62     -0.48
  -11   -9    1     -0.45     -0.14
  -12   -9    1     -0.92      0.19
  -13   -9    1     -0.68      0.57
  -14   -9    1     -0.23      0.71
    9  -10    1      0.66     -0.19
    8  -10    1      1.63     -0.24
    7  -10    1      2.35     -0.30
    6  -10    1      2.18     -0.25
    5  -10    1      1.16     -0.21
    4  -10    1     -0.04     -0.47
    3  -10    1     -0.72     -0.86
    2  -10    1     -0.85     -0.67
    1  -10    1     -0.81      0.20
    0  -10    1     -0.65      0.83
   -1  -10    1     -0.11      0.41
   -2  -10    1      0.65     -0.71
   -3  -10    1      1.13     -1.57
   -4  -10    1      1.20     -1.71
   -5  -10    1      1.24     -1.37
   -6  -10    1      1.43     -1.04
   -7  -10    1      1.57     -1.00
   -8  -10    1      1.48     -1.01
   -9  -10    1      1.12     -0.71
  -10  -10    1      0.45     -0.23
  -11  -10    1     -0.36      0.08
  -12  -10    1     -0.83      0.25
  -13  -10    1     -0.67      0.50
  -14  -10    1     -0.21      0.63
    8  -11    1      0.79      0.07
    7  -11    1      1.46      0.04
    6  -11    1      1.65      0.03
    5  -11    1      1.09      0.05
    4  -11    1      0.08     -0.03
    3  -11    1     -0.74     -0.23
    2  -11    1     -0.98     -0.23
    1  -11    1     -0.89      0.13
    0  -11    1     -0.74      0.44
   -1  -11    1     -0.40      0.13
   -2  -11    1      0.19     -0.70
   -3  -11    1      0.59     -1.37
   -4  -11    1      0.55     -1.39
   -5  -11    1      0.45     -0.90
   -6  -11    1      0.65     -0.47
   -7  -11    1      0.87     -0.40
   -8  -11    1      0.75     -0.44
   -9  -11    1      0.43     -0.25
  -10  -11    1      0.07      0.07
  -11  -11    1     -0.32      0.17
  -12  -11    1     -0.63      0.13
  -13  -11    1     -0.59      0.25
    7  -12    1      0.38      0.12
    6  -12    1      0.71      0.14
    5  -12    1      0.69      0.14
    4  -12    1      0.19      0.08
    3  -12    1     -0.44      0.01
    2  -12    1     -0.68      0.00
    1  -12    1     -0.53      0.04
    0  -12    1     -0.41      0.00
   -1  -12    1     -0.39     -0.26
   -2  -12    1     -0.22     -0.66
   -3  -12    1      0.02     -0.89
   -4  -12    1      0.01     -0.67
   -5  -12    1     -0.11     -0.07
   -6  -12    1      0.00      0.46
   -7  -12    1      0.19      0.54
   -8  -12    1      0.11      0.30
   -9  -12    1     -0.15      0.14
  -10  -12    1     -0.30      0.13
  -11  -12    1     -0.34      0.06
  -12  -12    1     -0.40     -0.04
  -13  -12    1     -0.38      0.04
    6  -13    1      0.10      0.27
    5  -13    1      0.44      0.43
    4  -13    1      0.45      0.39
    3  -13    1      0.15      0.26
    2  -13    1     -0.02      0.20
    1  -13    1      0.10      0.14
    0  -13    1      0.11     -0.08
   -1  -13    1     -0.19     -0.40
   -2  -13    1     -0.41     -0.58
   -3  -13    1     -0.29     -0.44
   -4  -13    1     -0.13      0.03
   -5  -13    1     -0.14      0.70
   -6  -13    1     -0.17      1.22
   -7  -13    1     -0.15      1.27
   -8  -13    1     -0.23      0.88
   -9  -13    1     -0.40      0.42
  -10  -13    1     -0.43      0.16
  -11  -13    1     -0.29      0.03
  -12  -13    1     -0.18     -0.02
    5  -14    1      0.45      0.67
    4  -14    1      0.67      0.70
    3  -14    1      0.54      0.49
    2  -14    1      0.39      0.38
    1  -14    1      0.43      0.43
    0  -14    1      0.34      0.31
   -1  -14    1     -0.08     -0.10
   -2  -14    1     -0.44     -0.46
   -3  -14    1     -0.31     -0.37
   -4  -14    1      0.05      0.18
   -5  -14    1      0.12      0.90
   -6  -14    1     -0.11      1.42
   -7  -14    1     -0.31      1.48
   -8  -14    1     -0.38      1.10
   -9  -14    1     -0.34      0.59
  -10  -14    1     -0.22      0.24
  -11  -14    1     -0.07      0.08
    3  -15    1      0.33      0.52
    2  -15    1      0.13      0.44
    1  -15    1      0.12      0.60
    0  -15    1      0.06      0.61
   -1  -15    1     -0.26      0.07
   -2  -15    1     -0.49     -0.72
   -3  -15    1     -0.24     -1.02
   -4  -15    1      0.24     -0.55
   -5  -15    1      0.34      0.32
   -6  -15    1     -0.03      0.99
   -7  -15    1     -0.39      1.13
   -8  -15    1     -0.39      0.85
   -9  -15    1     -0.13      0.46
  -10  -15    1      0.10      0.18
    2  -16    1     -0.30      0.43
    1  -16    1     -0.38      0.54
    0  -16    1     -0.44      0.51
   -1  -16    1     -0.62     -0.11
   -2  -16    1     -0.65     -1.17
   -3  -16    1     -0.25     -1.84
   -4  -16    1      0.32     -1.51
   -5  -16    1      0.46     -0.53
   -6  -16    1      0.10      0.30
   -7  -16    1     -0.28      0.52
   -8  -16    1     -0.25      0.31
   -9  -16    1      0.05      0.11
   -1  -17    1     -0.69     -0.23
   -2  -17    1     -0.61     -1.12
   -3  -17    1     -0.17     -1.83
   -4  -17    1      0.35     -1.70
   -5  -17    1      0.48     -0.88
   -6  -17    1      0.17     -0.10
   -7  -17    1     -0.16      0.12
    7   17    0      0.07     -0.81
    6   17    0      0.40     -0.96
    4   17    0      0.14     -1.59
    3   17    0      0.05     -1.87
    2   17    0      0.21     -1.88
    1   17    0      0.25     -1.36
    9   16    0     -0.45     -0.79
    8   16    0     -0.29     -1.14
    7   16    0      0.08     -1.36
    6   16    0      0.44     -1.58
    5   16    0      0.45     -1.82
    4   16    0      0.19     -2.03
    2   16    0      0.29     -2.01
    1   16    0      0.47     -1.39
    0   16    0      0.38     -0.35
   -1   16    0      0.22      0.47
   -2   16    0      0.15      0.60
   11   15    0     -0.29     -0.08
   10   15    0     -0.32     -0.45
    9   15    0     -0.27     -0.97
    8   15    0     -0.08     -1.41
    7   15    0      0.24     -1.68
    6   15    0      0.47     -1.85
    5   15    0      0.34     -1.86
    4   15    0     -0.07     -1.65
    3   15    0     -0.31     -1.37
    2   15    0     -0.19     -1.12
    1   15    0      0.08     -0.70
    0   15    0      0.29      0.02
   -1   15    0      0.41      0.64
   -3   15    0     -0.07      0.38
   12   14    0     -0.23      0.00
   11   14    0     -0.20      0.02
   10   14    0     -0.14     -0.38
    9   14    0     -0.07     -1.09
    8   14    0      0.05     -1.69
    7   14    0      0.22     -1.95
    6   14    0      0.30     -1.93
    5   14    0      0.04     -1.64
    4   14    0     -0.50     -1.07
    3   14    0     -0.92     -0.45
    2   14    0     -0.95     -0.11
    1   14    0     -0.69      0.03
    0   14    0     -0.26      0.28
   -2   14    0      0.39      0.70
   -3   14    0     -0.05      0.46
   -4   14    0     -0.68      0.28
   -5   14    0     -0.77      0.32
   12   13    0      0.09      0.04
   11   13    0      0.10      0.19
   10   13    0      0.04     -0.16
    9   13    0     -0.02     -1.04
    8   13    0     -0.05     -1.86
    7   13    0     -0.02     -2.15
    6   13    0     -0.05     -1.97
    5   13    0     -0.37     -1.56
    4   13    0     -0.99     -1.00
    3   13    0     -1.56     -0.39
    2   13    0     -1.71      0.02
    1   13    0     -1.43      0.13
    0   13    0     -0.81      0.16
   -1   13    0      0.03      0.28
   -2   13    0      0.68      0.35
   -3   13    0      0.64      0.26
   -4   13    0      0.07      0.17
   -5   13    0     -0.25      0.22
   -6   13    0      0.00      0.24
   13   12    0      0.37     -0.12
   12   12    0      0.65      0.13
   11   12    0      0.62      0.49
   10   12    0      0.29      0.35
    9   12    0     -0.02     -0.54
    8   12    0     -0.14     -1.59
    7   12    0     -0.19     -2.02
    6   12    0     -0.39     -1.82
    5   12    0     -0.85     -1.48
    4   12    0     -1.57     -1.21
    3   12    0     -2.24     -0.85
    2   12    0     -2.44     -0.36
    1   12    0     -2.02      0.02
    0   12    0     -1.16      0.09
   -2   12    0      1.00     -0.29
   -3   12    0      1.53     -0.43
   -4   12    0      1.37     -0.35
   -5   12    0      0.95     -0.09
   -6   12    0      0.72      0.14
   -7   12    0      0.60      0.11
   13   11    0      0.57     -0.06
   12   11    0      1.12      0.31
   11   11    0      1.16      0.85
   10   11    0      0.60      0.96
    9   11    0      0.04      0.19
    8   11    0     -0.15     -0.99
    7   11    0     -0.27     -1.63
    6   11    0     -0.71     -1.52
    5   11    0     -1.41     -1.28
    4   11    0     -2.13     -1.26
    3   11    0     -2.69     -1.13
    2   11    0     -2.84     -0.57
    1   11    0     -2.37      0.15
    0   11    0     -1.34      0.43
   -1   11    0     -0.11      0.04
   -2   11    0      1.02     -0.65
   -3   11    0      1.84     -1.07
   -4   11    0      2.17     -0.92
   -5   11    0      1.98     -0.39
   -6   11    0      1.45      0.08
   -7   11    0      0.84      0.15
   -8   11    0      0.34     -0.10
   14   10    0      0.11     -0.20
   13   10    0      0.53     -0.02
   12   10    0      1.23      0.31
   11   10    0      1.44      0.76
   10   10    0      0.82      0.98
    9   10    0      0.02      0.47
    8   10    0     -0.28     -0.55
    7   10    0     -0.39     -1.23
    6   10    0     -0.97     -1.23
    5   10    0     -1.84     -1.06
    4   10    0     -2.41     -1.14
    3   10    0     -2.59     -1.11
    2   10    0     -2.61     -0.53
    1   10    0     -2.33      0.36
    0   10    0     -1.44      0.82
   -1   10    0     -0.16      0.43
   -2   10    0      1.03     -0.48
   -3   10    0      1.89     -1.16
   -4   10    0      2.43     -1.13
   -5   10    0      2.54     -0.56
   -6   10    0      2.07      0.00
   -7   10    0      1.20      0.09
   -8   10    0      0.44     -0.28
   14    9    0      0.11     -0.27
   13    9    0      0.40     -0.14
   12    9    0      0.97     -0.06
   11    9    0      1.25      0.08
   10    9    0      0.75      0.33
    9    9    0     -0.07      0.28
    8    9    0     -0.40     -0.26
    7    9    0     -0.38     -0.78
    6    9    0     -0.79     -0.86
    5    9    0     -1.58     -0.73
    4    9    0     -1.87     -0.69
    3    9    0     -1.47     -0.55
    2    9    0     -1.16     -0.04
    1    9    0     -1.23      0.61
    0    9    0     -0.96      0.90
   -1    9    0      0.10      0.56
   -2    9    0      1.41     -0.19
   -3    9    0      2.32     -0.83
   -4    9    0      2.78     -0.97
   -5    9    0      2.96     -0.63
   -6    9    0      2.68     -0.23
   -7    9    0      1.90     -0.18
   14    8    0      0.07     -0.34
   13    8    0      0.27     -0.26
   12    8    0      0.54     -0.42
   11    8    0      0.76     -0.59
   10    8    0      0.61     -0.33
    9    8    0      0.10      0.08
    8    8    0     -0.22      0.04
    7    8    0     -0.12     -0.32
    6    8    0     -0.12     -0.46
    5    8    0     -0.35     -0.26
    4    8    0     -0.02      0.07
    3    8    0      1.15      0.46
    2    8    0      2.04      0.83
    1    8    0      1.70      0.92
    0    8    0      0.90      0.68
   -1    8    0      1.03      0.35
   -2    8    0      2.08      0.13
   -3    8    0      3.03     -0.02
   -4    8    0      3.35     -0.15
   -5    8    0      3.30     -0.26
   -6    8    0      3.08     -0.34
   -7    8    0      2.56     -0.51
   -9    8    0      1.23     -1.14
  -10    8    0      0.95     -1.07
   14    7    0     -0.30     -0.27
   13    7    0      0.01     -0.10
   12    7    0      0.15     -0.36
   11    7    0      0.34     -0.79
   10    7    0      0.61     -0.64
    9    7    0      0.55     -0.01
    8    7    0      0.14      0.26
    7    7    0      0.00      0.00
    6    7    0      0.41     -0.17
    5    7    0      1.24      0.08
    4    7    0      2.64      0.57
    3    7    0      4.67      1.02
    2    7    0      6.15      1.15
    1    7    0      5.70      0.75
    0    7    0      3.84      0.12
   -1    7    0      2.58      0.01
   -2    7    0      2.88      0.65
   -3    7    0      3.83      1.40
   -4    7    0      4.25      1.52
   -5    7    0      4.00      0.93
   -6    7    0      3.52      0.07
   -7    7    0      3.01     -0.62
   -8    7    0      2.43     -1.05
   -9    7    0      1.87     -1.27
  -10    7    0      1.47     -1.23
  -11    7    0      1.16     -0.83
   14    6    0     -1.04     -0.03
   13    6    0     -0.49      0.32
   12    6    0     -0.13      0.05
   11    6    0      0.18     -0.64
   10    6    0      0.81     -0.73
    9    6    0      1.11     -0.08
    8    6    0      0.50      0.37
    7    6    0     -0.17      0.20
    6    6    0      0.37     -0.03
    5    6    0      2.27      0.14
    4    6    0      4.96      0.50
    3    6    0      7.89      0.75
    2    6    0      9.94      0.69
    1    6    0      9.61      0.16
    0    6    0      7.09     -0.42
   -1    6    0      4.58     -0.18
   -3    6    0      4.65      2.62
   -4    6    0      5.40      3.07
   -5    6    0      5.30      2.21
   -6    6    0      4.57      0.74
   -7    6    0      3.70     -0.44
   -8    6    0      2.98     -1.01
   -9    6    0      2.39     -1.15
  -10    6    0      1.87     -1.14
  -11    6    0      1.44     -0.94
  -12    6    0      0.98     -0.54
   15    5    0     -1.48     -0.24
   14    5    0     -1.62      0.11
   13    5    0     -0.97      0.61
   12    5    0     -0.30      0.39
   11    5    0      0.27     -0.48
   10    5    0      1.11     -0.81
    9    5    0      1.57     -0.23
    8    5    0      0.71      0.32
    7    5    0     -0.56      0.20
    6    5    0     -0.28     -0.05
    5    5    0      2.23      0.08
    4    5    0      6.26      0.37
    3    5    0     10.95      0.52
    2    5    0     14.81      0.51
    1    5    0     15.59      0.26
    0    5    0     12.71     -0.02
   -1    5    0      8.54      0.37
   -2    5    0      5.97      1.76
   -3    5    0      5.63      3.33
   -4    5    0      6.23      3.83
   -5    5    0      6.44      2.93
   -6    5    0      5.80      1.32
   -7    5    0      4.61     -0.01
   -8    5    0      3.48     -0.58
   -9    5    0      2.67     -0.59
  -10    5    0      2.02     -0.54
  -11    5    0      1.45     -0.57
  -12    5    0      0.98     -0.46
   14    4    0     -1.66     -0.04
   13    4    0     -1.25      0.55
   12    4    0     -0.46      0.53
   11    4    0      0.37     -0.27
   10    4    0      1.34     -0.75
    9    4    0      1.75     -0.35
    8    4    0      0.62      0.13
    7    4    0     -1.13      0.01
    6    4    0     -1.26     -0.19
    5    4    0      1.39      0.04
    4    4    0      6.85      0.37
    3    4    0     14.94      0.47
    2    4    0     23.57      0.54
    1    4    0     27.98      0.70
    0    4    0     25.17      0.91
   -1    4    0     17.79      1.45
   -2    4    0     11.16      2.58
   -3    4    0      7.89      3.77
   -4    4    0      7.12      4.06
   -5    4    0      7.08      3.18
   -6    4    0      6.57      1.74
   -7    4    0      5.24      0.57
   -8    4    0      3.63      0.10
   -9    4    0      2.44      0.17
  -10    4    0      1.71      0.28
  -11    4    0      1.15      0.11
  -12    4    0      0.76     -0.13
  -13    4    0      0.52     -0.13
   14    3    0     -1.23     -0.27
   13    3    0     -1.23      0.34
   12    3    0     -0.62      0.63
   11    3    0      0.32      0.11
   10    3    0      1.34     -0.45
    9    3    0      1.61     -0.38
    8    3    0      0.28     -0.15
    7    3    0     -1.59     -0.33
    6    3    0     -1.82     -0.51
    5    3    0      0.79     -0.25
    4    3    0      7.36     -0.02
    3    3    0     19.78     -0.18
    2    3    0     36.17     -0.22
    0    3    0     46.71      1.22
   -1    3    0     34.58      2.10
   -2    3    0     20.90      2.94
   -3    3    0     12.33      3.55
   -4    3    0      8.78      3.47
   -5    3    0      7.57      2.64
   -7    3    0      5.38      0.76
   -8    3    0      3.47      0.45
   -9    3    0      1.88      0.51
  -10    3    0      1.06      0.59
  -11    3    0      0.66      0.40
  -12    3    0      0.43      0.01
  -13    3    0      0.37     -0.22
   14    2    0     -0.51     -0.35
   13    2    0     -0.82      0.12
   12    2    0     -0.60      0.61
   11    2    0      0.08      0.43
   10    2    0      0.94     -0.13
    9    2    0      1.09     -0.40
    8    2    0     -0.13     -0.48
    7    2    0     -1.63     -0.76
    6    2    0     -1.44     -0.95
    5    2    0      1.30     -0.73
    4    2    0      8.52     -0.55
    3    2    0     24.79     -0.80
    1    2    0     72.13      0.11
    0    2    0     75.55      1.59
   -1    2    0     58.73      2.67
   -2    2    0     35.42      3.00
   -3    2    0     18.77      2.78
   -4    2    0     10.89      2.22
   -5    2    0      7.68      1.47
   -6    2    0      6.05      0.82
   -7    2    0      4.69      0.45
   -8    2    0      2.99      0.29
   -9    2    0      1.35      0.21
  -10    2    0      0.45      0.15
  -11    2    0      0.18      0.05
  -12    2    0      0.12     -0.15
  -13    2    0      0.21     -0.34
   14    1    0      0.23     -0.23
   13    1    0     -0.21     -0.02
   12    1    0     -0.42      0.47
   11    1    0     -0.25      0.59
   10    1    0      0.24      0.20
    9    1    0      0.47     -0.26
    8    1    0     -0.21     -0.58
    7    1    0     -0.96     -0.90
    6    1    0     -0.07     -1.06
    5    1    0      3.15     -0.84
    4    1    0     10.82     -0.61
    3    1    0     29.32     -0.76
    2    1    0     61.27     -0.79
   -3    1    0     26.04      1.96
   -4    1    0     12.68      1.19
   -5    1    0      7.06      0.71
   -6    1    0      4.34      0.44
   -7    1    0      2.95      0.29
   -8    1    0      1.95      0.12
   -9    1    0      0.82     -0.16
  -10    1    0      0.02     -0.43
  -11    1    0     -0.19     -0.48
  -12    1    0     -0.07     -0.33
  -13    1    0      0.21     -0.24
  -14    1    0      0.47     -0.25
   14    0    0      0.57      0.01
   13    0    0      0.17      0.03
   12    0    0     -0.22      0.39
   11    0    0     -0.38      0.68
   10    0    0     -0.14      0.52
    9    0    0      0.37      0.08
    8    0    0      0.59     -0.32
    7    0    0      0.72     -0.58
    6    0    0      2.06     -0.71
    5    0    0      5.47     -0.64
    4    0    0     12.82     -0.66
    2    0    0     63.05     -1.58
   -6    3    0      6.76      1.55
   -2    6    0      3.89      1.14
   -8    8    0      1.82     -0.84
  -10    9    0      0.43     -0.85
   -9    9    0      0.53     -0.91
   -8    9    0      1.02     -0.54
   -9   10    0      0.12     -0.60
   -1   12    0     -0.05     -0.07
   -1   14    0      0.22      0.63
   -2   15    0      0.32      0.70
    3   16    0      0.09     -2.14
    5   17    0      0.41     -1.25
   -3    4    1    -10.97     -0.87
  -10    9    1     -0.70      0.28
   -9    9    1     -1.67      0.17
   -8    9    1     -2.87      0.06
   -9   10    1     -1.45      0.05
   -8   10    1     -2.73      0.04
    0   14    1     -1.07     -1.13
    0   15    1     -1.36     -0.91
    4   -6    2     -0.25      1.01
    3   -2    2      4.67     -0.43
    1    1    2    -34.41      1.62
    3    4    2    -20.39     -0.59
   14    6    2      2.08     -1.88
   -9    9    2     -0.23      0.31
   -8    9    2     -0.12      0.76
   -7    9    2     -0.31      1.30
   -9   10    2      0.18      0.26
   -8   10    2      0.43      0.59
   -8   11    2      0.57      0.37
    4   11    2     -1.82     -0.67
    1   12    2      1.30     -0.82
   -1   14    2      0.08     -0.67
    1   -3    3     -4.37      0.14
    1   -2    3     -6.25     -0.09
   12   -1    3     -1.23      1.57
  -13    0    3      0.62     -0.11
   -9    3    3      0.77      0.51
   -4    3    3      0.18     -1.50
    1    3    3      2.21      1.94
    5    4    3    -10.86     -1.84
   -6    5    3      0.04      0.12
   -6    6    3     -0.10      0.38
   -1    6    3      6.61     -2.02
   14    7    3     -0.40     -0.04
   -9    9    3      0.16     -0.09
   -8    9    3      0.59     -0.17
   -7    9    3      0.64     -0.36
   -8   10    3      0.53     -0.17
   -8   11    3      0.62     -0.07
    0   11    3      2.73      0.34
    3   11    3      3.30      0.88
   -2   12    3      1.01      0.32
    1   12    3      2.71      0.46
    3   12    3      3.10      0.84
    3   13    3      2.79      0.63
   -1   14    3     -0.07      0.33
   -6   -7    4      2.48      1.42
   -2   -5    4      4.07     -0.56
   -8    4    4      0.50      0.01
   -1    5    4     -2.56     -0.98
    1    6    4     -0.20     -2.02
    2    7    4      0.91     -2.14
   -7    8    4      1.05     -0.74
   -8    9    4     -0.01     -0.95
   -7    9    4      0.65     -1.03
   -5    9    4      1.24     -0.20
   -8   10    4     -0.28     -0.84
   -7   10    4      0.01     -1.20
    2   10    4      0.07      0.70
    0   11    4     -2.79      0.68
    0   12    4     -2.29      0.68
    1   12    4     -2.00      0.78
   -2   -7    5     -0.65      1.02
    4   -5    5     -0.23      0.32
   -6    4    5     -1.24      0.01
   -2    4    5     -3.67     -0.08
    7    8    5      3.14      0.37
   -7    9    5     -1.15      0.68
    2    9    5     -3.01      1.52
   -8   10    5     -0.29      0.47
   -7   10    5     -0.65      0.67
   -7   11    5     -0.27      0.69
   -5   12    5     -0.65     -0.01
   -3   12    5     -0.22     -0.74
    0   13    5      1.74      0.15
    2   13    5     -1.00      0.08
    8   13    5      3.03      0.69
   -3   14    5      0.33     -0.47
    0   16    5      1.07     -0.41
    5   17    5      0.08      1.24
    3  -11    6      1.67      0.11
    2   -4    6     -3.11      0.15
   -5    1    6     -2.13     -0.04
    0    1    6      0.45     -1.21
   -6    6    6     -0.35      0.59
   -1    7    6      0.06      0.48
   10    8    6      0.77      0.43
   -8    9    6      0.18     -0.30
   -1    9    6      1.86     -0.83
    0    9    6      2.21     -0.10
   -7   10    6     -0.24     -0.87
    0   11    6      2.07     -0.28
    2   12    6      2.10      0.36
   -1   13    6     -0.08      0.14
   -4   -6    7      1.79      0.68
    3    0    7    -13.69      0.60
   -2    3    7     -2.85      1.12
   -1    6    7      0.23      0.58
    4    6    7     -0.58     -1.24
    7    6    7     -0.62      0.23
   -4    9    7      0.46      0.36
   -7   10    7      0.67      0.23
    2   10    7      0.65     -1.35
    9   16    7     -0.40     -1.24
    2   -2    8      1.65     -1.75
    0    1    8      1.28      0.65
    0    4    8      0.16     -0.46
   -1    8    8      1.93     -0.47
    8    9    8      0.81      0.10
   -7   10    8     -0.35     -0.33
   -3   10    8      1.81     -0.18
    3   11    8      0.24     -0.97
   -5   12    8      0.06     -0.05
    0   13    8      0.12      0.36
    2  -12    9      0.04      0.70
    0   -7    9      0.30      0.30
    2    0    9      4.17     -2.33
   -5    6    9      0.73     -0.51
   -4    6    9      0.94     -1.08
   -4    8    9     -0.03     -0.83
   -1    9    9      1.59     -0.64
    0    9    9      1.47     -0.72
   -1   13    9      1.29     -0.85
    2   13    9      0.40      0.57
    2   15    9      0.13      0.58
   -3  -10   10      0.86      0.04
   10    7   10      0.13      0.64
   -7    8   10      0.07      0.00
    1    8   10     -1.02     -0.77
   -3    9   10     -1.19      0.77
    2   14   10     -0.20     -0.03
   -2  -13   11     -0.80      0.55
    5  -11   11     -1.33     -0.58
   -5   -8   11     -1.30      0.18
   -2   -4   11     -2.28     -0.64
   -2    0   11      0.54     -0.91
   -2    4   11      1.14     -0.94
   -5    7   11     -0.56     -0.62
   -2    7   11     -1.08      0.39
   -2   10   11      0.18      0.16
   -8    0   12      1.20     -0.13
    7    0   12      1.10     -0.29
    1    1   12      1.31     -0.57
    1    2   12      1.36      0.12
    2    3   12      1.17      0.66
    8    8   12      0.19     -0.95
    6  -10   13      0.63      0.65
    0   -3   13      2.77     -0.40
    2    3   13     -0.81      0.11
    3    3   13     -0.49      0.17
   -2   10   13      0.01      0.31
    0    0   14     -3.30      0.32
    2    3   14     -2.78     -0.22
    5    8   14     -0.54      0.26
   -7   -1   15      0.30     -0.16
    3    8   16      1.13      0.31
   -1    4   17      0.43      0.25
    0    8   17     -2.00     -0.22
    1    0   18     -0.32     -0.08
    2    2   18      0.11     -0.52
    8    2   18      0.09     -1.35
    3   -3   19     -0.58      0.99
    4   -2   19     -0.32      1.08
   10    7   19      0.51      0.41
    3   -4   20     -1.26      1.39
    4   -3   20     -1.29      1.74
    6   -1   20      0.93      0.42
    3    1   20     -0.26      0.59
    4    1   20      1.12      1.50
    5    1   20      2.28      1.20
    4    2   20      1.03      0.27
    5    2   20      1.81      0.08
    1    3   20      0.52      0.33
    3   -2   21      2.98     -2.87
    3   -1   21      3.27     -4.68
    1    0   21      1.20     -1.00
    4    0   21      0.97     -6.03
    3    2   21      1.23     -1.73
    1    0    0     99.73     -1.28
    3    0    0     30.48     -1.09
   -2    1    0     52.20      2.73
   -1    1    0     84.90      2.79
    0    1    0    103.88      1.70
    1    1    0     93.50      0.11
    2    2    0     50.04     -0.82
    1    3    0     47.86      0.34
   15    3    0     -0.63     -0.38
   15    4    0     -1.22     -0.31
   15    6    0     -1.12     -0.28
   15    7    0     -0.45     -0.33
  -11    8    0      0.72     -0.60
   14   11    0      0.13     -0.15
   13   13    0      0.02     -0.13
   -4   15    0     -0.48      0.19
   10   16    0     -0.43     -0.36
    0   17    0      0.00     -0.44
    8   17    0     -0.23     -0.71
  -11  -15    1      0.13      0.04
    4  -15    1      0.51      0.65
  -12  -14    1      0.02      0.03
   11   -8    1      0.02     -0.44
   14   -2    1      0.15     -0.23
   -1   -1    1    -12.33     -1.48
    0   -1    1     -3.02     -1.72
    1   -1    1      6.94     -0.79
   -1    0    1    -25.27     -1.12
    0    0    1    -13.59     -1.60
    1    0    1      3.38     -0.90
  -14    1    1      0.58     -0.35
    0    1    1    -20.59     -0.04
    1    1    1     -1.22      0.81
   -1    2    1    -30.90      0.53
   15    2    1     -0.89     -0.39
  -12    6    1     -0.27      0.21
   15    8    1      0.72     -0.16
   -4   15    1     -1.60     -0.30
    0   17    1     -0.76     -0.15
   -7  -17    2     -0.70      0.11
    4  -15    2     -0.51      0.14
    0   -1    2     -1.91     -0.39
  -14    0    2     -0.39     -0.35
    0    0    2    -17.84      1.92
    1    0    2    -19.85      1.28
   15    1    2     -0.27      0.67
    0    2    2    -32.39      1.25
   15    9    2      0.29     -0.38
   14   12    2     -0.22      0.00
    0   17    2      0.05     -0.09
    9   17    2      0.02      0.47
   -6  -17    3     -0.79      0.53
   -1  -17    3     -0.80      0.23
    2  -16    3      0.51     -0.09
  -10  -15    3     -0.04      0.23
    4  -15    3     -0.65     -0.71
  -13  -11    3      0.69      0.17
  -14   -8    3      0.34     -0.21
   13   -5    3      0.26     -0.19
    0    0    3     -1.62      2.36
  -12    5    3     -0.27      0.52
  -11    7    3     -0.01      0.22
   -5   14    3      0.51      0.18
   13   14    3     -0.45     -0.17
   12   15    3     -0.33     -0.19
   -2   16    3      0.55     -0.07
   11   16    3     -0.20     -0.08
    9   17    3     -0.04     -0.41
   -4  -17    4      0.22     -0.40
   -3  -17    4     -0.20     -0.17
   -8  -16    4     -0.35     -0.06
  -13  -10    4      0.12      0.14
  -14   -5    4     -0.45      0.26
   13   -5    4     -0.58      0.32
  -14   -4    4     -0.37      0.20
   14   -3    4     -0.34      0.14
    0   -2    4     -1.92      3.19
    0   -1    4     -8.88      3.64
   15    0    4     -0.07      0.20
   15   10    4     -0.31      0.00
   -7   12    4     -0.64     -0.82
   13   14    4      0.22      0.28
   11   16    4      0.40      0.12
   -7  -16    5      0.51     -0.34
    1  -16    5      0.07     -0.25
  -10  -14    5      0.17     -0.11
    5  -14    5      0.33     -0.31
  -11  -13    5      0.27      0.28
  -13   -9    5     -0.23      0.15
   13   -5    5      0.03     -0.64
   14   -3    5      0.05     -0.36
   15    0    5      0.52     -0.23
   -3   15    5      0.45     -0.20
   11   16    5      0.55     -0.05
    1   17    5      0.80     -0.47
   -6  -16    6      0.37     -0.34
    0  -16    6      0.36     -0.50
   -8  -15    6     -0.14     -0.51
    3  -15    6      0.04     -0.09
  -11  -12    6     -0.19     -0.26
  -13   -7    6     -0.09     -0.13
   13   -5    6      0.40      0.13
   14   -3    6      0.76      0.13
  -13   -2    6      0.25      0.25
   15    0    6     -0.20      0.01
  -11    5    6      0.55      0.07
  -10    7    6      0.47      0.18
   -8   10    6      0.05     -0.43
   -4   14    6     -0.26      0.28
   -1   16    6      0.45      0.17
   11   16    6      0.37     -0.01
    9   17    6     -0.95      0.21
   -4  -16    7      0.34      0.04
   -3  -16    7      0.05     -0.01
   -2  -16    7      0.10     -0.13
   -1  -16    7      0.24     -0.29
   -7  -15    7     -0.08     -0.44
    6  -13    7      0.44      0.49
  -12   -9    7      0.18      0.31
   11   -8    7     -0.29      0.15
   13   -5    7      0.26     -0.05
   15    0    7     -0.12     -0.26
   -9    8    7     -0.24     -0.21
   13   14    7     -0.04     -0.09
   11   16    7     -0.96     -0.26
    2   17    7     -0.31      0.93
    9   17    7     -0.13     -1.03
   -6  -15    8     -0.62     -0.37
    4  -14    8     -0.06      0.00
   -9  -13    8      0.56     -0.16
    7  -12    8     -0.10      0.26
  -11  -10    8     -0.14     -0.22
  -12   -7    8     -0.32     -0.17
  -11    3    8     -0.07      0.26
   -8    9    8     -0.40     -0.47
   13   14    8     -0.28      0.55
   12   15    8     -0.36      0.52
    0   16    8      0.61      0.05
    3   17    8     -0.20      0.29
    8   17    8      0.12     -0.36
   -4  -15    9     -0.33      0.76
    0  -15    9      0.61      0.38
   -8  -13    9      0.03      0.08
   -9  -12    9      0.05      0.14
    9  -10    9     -0.43      0.41
   15   10    9      0.45      0.28
   -5   12    9      0.50      0.28
   -1   15    9      0.82     -0.95
    1   16    9      0.61     -0.27
    5   17    9      0.13     -0.54
    6   17    9      0.25     -0.50
    7   17    9      0.29     -0.17
   -5  -14   10      0.62      0.00
    2  -14   10      0.12     -0.20
   -7  -13   10     -0.12     -0.01
   -9  -11   10      0.06      0.25
  -11   -6   10      0.48     -0.02
   13   -4   10     -0.44     -0.70
   14   -2   10      0.30     -0.45
  -11   -1   10     -0.47      0.00
   15    1   10      0.29     -0.07
   -7    9   10      0.19      0.15
   14   12   10     -0.59      0.34
   -2   14   10     -0.89     -0.10
    0   15   10     -0.72     -0.40
    2   16   10      0.38     -0.01
   -3  -14   11     -0.13      0.41
    0  -14   11     -0.95      0.31
    7  -11   11     -0.60     -0.14
   15    2   11      0.28      0.16
   15    9   11     -0.02      0.42
   13   13   11     -0.08     -0.26
   11   15   11      0.02      0.05
    3   16   11      0.34     -0.43
    9   16   11     -0.10      0.02
   -4  -13   12     -0.41     -0.44
    2  -13   12     -0.24      0.48
   -6  -12   12     -0.62     -0.48
   -7  -11   12      0.12      0.20
   -8  -10   12      0.05      0.21
   -9   -8   12      0.04      0.06
   12   -5   12     -0.17     -0.03
  -10   -4   12     -0.25     -0.50
  -10   -3   12     -0.16     -0.57
   13   -3   12      0.50     -0.04
  -10   -2   12      0.07     -0.54
   -9    3   12      0.56     -0.62
   15    3   12      0.18     -0.14
   15    7   12     -0.30     -0.22
   15    8   12     -0.34     -0.34
   -5   10   12     -0.26     -0.03
   14   11   12     -0.48      0.04
   -3   12   12     -0.67     -0.10
    5   16   12      0.16      0.40
    6   16   12      0.02      0.39
    7   16   12     -0.02      0.58
   -6  -11   13      0.29     -0.04
   -7  -10   13     -0.24     -0.43
    7  -10   13      0.23      0.58
   -9    0   13     -0.10     -0.39
   14    0   13     -0.17     -0.23
   -8    4   13     -0.05     -0.44
   -7    6   13     -0.32     -0.20
   14   10   13      0.12     -0.05
   13   12   13     -0.07     -0.11
   -1   13   13     -0.30      0.21
   11   14   13     -0.36      0.62
    3   15   13      0.46     -0.11
   -2  -12   14      0.17      0.08
   -1  -12   14      0.45     -0.03
    0  -12   14      0.53     -0.04
    1  -12   14      0.26      0.14
    6  -10   14      0.04     -0.31
   -8   -6   14      0.12     -0.02
   14    1   14      0.16      0.04
   -5    8   14     -0.54      0.39
   14    9   14      0.09      0.01
    0   13   14      0.40     -0.43
    2   14   14      0.00     -0.84
    5   15   14     -0.07     -0.28
    6   15   14     -0.09     -0.14
    7   15   14     -0.12     -0.22
   -2  -11   15      0.11      0.23
    2  -11   15      0.04     -0.69
   -4  -10   15      0.61      0.77
    5  -10   15     -0.53      0.72
   -6   -8   15      0.02      0.53
    9   -7   15      0.20     -0.71
   -7   -6   15     -0.10      0.36
   14    3   15      0.06      0.30
   14    4   15      0.20      0.32
   -6    5   15     -0.01      0.17
   -5    7   15      0.40      0.24
   14    7   15      0.11      0.20
    4   14   15      0.51      0.18
    9   14   15     -0.75      0.19
    3  -10   16      0.44      0.14
    8   -7   16      0.03      0.25
   -6   -6   16     -0.34      0.19
    9   -6   16      0.11      0.11
   10   -5   16      0.06      0.11
   13    1   16     -0.32      0.01
   -6    3   16      0.10      0.14
   -4    7   16     -0.46     -0.07
   13    9   16     -0.13     -0.17
    1   12   16     -0.41      0.10
   11   12   16     -0.17      0.20
    3   13   16     -0.24      0.31
   -1   -9   17      0.13     -0.13
    3   -9   17     -0.30     -0.23
   -3   -8   17     -0.77      0.36
   -4   -7   17     -0.80      0.40
    7   -7   17     -0.17      0.30
    8   -6   17     -0.06      0.45
   -5   -5   17     -0.01     -0.24
    9   -5   17      0.30      0.18
   10   -4   17      0.62      0.03
   12    0   17     -0.33      0.46
   -5    3   17      0.08      0.05
   13    4   17      0.09      0.34
   13    5   17      0.15      0.67
   13    6   17      0.06      0.79
   -3    7   17     -0.40     -0.05
    1   11   17     -0.48      0.17
   11   11   17      0.03      0.18
    0   -8   18     -0.02      0.19
    1   -8   18      0.66      0.54
    2   -8   18      1.23      0.32
   -2   -7   18     -0.20     -0.29
   -3   -6   18     -0.28     -0.09
    7   -6   18     -0.35     -0.22
    8   -5   18     -0.25     -0.55
   -4   -4   18     -0.45     -0.30
    9   -4   18     -0.43     -0.58
   11   -1   18     -0.21      0.21
   12    2   18      0.06     -0.42
   -4    3   18      0.19      0.09
   -3    5   18      0.15     -0.10
   12    7   18      0.20     -0.32
   -1    8   18      0.41     -0.14
    0    9   18      0.33     -0.25
    1   10   18      0.05     -0.48
    3   11   18     -0.46     -0.56
    5   -6   19      0.42      0.29
   -3   -2   19      0.22     -0.33
   10   -1   19      0.10     -0.20
   -3    1   19     -0.14     -0.03
   -3    2   19      0.07      0.06
   11    2   19     -0.40      0.29
   11    7   19      0.11      0.26
   10    9   19      0.16      0.02
    0   -4   20     -0.10      0.76
    7   -3   20     -0.21     -0.70
    8   -2   20     -0.10     -0.50
   10    2   20      0.83     -0.40
   -1    3   20     -0.13      0.07
   10    3   20      1.24     -0.39
    0    5   20      0.48      0.48
   10    5   20      2.03      0.32
   10    6   20      1.26      0.32
    3    8   20     -0.13      0.12
    5    9   20      0.10      0.36
    6    9   20      0.12      0.16
    7    9   20     -0.02     -0.18
    2   -2   21      2.27     -2.13
    5   -2   21      0.48     -1.95
    1   -1   21      1.31     -1.47
    7    0   21     -2.18     -1.15
    8    1   21     -1.27      0.14
    8    2   21     -0.57      0.68
    1    3   21      0.41      0.69
    2    5   21     -0.02      0.75
    8    5   21     -0.26      0.42
    3    6   21      0.08      0.50
    6    7   21      0.37      0.01
    0    0    0      0.00      0.00
# SQUEEZE RESULTS (Version = 170121)
# Note: Data are Listed for all Voids in the P1 Unit Cell
# i.e. Centre of Gravity, Solvent Accessible Volume,
# Recovered number of Electrons in the Void and
# Details about the Squeezed Material
loop_
  _platon_squeeze_void_nr
  _platon_squeeze_void_average_x
  _platon_squeeze_void_average_y
  _platon_squeeze_void_average_z
  _platon_squeeze_void_volume
  _platon_squeeze_void_count_electrons
  _platon_squeeze_void_content
   1  0.001  0.005 -0.005       476       111 ' '
# Missing Reflections Below sin(th)/lambda = 0.25
loop_
  _platon_missing_refln_index_h
  _platon_missing_refln_index_k
  _platon_missing_refln_index_l
  _platon_missing_refln_theta
    1    0    0     1.716
    3    0    0     5.154
   -2    1    0     4.098
   -1    1    0     2.551
    0    1    0     1.459
    1    1    0     1.908
    2    2    0     3.819
    1    3    0     4.224
   -1   -1    1     2.515
    0   -1    1     1.922
    1   -1    1     2.638
   -1    0    1     2.342
    0    0    1     1.194
    1    0    1     1.804
    0    1    1     1.849
    1    1    1     1.953
   -1    2    1     4.076
    0   -1    2     2.849
    0    0    2     2.389
    1    0    2     2.534
    0    2    2     3.699
    0    0    3     3.585
    0   -2    4     5.705
    0   -1    4     5.056
_platon_squeeze_void_probe_radius                  1.20
_platon_squeeze_details
)
TITL shelx            P 1          R = 0.07
CELL   12.9670   14.6830   17.8660     82.66     72.78     72.01
SPGR P1
# Solvent Accessible Volume =       476
# Electrons Found in S.A.V. =       110
# Note: Atoms in Void are Labelled as Cxxx and Qxxx for all Others
C101 0.999 0.050 0.090 !       3.78 eA-3
C102 0.953 0.032 0.244 !       3.63 eA-3
C103 1.000 0.963 0.903 !       3.59 eA-3
C104 0.010 0.011 0.328 !       3.40 eA-3
C105 0.026 0.977 0.764 !       3.33 eA-3
C106 0.991 0.986 0.673 !       3.31 eA-3
C107 0.936 0.983 0.390 !       3.20 eA-3
C108 0.061 0.038 0.603 !       3.14 eA-3
C109 0.908 0.051 0.248 !       3.04 eA-3
C110 0.074 0.916 0.847 !       3.01 eA-3
C111 0.939 0.079 0.132 !       3.00 eA-3
C112 0.105 0.945 0.745 !       2.99 eA-3
C113 0.026 0.052 0.170 !       2.88 eA-3
C114 0.983 0.959 0.810 !       2.26 eA-3
C115 0.984 0.985 0.468 !       2.12 eA-3
C116 0.011 0.015 0.531 !       2.05 eA-3
C117 0.053 0.122 0.622 !       1.98 eA-3
C118 0.942 0.889 0.372 !       1.97 eA-3
C119 1.001 0.114 0.081 !       0.83 eA-3
Q120 0.874 0.115 0.278 !       0.82 eA-3
Q121 0.014 0.895 0.657 !       0.77 eA-3
Q122 0.184 0.595 0.246 !       0.67 eA-3
Q123 0.019 0.102 0.308 !       0.66 eA-3
Q124 0.483 0.502 0.440 !       0.66 eA-3
Q125 0.466 0.565 0.481 !       0.66 eA-3
Q126 0.817 0.418 0.746 !       0.64 eA-3
Q127 0.258 0.433 0.892 !       0.63 eA-3
Q128 0.865 0.939 0.366 !       0.63 eA-3
Q129 0.905 0.035 0.667 !       0.63 eA-3
Q130 0.941 0.061 0.621 !       0.62 eA-3
Q131 0.560 0.442 0.471 !       0.60 eA-3
Q132 0.452 0.462 0.520 !       0.60 eA-3
Q133 0.863 0.123 0.097 !       0.59 eA-3
Q134 0.745 0.566 0.112 !       0.58 eA-3
Q135 0.533 0.493 0.512 !       0.58 eA-3
Q136 0.969 0.179 0.625 !       0.57 eA-3
C137 1.005 0.104 0.037 !       0.57 eA-3
Q138 0.665 0.485 0.158 !       0.56 eA-3
C139 0.090 0.974 0.912 !       0.56 eA-3
C140 0.893 0.966 0.917 !       0.56 eA-3
Q141 0.545 0.534 0.458 !       0.56 eA-3
Q142 0.329 0.473 0.894 !       0.55 eA-3
C143 0.027 0.920 0.407 !       0.55 eA-3
C144 0.893 0.943 0.875 !       0.54 eA-3
Q145 0.058 0.254 0.716 !       0.54 eA-3
C146 0.086 0.961 0.437 !       0.53 eA-3
C147 0.953 0.940 0.564 !       0.53 eA-3
C148 0.970 0.066 0.420 !       0.53 eA-3
Q149 0.350 0.522 0.832 !       0.53 eA-3
C150 0.125 0.861 0.784 !       0.53 eA-3
Q151 0.044 0.890 0.392 !       0.52 eA-3
Q152 0.872 0.062 0.544 !       0.51 eA-3
)
;
_shelx_fab_checksum              48181
loop_
_space_group_symop_operation_xyz
'x, y, z'
loop_
_atom_site_label
_atom_site_type_symbol
_atom_site_fract_x
_atom_site_fract_y
_atom_site_fract_z
_atom_site_U_iso_or_equiv
_atom_site_adp_type
_atom_site_occupancy
_atom_site_site_symmetry_order
_atom_site_calc_flag
_atom_site_refinement_flags_posn
_atom_site_refinement_flags_adp
_atom_site_refinement_flags_occupancy
_atom_site_disorder_assembly
_atom_site_disorder_group
Zn1 Zn 0.30146(4) 0.47549(4) 0.85762(3) 0.01584(13) Uani 1 1 d . . . . .
Zn2 Zn 0.50131(4) 0.49915(4) 0.48080(3) 0.01353(13) Uani 1 1 d . . . . .
Zn3 Zn 0.69982(4) 0.52947(4) 0.14034(3) 0.01450(13) Uani 1 1 d . . . . .
Cl1 Cl 0.89105(12) 0.43360(12) 0.56746(9) 0.0359(4) Uani 1 1 d . . . . .
Cl2 Cl 0.93066(12) 0.28813(12) 0.29249(9) 0.0347(4) Uani 1 1 d . . . . .
Cl3 Cl 0.08452(12) 0.69879(12) 0.71837(8) 0.0363(4) Uani 1 1 d . . . . .
Cl4 Cl 0.11184(12) 0.58089(12) 0.43575(9) 0.0385(4) Uani 1 1 d . . . . .
O1 O 0.5286(3) 0.1477(3) 0.6729(2) 0.0229(8) Uani 1 1 d . . . . .
O2 O 0.4745(3) 0.8570(3) 0.3310(2) 0.0237(8) Uani 1 1 d . . . . .
N1 N 0.4641(3) 0.3905(3) 0.8551(2) 0.0162(9) Uani 1 1 d . . . . .
N1L N 0.3527(3) 0.5313(3) 0.7392(2) 0.0206(10) Uani 1 1 d . . . . .
H1LA H 0.394098 0.481576 0.707310 0.025 Uiso 1 1 calc R U . . .
H1LB H 0.290311 0.561969 0.722672 0.025 Uiso 1 1 calc R U . . .
N2 N 0.3251(3) 0.5750(3) 0.9205(2) 0.0170(9) Uani 1 1 d . . . . .
N2L N 0.5819(4) 0.4833(3) 0.6548(3) 0.0330(12) Uani 1 1 d . . . . .
H2LC H 0.653812 0.464137 0.653232 0.040 Uiso 1 1 calc R U . . .
H2LD H 0.546902 0.441068 0.653436 0.040 Uiso 1 1 calc R U . . .
N3 N 0.1315(3) 0.5415(3) 0.8956(2) 0.0169(9) Uani 1 1 d . . . . .
N3L N 0.4657(3) 0.5119(3) 0.3667(2) 0.0189(9) Uani 1 1 d . . . . .
H3LA H 0.389459 0.533584 0.376140 0.023 Uiso 1 1 calc R U . . .
H3LB H 0.493245 0.559713 0.338735 0.023 Uiso 1 1 calc R U . . .
N4L N 0.6908(3) 0.4607(3) 0.2575(2) 0.0192(9) Uani 1 1 d . . . . .
H4LA H 0.763770 0.433420 0.258276 0.023 Uiso 1 1 calc R U . . .
H4LB H 0.663320 0.509864 0.290841 0.023 Uiso 1 1 calc R U . . .
N4 N 0.2695(3) 0.3511(3) 0.8381(3) 0.0186(9) Uani 1 1 d . . . . .
N5 N 0.6412(3) 0.5503(3) 0.4484(2) 0.0150(9) Uani 1 1 d . . . . .
N6 N 0.4000(3) 0.6395(3) 0.5000(2) 0.0135(9) Uani 1 1 d . . . . .
N7 N 0.3670(3) 0.4519(3) 0.5484(2) 0.0153(9) Uani 1 1 d . . . . .
N8 N 0.6079(3) 0.3635(3) 0.4977(2) 0.0154(9) Uani 1 1 d . . . . .
N9 N 0.5362(3) 0.6107(3) 0.1518(2) 0.0176(9) Uani 1 1 d . . . . .
N10 N 0.6764(3) 0.4306(3) 0.0784(2) 0.0159(9) Uani 1 1 d . . . . .
N11 N 0.8711(3) 0.4651(3) 0.1009(2) 0.0180(10) Uani 1 1 d . . . . .
N12 N 0.7320(3) 0.6524(3) 0.1641(2) 0.0160(9) Uani 1 1 d . . . . .
C1 C 0.5158(4) 0.3006(4) 0.8262(3) 0.0167(11) Uani 1 1 d . . . . .
C1L C 0.4204(4) 0.5988(4) 0.7319(3) 0.0210(11) Uani 1 1 d . . . . .
H1LC H 0.452129 0.584530 0.778168 0.025 Uiso 1 1 calc R U . . .
C2 C 0.6402(4) 0.2819(4) 0.8084(3) 0.0194(11) Uani 1 1 d . . . . .
C2L C 0.3466(4) 0.7028(4) 0.7379(3) 0.0246(12) Uani 1 1 d . . . . .
H2LA H 0.315299 0.721207 0.692029 0.030 Uiso 1 1 calc R U . . .
H2LB H 0.282795 0.709086 0.785820 0.030 Uiso 1 1 calc R U . . .
C3 C 0.6561(4) 0.3599(4) 0.8320(3) 0.0196(11) Uani 1 1 d . . . . .
C3L C 0.4150(5) 0.7696(4) 0.7406(3) 0.0320(13) Uani 1 1 d . . . . .
H3LC H 0.438142 0.756532 0.789870 0.038 Uiso 1 1 calc R U . . .
H3LD H 0.367770 0.836931 0.739957 0.038 Uiso 1 1 calc R U . . .
C4 C 0.5459(4) 0.4260(4) 0.8628(3) 0.0169(11) Uani 1 1 d . . . . .
C4L C 0.5196(5) 0.7551(5) 0.6704(4) 0.0333(14) Uani 1 1 d . . . . .
H4LC H 0.495875 0.778847 0.621922 0.040 Uiso 1 1 calc R U . . .
H4LD H 0.566964 0.793688 0.676530 0.040 Uiso 1 1 calc R U . . .
C5L C 0.5894(5) 0.6510(4) 0.6617(3) 0.0321(14) Uani 1 1 d . . . . .
H5LA H 0.651406 0.645065 0.612716 0.039 Uiso 1 1 calc R U . . .
H5LB H 0.623463 0.630211 0.706131 0.039 Uiso 1 1 calc R U . . .
C5 C 0.5285(4) 0.5120(4) 0.8981(3) 0.0190(11) Uani 1 1 d . . . . .
H5A H 0.593799 0.524586 0.902842 0.023 Uiso 1 1 calc R U . . .
C6 C 0.4271(4) 0.5801(4) 0.9265(3) 0.0169(11) Uani 1 1 d . . . . .
C6L C 0.5200(4) 0.5860(4) 0.6598(3) 0.0253(13) Uani 1 1 d . . . . .
H6LA H 0.490125 0.605694 0.612779 0.030 Uiso 1 1 calc R U . . .
C7L C 0.5044(4) 0.4313(4) 0.3132(3) 0.0199(11) Uani 1 1 d . . . . .
H7LA H 0.485259 0.455745 0.262648 0.024 Uiso 1 1 calc R U . . .
C7 C 0.4118(4) 0.6683(4) 0.9636(3) 0.0167(11) Uani 1 1 d . . . . .
C8L C 0.4422(5) 0.3566(4) 0.3522(3) 0.0261(12) Uani 1 1 d . . . . .
H8LA H 0.453454 0.338071 0.405068 0.031 Uiso 1 1 calc R U . . .
H8LB H 0.360400 0.385062 0.358295 0.031 Uiso 1 1 calc R U . . .
C8 C 0.2999(4) 0.7151(4) 0.9803(3) 0.0193(11) Uani 1 1 d . . . . .
C9 C 0.2455(4) 0.6574(4) 0.9524(3) 0.0181(11) Uani 1 1 d . . . . .
C9L C 0.4847(5) 0.2675(5) 0.3036(3) 0.0341(14) Uani 1 1 d . . . . .
H9LA H 0.448108 0.218431 0.332397 0.041 Uiso 1 1 calc R U . . .
H9LB H 0.463738 0.284270 0.253504 0.041 Uiso 1 1 calc R U . . .
C10L C 0.6101(5) 0.2268(4) 0.2867(3) 0.0338(14) Uani 1 1 d . . . . .
H10A H 0.635546 0.171166 0.253008 0.041 Uiso 1 1 calc R U . . .
H10B H 0.630400 0.204111 0.336440 0.041 Uiso 1 1 calc R U . . .
C10 C 0.1331(4) 0.6814(4) 0.9555(3) 0.0187(11) Uani 1 1 d . . . . .
H10C H 0.087307 0.740712 0.978197 0.022 Uiso 1 1 calc R U . . .
C11 C 0.0792(4) 0.6291(4) 0.9294(3) 0.0187(11) Uani 1 1 d . . . . .
C11L C 0.6698(5) 0.3009(4) 0.2459(3) 0.0258(13) Uani 1 1 d . . . . .
H11A H 0.652874 0.321405 0.194769 0.031 Uiso 1 1 calc R U . . .
H11B H 0.752276 0.272393 0.235848 0.031 Uiso 1 1 calc R U . . .
C12L C 0.6313(4) 0.3883(3) 0.2970(3) 0.0191(10) Uani 1 1 d . . . . .
H12A H 0.649956 0.366776 0.347993 0.023 Uiso 1 1 calc R U . . .
C12 C -0.0416(4) 0.6551(4) 0.9373(3) 0.0219(12) Uani 1 1 d . . . . .
C13 C -0.0597(4) 0.5817(4) 0.9088(3) 0.0209(12) Uani 1 1 d . . . . .
C14 C 0.0480(4) 0.5112(4) 0.8835(3) 0.0204(12) Uani 1 1 d . . . . .
C15 C 0.0666(4) 0.4223(4) 0.8543(3) 0.0230(12) Uani 1 1 d . . . . .
H15A H 0.003508 0.411811 0.843916 0.028 Uiso 1 1 calc R U . . .
C16 C 0.1661(4) 0.3461(4) 0.8381(3) 0.0210(12) Uani 1 1 d . . . . .
C17 C 0.1694(4) 0.2502(4) 0.8273(3) 0.0235(12) Uani 1 1 d . . . . .
C18 C 0.2771(4) 0.1932(4) 0.8249(3) 0.0224(12) Uani 1 1 d . . . . .
C19 C 0.3416(4) 0.2590(4) 0.8281(3) 0.0175(11) Uani 1 1 d . . . . .
C20 C 0.4586(4) 0.2357(4) 0.8195(3) 0.0172(11) Uani 1 1 d . . . . .
C21 C 0.7356(4) 0.2023(4) 0.7641(3) 0.0236(12) Uani 1 1 d . . . . .
H21A H 0.805512 0.197367 0.778185 0.028 Uiso 1 1 calc R U . . .
H21B H 0.717566 0.140569 0.779049 0.028 Uiso 1 1 calc R U . . .
C22 C 0.7539(6) 0.2218(5) 0.6767(4) 0.0456(18) Uani 1 1 d . . . . .
H22A H 0.809093 0.165988 0.648927 0.068 Uiso 1 1 calc R U . . .
H22B H 0.782157 0.277958 0.660860 0.068 Uiso 1 1 calc R U . . .
H22C H 0.682437 0.233953 0.663680 0.068 Uiso 1 1 calc R U . . .
C23 C 0.7660(4) 0.3783(4) 0.8257(4) 0.0248(13) Uani 1 1 d . . . . .
H23A H 0.825634 0.317293 0.821174 0.037 Uiso 1 1 calc R U . . .
H23B H 0.759674 0.409842 0.872706 0.037 Uiso 1 1 calc R U . . .
H23C H 0.784462 0.419725 0.779253 0.037 Uiso 1 1 calc R U . . .
C24 C 0.5033(4) 0.6994(4) 0.9788(3) 0.0207(11) Uani 1 1 d . . . . .
H24A H 0.568502 0.642492 0.979430 0.025 Uiso 1 1 calc R U . . .
H24B H 0.475616 0.726942 1.031293 0.025 Uiso 1 1 calc R U . . .
C25 C 0.5423(5) 0.7725(5) 0.9186(4) 0.0341(14) Uani 1 1 d . . . . .
H25A H 0.604058 0.787777 0.930493 0.051 Uiso 1 1 calc R U . . .
H25B H 0.479460 0.830891 0.920114 0.051 Uiso 1 1 calc R U . . .
H25C H 0.568540 0.746336 0.866313 0.051 Uiso 1 1 calc R U . . .
C26 C 0.2387(4) 0.8080(4) 1.0206(3) 0.0268(13) Uani 1 1 d . . . . .
H26A H 0.292581 0.832910 1.034059 0.040 Uiso 1 1 calc R U . . .
H26B H 0.182151 0.797292 1.068510 0.040 Uiso 1 1 calc R U . . .
H26C H 0.201344 0.854464 0.985445 0.040 Uiso 1 1 calc R U . . .
C27 C -0.1275(4) 0.7460(4) 0.9695(4) 0.0278(14) Uani 1 1 d . . . . .
H27A H -0.201871 0.735152 0.989481 0.042 Uiso 1 1 calc R U . . .
H27B H -0.129394 0.796384 0.927813 0.042 Uiso 1 1 calc R U . . .
H27C H -0.107212 0.765965 1.012208 0.042 Uiso 1 1 calc R U . . .
C28 C -0.1695(4) 0.5735(5) 0.9032(3) 0.0267(13) Uani 1 1 d . . . . .
H28A H -0.231666 0.609894 0.945361 0.032 Uiso 1 1 calc R U . . .
H28B H -0.169190 0.505447 0.910944 0.032 Uiso 1 1 calc R U . . .
C29 C -0.1902(5) 0.6117(5) 0.8241(4) 0.0407(17) Uani 1 1 d . . . . .
H29A H -0.259866 0.601282 0.821020 0.061 Uiso 1 1 calc R U . . .
H29B H -0.126859 0.578105 0.782154 0.061 Uiso 1 1 calc R U . . .
H29C H -0.197204 0.680499 0.818278 0.061 Uiso 1 1 calc R U . . .
C30 C 0.0719(5) 0.2182(4) 0.8231(4) 0.0335(15) Uani 1 1 d . . . . .
H30A H 0.098964 0.151432 0.807573 0.050 Uiso 1 1 calc R U . . .
H30B H 0.036396 0.258895 0.784377 0.050 Uiso 1 1 calc R U . . .
H30C H 0.016614 0.223389 0.874641 0.050 Uiso 1 1 calc R U . . .
C31 C 0.3075(5) 0.0850(4) 0.8318(4) 0.0307(14) Uani 1 1 d . . . . .
H31A H 0.388714 0.058329 0.805636 0.037 Uiso 1 1 calc R U . . .
H31B H 0.264529 0.062741 0.804053 0.037 Uiso 1 1 calc R U . . .
C32 C 0.2831(7) 0.0469(6) 0.9164(5) 0.064(2) Uani 1 1 d . . . . .
H32A H 0.303717 -0.023237 0.917604 0.096 Uiso 1 1 calc R U . . .
H32B H 0.202601 0.072286 0.942358 0.096 Uiso 1 1 calc R U . . .
H32C H 0.327130 0.067119 0.943735 0.096 Uiso 1 1 calc R U . . .
C33 C 0.5267(4) 0.1351(4) 0.8075(3) 0.0199(11) Uani 1 1 d . . . . .
C34 C 0.5631(4) 0.0792(4) 0.8701(3) 0.0239(12) Uani 1 1 d . . . . .
H34A H 0.539239 0.106006 0.920189 0.029 Uiso 1 1 calc R U . . .
C35 C 0.6322(5) -0.0129(4) 0.8604(4) 0.0303(14) Uani 1 1 d . . . . .
H35A H 0.654101 -0.049586 0.903872 0.036 Uiso 1 1 calc R U . . .
C36 C 0.6699(5) -0.0526(4) 0.7877(4) 0.0339(15) Uani 1 1 d . . . . .
H36A H 0.718841 -0.116010 0.781165 0.041 Uiso 1 1 calc R U . . .
C37 C 0.6369(5) -0.0003(4) 0.7239(3) 0.0285(13) Uani 1 1 d . . . . .
H37A H 0.663846 -0.027205 0.673681 0.034 Uiso 1 1 calc R U . . .
C38 C 0.5639(4) 0.0916(4) 0.7348(3) 0.0195(11) Uani 1 1 d . . . . .
C51 C 0.5747(4) 0.2821(4) 0.5215(3) 0.0166(11) Uani 1 1 d . . . . .
C52 C 0.6728(4) 0.2002(4) 0.5101(3) 0.0216(12) Uani 1 1 d . . . . .
H52A H 0.673347 0.134948 0.520417 0.026 Uiso 1 1 calc R U . . .
C53 C 0.7643(4) 0.2332(4) 0.4818(3) 0.0201(11) Uani 1 1 d . . . . .
H53A H 0.840955 0.195733 0.469253 0.024 Uiso 1 1 calc R U . . .
C54 C 0.7232(4) 0.3357(4) 0.4743(3) 0.0156(11) Uani 1 1 d . . . . .
C55 C 0.7908(4) 0.3977(4) 0.4443(3) 0.0166(11) Uani 1 1 d . . . . .
C56 C 0.7521(4) 0.4978(4) 0.4298(3) 0.0158(11) Uani 1 1 d . . . . .
C57 C 0.8227(4) 0.5587(4) 0.3932(3) 0.0219(12) Uani 1 1 d . . . . .
H57A H 0.902486 0.539432 0.373493 0.026 Uiso 1 1 calc R U . . .
C58 C 0.7540(4) 0.6480(4) 0.3924(3) 0.0220(12) Uani 1 1 d . . . . .
H58A H 0.776591 0.703791 0.371231 0.026 Uiso 1 1 calc R U . . .
C59 C 0.6403(4) 0.6450(4) 0.4290(3) 0.0170(11) Uani 1 1 d . . . . .
C60 C 0.5459(4) 0.7250(4) 0.4450(3) 0.0165(11) Uani 1 1 d . . . . .
C61 C 0.4319(4) 0.7218(4) 0.4800(3) 0.0160(11) Uani 1 1 d . . . . .
C62 C 0.3356(4) 0.8041(4) 0.4991(3) 0.0182(11) Uani 1 1 d . . . . .
H62A H 0.335789 0.869246 0.492364 0.022 Uiso 1 1 calc R U . . .
C63 C 0.2449(4) 0.7713(4) 0.5283(3) 0.0189(11) Uani 1 1 d . . . . .
H63A H 0.168651 0.808957 0.544977 0.023 Uiso 1 1 calc R U . . .
C64 C 0.2852(4) 0.6684(4) 0.5294(3) 0.0156(11) Uani 1 1 d . . . . .
C65 C 0.2179(4) 0.6052(4) 0.5595(3) 0.0156(10) Uani 1 1 d . . . . .
C66 C 0.2569(4) 0.5066(4) 0.5721(3) 0.0179(11) Uani 1 1 d . . . . .
C67 C 0.1873(4) 0.4454(4) 0.6134(3) 0.0214(12) Uani 1 1 d . . . . .
H67A H 0.108014 0.465309 0.635764 0.026 Uiso 1 1 calc R U . . .
C68 C 0.2554(4) 0.3554(4) 0.6145(3) 0.0210(12) Uani 1 1 d . . . . .
H68A H 0.233685 0.300121 0.638373 0.025 Uiso 1 1 calc R U . . .
C69 C 0.3690(4) 0.3592(4) 0.5718(3) 0.0185(11) Uani 1 1 d . . . . .
C70 C 0.4649(4) 0.2781(4) 0.5557(3) 0.0165(11) Uani 1 1 d . . . . .
C71 C 0.4406(4) 0.1834(4) 0.5713(3) 0.0188(11) Uani 1 1 d . . . . .
C72 C 0.3816(5) 0.1590(4) 0.5277(3) 0.0242(12) Uani 1 1 d . . . . .
H72A H 0.359715 0.202456 0.487189 0.029 Uiso 1 1 calc R U . . .
C73 C 0.3531(5) 0.0736(5) 0.5408(3) 0.0316(14) Uani 1 1 d . . . . .
H73A H 0.311426 0.059252 0.510524 0.038 Uiso 1 1 calc R U . . .
C74 C 0.3866(5) 0.0098(4) 0.5988(3) 0.0290(13) Uani 1 1 d . . . . .
H74A H 0.368071 -0.049153 0.607891 0.035 Uiso 1 1 calc R U . . .
C75 C 0.4467(5) 0.0300(4) 0.6441(3) 0.0252(12) Uani 1 1 d . . . . .
H75A H 0.469391 -0.014517 0.683741 0.030 Uiso 1 1 calc R U . . .
C76 C 0.4732(4) 0.1174(4) 0.6301(3) 0.0196(11) Uani 1 1 d . . . . .
C77 C 0.9159(4) 0.3554(4) 0.4312(3) 0.0207(12) Uani 1 1 d . . . . .
C78 C 0.9701(4) 0.3673(4) 0.4841(3) 0.0251(13) Uani 1 1 d . . . . .
C79 C 1.0834(5) 0.3265(5) 0.4774(4) 0.0368(15) Uani 1 1 d . . . . .
H79A H 1.116734 0.335026 0.515735 0.044 Uiso 1 1 calc R U . . .
C80 C 1.1468(5) 0.2721(5) 0.4121(4) 0.0419(17) Uani 1 1 d . . . . .
H80A H 1.225075 0.243025 0.405986 0.050 Uiso 1 1 calc R U . . .
C81 C 1.1008(5) 0.2595(5) 0.3572(4) 0.0395(17) Uani 1 1 d . . . . .
H81A H 1.145715 0.222145 0.313067 0.047 Uiso 1 1 calc R U . . .
C82 C 0.9859(4) 0.3021(5) 0.3663(3) 0.0280(13) Uani 1 1 d . . . . .
C90 C 0.0922(4) 0.6499(4) 0.5750(3) 0.0198(11) Uani 1 1 d . . . . .
C91 C 0.0260(4) 0.6973(4) 0.6424(3) 0.0255(12) Uani 1 1 d . . . . .
C92 C -0.0886(5) 0.7433(5) 0.6536(4) 0.0363(15) Uani 1 1 d . . . . .
H92A H -0.131398 0.777372 0.699800 0.044 Uiso 1 1 calc R U . . .
C93 C -0.1388(5) 0.7388(5) 0.5969(4) 0.0457(18) Uani 1 1 d . . . . .
H93A H -0.216512 0.770785 0.603522 0.055 Uiso 1 1 calc R U . . .
C94 C -0.0771(5) 0.6883(5) 0.5309(4) 0.0394(16) Uani 1 1 d . . . . .
H94A H -0.112409 0.682729 0.492776 0.047 Uiso 1 1 calc R U . . .
C95 C 0.0371(5) 0.6455(4) 0.5204(4) 0.0277(13) Uani 1 1 d . . . . .
C101 C 0.4836(4) 0.7010(4) 0.1816(3) 0.0160(11) Uani 1 1 d . . . . .
C102 C 0.3614(4) 0.7197(4) 0.1995(3) 0.0199(11) Uani 1 1 d . . . . .
C103 C 0.3441(4) 0.6417(4) 0.1763(3) 0.0185(11) Uani 1 1 d . . . . .
C104 C 0.4527(4) 0.5753(4) 0.1450(3) 0.0166(11) Uani 1 1 d . . . . .
C105 C 0.4722(4) 0.4905(4) 0.1090(3) 0.0150(10) Uani 1 1 d . . . . .
H10D H 0.406848 0.476665 0.105586 0.018 Uiso 1 1 calc R U . . .
C106 C 0.5733(4) 0.4240(4) 0.0776(3) 0.0171(11) Uani 1 1 d . . . . .
C107 C 0.5892(4) 0.3352(4) 0.0416(3) 0.0183(11) Uani 1 1 d . . . . .
C108 C 0.7003(4) 0.2903(4) 0.0218(3) 0.0190(11) Uani 1 1 d . . . . .
C109 C 0.7537(4) 0.3496(4) 0.0459(3) 0.0165(11) Uani 1 1 d . . . . .
C110 C 0.8700(4) 0.3255(4) 0.0410(3) 0.0185(11) Uani 1 1 d . . . . .
H11C H 0.916193 0.266782 0.017593 0.022 Uiso 1 1 calc R U . . .
C111 C 0.9232(4) 0.3787(4) 0.0668(3) 0.0169(11) Uani 1 1 d . . . . .
C112 C 1.0435(4) 0.3503(4) 0.0609(3) 0.0216(12) Uani 1 1 d . . . . .
C113 C 1.0622(4) 0.4235(4) 0.0897(3) 0.0231(12) Uani 1 1 d . . . . .
C114 C 0.9537(4) 0.4950(4) 0.1153(3) 0.0185(11) Uani 1 1 d . . . . .
C115 C 0.9363(4) 0.5831(4) 0.1450(3) 0.0221(12) Uani 1 1 d . . . . .
H11D H 0.999951 0.594384 0.153772 0.027 Uiso 1 1 calc R U . . .
C116 C 0.8365(4) 0.6561(4) 0.1631(3) 0.0211(12) Uani 1 1 d . . . . .
C117 C 0.8306(4) 0.7547(4) 0.1744(3) 0.0240(12) Uani 1 1 d . . . . .
C118 C 0.7247(4) 0.8093(4) 0.1777(3) 0.0228(12) Uani 1 1 d . . . . .
C119 C 0.6611(4) 0.7435(4) 0.1753(3) 0.0189(11) Uani 1 1 d . . . . .
C120 C 0.5432(4) 0.7660(4) 0.1865(3) 0.0161(11) Uani 1 1 d . . . . .
C121 C 0.2682(4) 0.7977(4) 0.2447(3) 0.0247(13) Uani 1 1 d . . . . .
H12B H 0.197082 0.801349 0.232861 0.030 Uiso 1 1 calc R U . . .
H12C H 0.284799 0.859776 0.228135 0.030 Uiso 1 1 calc R U . . .
C122 C 0.2529(6) 0.7805(5) 0.3337(4) 0.0447(18) Uani 1 1 d . . . . .
H12D H 0.187077 0.829789 0.361718 0.067 Uiso 1 1 calc R U . . .
H12E H 0.320264 0.783635 0.346370 0.067 Uiso 1 1 calc R U . . .
H12F H 0.241622 0.717114 0.349750 0.067 Uiso 1 1 calc R U . . .
C123 C 0.2337(4) 0.6230(4) 0.1829(4) 0.0267(13) Uani 1 1 d . . . . .
H12G H 0.171226 0.677263 0.207010 0.040 Uiso 1 1 calc R U . . .
H12H H 0.229082 0.564529 0.215344 0.040 Uiso 1 1 calc R U . . .
H12I H 0.229096 0.614883 0.130438 0.040 Uiso 1 1 calc R U . . .
C124 C 0.4970(4) 0.3017(4) 0.0287(3) 0.0232(12) Uani 1 1 d . . . . .
H12J H 0.522871 0.275838 -0.024398 0.028 Uiso 1 1 calc R U . . .
H12K H 0.430186 0.357709 0.030125 0.028 Uiso 1 1 calc R U . . .
C125 C 0.4615(5) 0.2253(5) 0.0883(4) 0.0356(15) Uani 1 1 d . . . . .
H12L H 0.399019 0.210074 0.077410 0.053 Uiso 1 1 calc R U . . .
H12M H 0.437326 0.249420 0.141224 0.053 Uiso 1 1 calc R U . . .
H12N H 0.525399 0.167390 0.084421 0.053 Uiso 1 1 calc R U . . .
C126 C 0.7601(5) 0.1960(4) -0.0176(3) 0.0263(13) Uani 1 1 d . . . . .
H12O H 0.710381 0.179757 -0.042381 0.039 Uiso 1 1 calc R U . . .
H12P H 0.780184 0.145694 0.021560 0.039 Uiso 1 1 calc R U . . .
H12Q H 0.828729 0.201374 -0.057625 0.039 Uiso 1 1 calc R U . . .
C127 C 1.1274(4) 0.2576(4) 0.0299(3) 0.0285(14) Uani 1 1 d . . . . .
H12R H 1.199035 0.269587 0.000076 0.043 Uiso 1 1 calc R U . . .
H12S H 1.098549 0.230749 -0.004374 0.043 Uiso 1 1 calc R U . . .
H12T H 1.139429 0.212169 0.073861 0.043 Uiso 1 1 calc R U . . .
C128 C 1.1721(4) 0.4284(5) 0.0976(4) 0.0266(13) Uani 1 1 d . . . . .
H12U H 1.174129 0.495893 0.090596 0.032 Uiso 1 1 calc R U . . .
H12V H 1.234597 0.391338 0.055978 0.032 Uiso 1 1 calc R U . . .
C129 C 1.1889(5) 0.3882(6) 0.1780(4) 0.0435(18) Uani 1 1 d . . . . .
H12W H 1.262163 0.390857 0.181043 0.065 Uiso 1 1 calc R U . . .
H12X H 1.186304 0.321611 0.185274 0.065 Uiso 1 1 calc R U . . .
H12Y H 1.128875 0.426580 0.219260 0.065 Uiso 1 1 calc R U . . .
C130 C 0.9304(5) 0.7857(5) 0.1766(4) 0.0349(15) Uani 1 1 d . . . . .
H13A H 0.913146 0.855491 0.169116 0.052 Uiso 1 1 calc R U . . .
H13B H 0.996282 0.755355 0.134713 0.052 Uiso 1 1 calc R U . . .
H13C H 0.946470 0.766220 0.227511 0.052 Uiso 1 1 calc R U . . .
C131 C 0.6926(5) 0.9177(4) 0.1721(4) 0.0330(15) Uani 1 1 d . . . . .
H13D H 0.611791 0.943595 0.199615 0.040 Uiso 1 1 calc R U . . .
H13E H 0.736820 0.940105 0.198641 0.040 Uiso 1 1 calc R U . . .
C132 C 0.7134(6) 0.9555(5) 0.0886(5) 0.058(2) Uani 1 1 d . . . . .
H13F H 0.693452 1.025574 0.087345 0.087 Uiso 1 1 calc R U . . .
H13G H 0.667182 0.935789 0.062745 0.087 Uiso 1 1 calc R U . . .
H13H H 0.793230 0.929675 0.061052 0.087 Uiso 1 1 calc R U . . .
C133 C 0.4729(4) 0.8693(4) 0.1982(3) 0.0178(11) Uani 1 1 d . . . . .
C134 C 0.4357(5) 0.9218(4) 0.1359(3) 0.0252(12) Uani 1 1 d . . . . .
H13I H 0.459466 0.893537 0.086411 0.030 Uiso 1 1 calc R U . . .
C135 C 0.3648(5) 1.0142(5) 0.1446(4) 0.0339(15) Uani 1 1 d . . . . .
H13J H 0.341648 1.050120 0.101303 0.041 Uiso 1 1 calc R U . . .
C136 C 0.3282(5) 1.0537(5) 0.2178(4) 0.0387(16) Uani 1 1 d . . . . .
H13K H 0.277057 1.116210 0.224879 0.046 Uiso 1 1 calc R U . . .
C137 C 0.3648(5) 1.0035(4) 0.2807(3) 0.0282(13) Uani 1 1 d . . . . .
H13L H 0.339304 1.031135 0.330552 0.034 Uiso 1 1 calc R U . . .
C138 C 0.4393(4) 0.9123(4) 0.2695(3) 0.0220(12) Uani 1 1 d . . . . .
C151 C 0.5317(4) 0.8868(4) 0.3732(3) 0.0209(12) Uani 1 1 d . . . . .
C152 C 0.5564(5) 0.9743(4) 0.3603(3) 0.0303(14) Uani 1 1 d . . . . .
H15B H 0.531894 1.019107 0.321400 0.036 Uiso 1 1 calc R U . . .
C153 C 0.6164(5) 0.9958(4) 0.4041(4) 0.0330(14) Uani 1 1 d . . . . .
H15C H 0.632443 1.055784 0.395281 0.040 Uiso 1 1 calc R U . . .
C154 C 0.6536(5) 0.9318(4) 0.4605(3) 0.0295(13) Uani 1 1 d . . . . .
H15D H 0.695843 0.946740 0.490072 0.035 Uiso 1 1 calc R U . . .
C155 C 0.6284(4) 0.8454(4) 0.4732(3) 0.0231(12) Uani 1 1 d . . . . .
H15E H 0.653664 0.800810 0.512016 0.028 Uiso 1 1 calc R U . . .
C156 C 0.5663(4) 0.8219(4) 0.4302(3) 0.0195(11) Uani 1 1 d . . . . .
loop_
_atom_site_aniso_label
_atom_site_aniso_U_11
_atom_site_aniso_U_22
_atom_site_aniso_U_33
_atom_site_aniso_U_23
_atom_site_aniso_U_13
_atom_site_aniso_U_12
Zn1 0.0115(3) 0.0158(3) 0.0191(3) -0.0023(2) -0.0018(2) -0.0040(2)
Zn2 0.0107(2) 0.0126(2) 0.0148(3) -0.0009(2) 0.0001(2) -0.00311(18)
Zn3 0.0116(3) 0.0150(3) 0.0161(3) -0.0014(2) -0.0016(2) -0.0044(2)
Cl1 0.0281(8) 0.0419(10) 0.0391(8) -0.0164(7) -0.0134(6) -0.0019(6)
Cl2 0.0246(7) 0.0442(10) 0.0272(7) -0.0136(7) -0.0050(6) 0.0047(6)
Cl3 0.0238(7) 0.0501(10) 0.0265(7) -0.0127(7) 0.0007(6) -0.0013(6)
Cl4 0.0330(8) 0.0473(10) 0.0402(9) -0.0113(8) -0.0153(6) -0.0096(7)
O1 0.033(2) 0.015(2) 0.0212(19) 0.0008(16) -0.0074(16) -0.0083(16)
O2 0.036(2) 0.016(2) 0.0194(19) 0.0010(16) -0.0069(16) -0.0092(17)
N1 0.012(2) 0.018(2) 0.018(2) -0.0024(18) -0.0028(16) -0.0042(17)
N1L 0.017(2) 0.026(3) 0.018(2) -0.0035(19) -0.0026(16) -0.0061(18)
N2 0.013(2) 0.018(2) 0.022(2) -0.0034(19) -0.0037(17) -0.0075(18)
N2L 0.019(2) 0.033(3) 0.040(3) -0.012(2) -0.002(2) 0.000(2)
N3 0.011(2) 0.019(3) 0.017(2) -0.0001(18) -0.0004(16) -0.0034(17)
N3L 0.017(2) 0.017(2) 0.022(2) 0.0002(18) -0.0022(16) -0.0060(17)
N4L 0.013(2) 0.024(2) 0.018(2) -0.0025(18) -0.0015(16) -0.0027(17)
N4 0.013(2) 0.018(2) 0.025(2) -0.0035(19) -0.0029(17) -0.0058(18)
N5 0.016(2) 0.013(2) 0.013(2) 0.0013(17) -0.0006(16) -0.0039(17)
N6 0.009(2) 0.015(2) 0.013(2) -0.0013(17) 0.0013(15) -0.0026(16)
N7 0.011(2) 0.015(2) 0.016(2) -0.0016(18) -0.0011(15) -0.0008(17)
N8 0.015(2) 0.015(2) 0.016(2) -0.0008(18) -0.0019(16) -0.0049(17)
N9 0.016(2) 0.017(2) 0.020(2) -0.0001(18) -0.0043(17) -0.0047(18)
N10 0.014(2) 0.017(2) 0.015(2) -0.0030(18) -0.0018(16) -0.0027(17)
N11 0.014(2) 0.018(3) 0.023(2) 0.0000(19) -0.0035(17) -0.0074(18)
N12 0.014(2) 0.017(2) 0.018(2) -0.0026(18) -0.0025(16) -0.0061(18)
C1 0.017(3) 0.016(3) 0.016(3) -0.001(2) -0.0035(19) -0.005(2)
C1L 0.015(2) 0.028(3) 0.016(3) 0.001(2) -0.0008(19) -0.005(2)
C2 0.013(3) 0.023(3) 0.022(3) -0.004(2) -0.006(2) 0.000(2)
C2L 0.017(3) 0.026(3) 0.023(3) 0.002(2) 0.000(2) -0.004(2)
C3 0.015(3) 0.024(3) 0.019(3) 0.000(2) -0.005(2) -0.004(2)
C3L 0.036(3) 0.024(3) 0.033(3) -0.003(3) -0.007(3) -0.007(2)
C4 0.016(3) 0.019(3) 0.015(2) 0.000(2) -0.0032(19) -0.005(2)
C4L 0.033(3) 0.035(4) 0.034(3) 0.008(3) -0.007(3) -0.019(3)
C5L 0.023(3) 0.044(4) 0.026(3) 0.005(3) -0.001(2) -0.013(3)
C5 0.017(3) 0.020(3) 0.021(3) 0.001(2) -0.003(2) -0.007(2)
C6 0.017(3) 0.016(3) 0.018(3) 0.000(2) -0.0048(19) -0.004(2)
C6L 0.019(3) 0.037(4) 0.015(3) 0.002(2) -0.001(2) -0.006(2)
C7L 0.020(3) 0.020(3) 0.017(3) -0.002(2) -0.001(2) -0.006(2)
C7 0.020(3) 0.014(3) 0.018(3) 0.003(2) -0.005(2) -0.009(2)
C8L 0.028(3) 0.034(3) 0.016(3) 0.001(2) 0.000(2) -0.015(2)
C8 0.021(3) 0.019(3) 0.019(3) -0.002(2) -0.003(2) -0.009(2)
C9 0.016(3) 0.020(3) 0.016(2) 0.000(2) 0.0013(19) -0.008(2)
C9L 0.052(4) 0.035(4) 0.021(3) -0.003(3) -0.003(3) -0.026(3)
C10L 0.055(4) 0.022(3) 0.021(3) -0.006(2) -0.001(3) -0.013(3)
C10 0.017(3) 0.015(3) 0.021(3) -0.003(2) -0.001(2) -0.003(2)
C11 0.009(3) 0.022(3) 0.021(3) 0.001(2) 0.0011(19) -0.003(2)
C11L 0.035(3) 0.022(3) 0.016(3) -0.003(2) 0.001(2) -0.008(2)
C12L 0.020(3) 0.018(3) 0.016(2) 0.000(2) -0.0013(19) -0.003(2)
C12 0.015(3) 0.027(3) 0.022(3) 0.003(2) -0.002(2) -0.008(2)
C13 0.013(3) 0.027(3) 0.021(3) 0.001(2) -0.001(2) -0.006(2)
C14 0.018(3) 0.025(3) 0.018(3) 0.002(2) -0.002(2) -0.011(2)
C15 0.013(3) 0.028(3) 0.029(3) -0.003(3) -0.003(2) -0.010(2)
C16 0.018(3) 0.023(3) 0.022(3) 0.001(2) -0.004(2) -0.009(2)
C17 0.018(3) 0.024(3) 0.028(3) -0.004(2) 0.000(2) -0.010(2)
C18 0.025(3) 0.021(3) 0.021(3) -0.005(2) 0.000(2) -0.010(2)
C19 0.014(3) 0.019(3) 0.019(3) -0.003(2) -0.0021(19) -0.006(2)
C20 0.015(3) 0.017(3) 0.018(3) -0.004(2) -0.0022(19) -0.003(2)
C21 0.014(3) 0.024(3) 0.028(3) -0.005(2) -0.002(2) -0.001(2)
C22 0.040(4) 0.050(5) 0.038(4) -0.010(3) 0.002(3) -0.008(3)
C23 0.013(3) 0.022(3) 0.038(3) -0.007(3) -0.008(2) -0.001(2)
C24 0.019(3) 0.020(3) 0.024(3) -0.002(2) -0.005(2) -0.008(2)
C25 0.031(3) 0.030(4) 0.047(4) 0.006(3) -0.014(3) -0.016(3)
C26 0.019(3) 0.024(3) 0.035(3) -0.008(3) -0.003(2) -0.004(2)
C27 0.015(3) 0.030(4) 0.035(3) -0.009(3) -0.002(2) -0.003(2)
C28 0.015(3) 0.027(3) 0.036(3) -0.002(3) -0.003(2) -0.006(2)
C29 0.036(4) 0.045(4) 0.049(4) 0.010(3) -0.020(3) -0.020(3)
C30 0.023(3) 0.021(3) 0.058(4) -0.013(3) -0.008(3) -0.007(2)
C31 0.020(3) 0.017(3) 0.048(4) 0.000(3) 0.003(2) -0.008(2)
C32 0.068(6) 0.031(4) 0.070(6) 0.005(4) 0.011(4) -0.012(4)
C33 0.018(3) 0.023(3) 0.019(3) 0.001(2) -0.002(2) -0.010(2)
C34 0.026(3) 0.025(3) 0.021(3) 0.000(2) -0.007(2) -0.008(2)
C35 0.036(3) 0.021(3) 0.033(3) 0.009(3) -0.016(3) -0.006(3)
C36 0.030(3) 0.018(3) 0.042(4) 0.001(3) -0.006(3) 0.003(3)
C37 0.030(3) 0.020(3) 0.030(3) -0.003(3) 0.001(2) -0.006(2)
C38 0.018(3) 0.019(3) 0.021(3) 0.002(2) -0.005(2) -0.005(2)
C51 0.020(3) 0.016(3) 0.012(2) -0.004(2) -0.0025(19) -0.003(2)
C52 0.025(3) 0.019(3) 0.018(3) 0.001(2) -0.002(2) -0.006(2)
C53 0.014(3) 0.017(3) 0.024(3) -0.002(2) 0.000(2) -0.002(2)
C54 0.013(3) 0.019(3) 0.010(2) -0.002(2) -0.0002(18) 0.000(2)
C55 0.011(3) 0.023(3) 0.013(2) -0.005(2) -0.0006(19) -0.002(2)
C56 0.009(2) 0.018(3) 0.018(3) -0.006(2) 0.0009(18) -0.0016(19)
C57 0.014(3) 0.023(3) 0.028(3) 0.000(2) -0.003(2) -0.008(2)
C58 0.021(3) 0.023(3) 0.022(3) -0.001(2) 0.000(2) -0.012(2)
C59 0.016(3) 0.017(3) 0.016(3) -0.004(2) -0.0020(19) -0.004(2)
C60 0.018(3) 0.017(3) 0.014(2) -0.001(2) -0.0004(19) -0.008(2)
C61 0.014(3) 0.018(3) 0.012(2) -0.002(2) 0.0021(18) -0.005(2)
C62 0.021(3) 0.012(3) 0.017(3) -0.002(2) -0.001(2) -0.002(2)
C63 0.016(3) 0.020(3) 0.017(3) -0.002(2) -0.0031(19) -0.001(2)
C64 0.013(3) 0.018(3) 0.013(3) -0.002(2) -0.0027(19) -0.002(2)
C65 0.011(2) 0.016(3) 0.016(2) -0.001(2) -0.0016(18) -0.001(2)
C66 0.018(3) 0.021(3) 0.016(3) 0.000(2) -0.005(2) -0.007(2)
C67 0.012(3) 0.024(3) 0.024(3) -0.003(2) 0.0043(19) -0.006(2)
C68 0.016(3) 0.020(3) 0.023(3) 0.003(2) 0.002(2) -0.008(2)
C69 0.022(3) 0.022(3) 0.013(2) 0.002(2) 0.000(2) -0.014(2)
C70 0.017(3) 0.018(3) 0.011(2) 0.002(2) -0.0013(19) -0.005(2)
C71 0.018(3) 0.017(3) 0.016(3) -0.003(2) 0.0017(19) -0.003(2)
C72 0.028(3) 0.023(3) 0.022(3) 0.002(2) -0.007(2) -0.010(2)
C73 0.035(4) 0.031(4) 0.033(3) -0.004(3) -0.007(3) -0.018(3)
C74 0.039(4) 0.022(3) 0.028(3) 0.003(3) -0.005(2) -0.017(3)
C75 0.038(3) 0.014(3) 0.022(3) 0.001(2) -0.006(2) -0.009(2)
C76 0.018(3) 0.016(3) 0.020(3) -0.004(2) -0.002(2) -0.001(2)
C77 0.014(3) 0.019(3) 0.025(3) -0.002(2) -0.001(2) -0.004(2)
C78 0.019(3) 0.027(3) 0.030(3) -0.003(3) -0.007(2) -0.005(2)
C79 0.021(3) 0.043(4) 0.046(4) -0.008(3) -0.014(3) -0.001(3)
C80 0.018(3) 0.053(5) 0.046(4) -0.004(3) -0.009(3) 0.003(3)
C81 0.020(3) 0.047(4) 0.035(4) -0.007(3) 0.001(2) 0.007(3)
C82 0.016(3) 0.035(4) 0.027(3) -0.002(3) -0.004(2) -0.002(2)
C90 0.014(3) 0.017(3) 0.026(3) 0.000(2) -0.003(2) -0.003(2)
C91 0.019(3) 0.021(3) 0.030(3) -0.003(2) 0.001(2) -0.003(2)
C92 0.020(3) 0.033(4) 0.045(4) -0.005(3) -0.001(3) 0.001(3)
C93 0.014(3) 0.048(5) 0.065(5) -0.006(4) -0.008(3) 0.005(3)
C94 0.023(3) 0.042(4) 0.057(4) 0.000(3) -0.021(3) -0.007(3)
C95 0.019(3) 0.023(3) 0.042(4) -0.001(3) -0.007(2) -0.008(2)
C101 0.013(3) 0.020(3) 0.013(2) 0.005(2) -0.0032(19) -0.003(2)
C102 0.019(3) 0.021(3) 0.018(3) 0.001(2) -0.004(2) -0.006(2)
C103 0.017(3) 0.021(3) 0.018(3) 0.000(2) -0.005(2) -0.005(2)
C104 0.014(2) 0.020(3) 0.017(3) 0.005(2) -0.0045(19) -0.008(2)
C105 0.013(2) 0.021(3) 0.013(2) -0.001(2) -0.0043(18) -0.009(2)
C106 0.018(3) 0.021(3) 0.016(2) 0.002(2) -0.0041(19) -0.012(2)
C107 0.020(3) 0.025(3) 0.010(2) -0.001(2) -0.0053(19) -0.006(2)
C108 0.021(3) 0.021(3) 0.014(2) 0.000(2) -0.0042(19) -0.005(2)
C109 0.015(3) 0.019(3) 0.014(2) 0.002(2) -0.0023(18) -0.006(2)
C110 0.014(3) 0.023(3) 0.016(2) -0.004(2) -0.0020(19) -0.002(2)
C111 0.016(3) 0.016(3) 0.015(3) 0.001(2) -0.0012(19) -0.003(2)
C112 0.011(3) 0.026(3) 0.024(3) -0.003(2) 0.000(2) -0.004(2)
C113 0.014(3) 0.023(3) 0.029(3) 0.005(2) -0.002(2) -0.006(2)
C114 0.011(3) 0.019(3) 0.024(3) 0.000(2) -0.003(2) -0.005(2)
C115 0.017(3) 0.026(3) 0.027(3) 0.002(2) -0.009(2) -0.011(2)
C116 0.019(3) 0.021(3) 0.026(3) -0.001(2) -0.004(2) -0.011(2)
C117 0.022(3) 0.023(3) 0.029(3) -0.004(2) -0.004(2) -0.011(2)
C118 0.021(3) 0.019(3) 0.026(3) -0.003(2) 0.002(2) -0.008(2)
C119 0.020(3) 0.024(3) 0.014(2) -0.002(2) -0.003(2) -0.009(2)
C120 0.017(3) 0.016(3) 0.013(2) 0.001(2) -0.0028(19) -0.003(2)
C121 0.014(3) 0.024(3) 0.035(3) -0.006(3) -0.006(2) -0.003(2)
C122 0.035(4) 0.046(5) 0.044(4) -0.015(3) 0.001(3) -0.005(3)
C123 0.013(3) 0.031(4) 0.034(3) -0.004(3) -0.004(2) -0.006(2)
C124 0.022(3) 0.024(3) 0.025(3) -0.006(2) -0.006(2) -0.007(2)
C125 0.039(4) 0.044(4) 0.037(4) 0.009(3) -0.016(3) -0.028(3)
C126 0.024(3) 0.024(3) 0.031(3) -0.010(3) -0.003(2) -0.007(2)
C127 0.014(3) 0.031(4) 0.034(3) -0.008(3) 0.002(2) -0.003(2)
C128 0.009(3) 0.029(4) 0.041(3) 0.000(3) -0.003(2) -0.008(2)
C129 0.027(4) 0.055(5) 0.056(4) 0.011(4) -0.021(3) -0.019(3)
C130 0.022(3) 0.031(4) 0.054(4) -0.011(3) -0.001(3) -0.016(3)
C131 0.023(3) 0.025(4) 0.046(4) -0.011(3) 0.007(3) -0.012(3)
C132 0.051(5) 0.026(4) 0.067(5) 0.003(4) 0.018(4) -0.004(3)
C133 0.015(3) 0.014(3) 0.022(3) 0.001(2) -0.003(2) -0.003(2)
C134 0.030(3) 0.023(3) 0.022(3) 0.001(2) -0.006(2) -0.008(2)
C135 0.037(4) 0.029(4) 0.029(3) 0.008(3) -0.007(3) -0.004(3)
C136 0.035(4) 0.019(3) 0.046(4) -0.002(3) -0.002(3) 0.007(3)
C137 0.036(3) 0.019(3) 0.020(3) -0.001(2) -0.002(2) 0.001(2)
C138 0.024(3) 0.019(3) 0.020(3) -0.002(2) 0.000(2) -0.007(2)
C151 0.023(3) 0.020(3) 0.017(3) -0.005(2) 0.003(2) -0.008(2)
C152 0.039(4) 0.021(3) 0.025(3) 0.002(3) -0.001(2) -0.010(3)
C153 0.046(4) 0.021(3) 0.036(3) -0.002(3) -0.004(3) -0.021(3)
C154 0.036(3) 0.023(3) 0.034(3) 0.001(3) -0.008(3) -0.016(3)
C155 0.019(3) 0.023(3) 0.024(3) 0.000(2) -0.002(2) -0.006(2)
C156 0.017(3) 0.013(3) 0.021(3) -0.002(2) 0.005(2) -0.003(2)
loop_
_atom_type_symbol
_atom_type_description
_atom_type_scat_dispersion_real
_atom_type_scat_dispersion_imag
_atom_type_scat_source
C C 0.0033 0.0016 'International Tables Vol C Tables 4.2.6.8 and 6.1.1.4'
H H 0.0000 0.0000 'International Tables Vol C Tables 4.2.6.8 and 6.1.1.4'
Cl Cl 0.1484 0.1585 'International Tables Vol C Tables 4.2.6.8 and 6.1.1.4'
N N 0.0061 0.0033 'International Tables Vol C Tables 4.2.6.8 and 6.1.1.4'
O O 0.0106 0.0060 'International Tables Vol C Tables 4.2.6.8 and 6.1.1.4'
Zn Zn 0.2839 1.4301 'International Tables Vol C Tables 4.2.6.8 and 6.1.1.4'
loop_
_geom_angle_atom_site_label_1
_geom_angle_atom_site_label_2
_geom_angle_atom_site_label_3
_geom_angle
_geom_angle_site_symmetry_1
_geom_angle_site_symmetry_3
_geom_angle_publ_flag
N3 Zn1 N1 161.90(17) . . ?
N3 Zn1 N4 90.45(17) . . ?
N1 Zn1 N4 86.74(16) . . ?
N3 Zn1 N2 87.39(16) . . ?
N1 Zn1 N2 88.50(16) . . ?
N4 Zn1 N2 157.79(17) . . ?
N3 Zn1 N1L 104.95(16) . . ?
N1 Zn1 N1L 93.13(16) . . ?
N4 Zn1 N1L 101.10(16) . . ?
N2 Zn1 N1L 100.81(17) . . ?
N7 Zn2 N5 161.50(17) . . ?
N7 Zn2 N6 88.84(16) . . ?
N5 Zn2 N6 88.60(16) . . ?
N7 Zn2 N8 88.43(16) . . ?
N5 Zn2 N8 88.10(16) . . ?
N6 Zn2 N8 161.15(17) . . ?
N7 Zn2 N3L 98.81(15) . . ?
N5 Zn2 N3L 99.41(15) . . ?
N6 Zn2 N3L 88.22(15) . . ?
N8 Zn2 N3L 110.62(15) . . ?
N9 Zn3 N11 165.39(17) . . ?
N9 Zn3 N10 90.07(16) . . ?
N11 Zn3 N10 87.73(16) . . ?
N9 Zn3 N12 87.39(16) . . ?
N11 Zn3 N12 89.77(16) . . ?
N10 Zn3 N12 160.08(16) . . ?
N9 Zn3 N4L 102.03(16) . . ?
N11 Zn3 N4L 92.52(16) . . ?
N10 Zn3 N4L 103.52(17) . . ?
N12 Zn3 N4L 96.34(16) . . ?
C76 O1 C38 121.6(4) . . ?
C138 O2 C151 121.9(4) . . ?
C4 N1 C1 107.6(4) . . ?
C4 N1 Zn1 123.2(3) . . ?
C1 N1 Zn1 127.1(3) . . ?
C1L N1L Zn1 112.8(3) . . ?
C1L N1L H1LA 109.0 . . ?
Zn1 N1L H1LA 109.0 . . ?
C1L N1L H1LB 109.0 . . ?
Zn1 N1L H1LB 109.0 . . ?
H1LA N1L H1LB 107.8 . . ?
C9 N2 C6 106.1(4) . . ?
C9 N2 Zn1 126.7(3) . . ?
C6 N2 Zn1 126.4(3) . . ?
C6L N2L H2LC 120.0 . . ?
C6L N2L H2LD 120.0 . . ?
H2LC N2L H2LD 120.0 . . ?
C14 N3 C11 106.2(4) . . ?
C14 N3 Zn1 125.7(4) . . ?
C11 N3 Zn1 127.7(3) . . ?
C7L N3L Zn2 123.7(3) . . ?
C7L N3L H3LA 106.4 . . ?
Zn2 N3L H3LA 106.4 . . ?
C7L N3L H3LB 106.4 . . ?
Zn2 N3L H3LB 106.4 . . ?
H3LA N3L H3LB 106.5 . . ?
C12L N4L Zn3 128.7(3) . . ?
C12L N4L H4LA 105.1 . . ?
Zn3 N4L H4LA 105.1 . . ?
C12L N4L H4LB 105.1 . . ?
Zn3 N4L H4LB 105.1 . . ?
H4LA N4L H4LB 105.9 . . ?
C16 N4 C19 106.6(4) . . ?
C16 N4 Zn1 124.1(4) . . ?
C19 N4 Zn1 129.1(3) . . ?
C56 N5 C59 106.1(4) . . ?
C56 N5 Zn2 127.4(3) . . ?
C59 N5 Zn2 125.7(3) . . ?
C61 N6 C64 105.8(4) . . ?
C61 N6 Zn2 127.6(3) . . ?
C64 N6 Zn2 126.4(3) . . ?
C69 N7 C66 107.1(4) . . ?
C69 N7 Zn2 126.5(3) . . ?
C66 N7 Zn2 126.2(4) . . ?
C54 N8 C51 107.0(4) . . ?
C54 N8 Zn2 126.8(3) . . ?
C51 N8 Zn2 125.3(3) . . ?
C104 N9 C101 106.8(4) . . ?
C104 N9 Zn3 123.8(4) . . ?
C101 N9 Zn3 128.3(3) . . ?
C109 N10 C106 106.1(4) . . ?
C109 N10 Zn3 127.7(3) . . ?
C106 N10 Zn3 124.8(3) . . ?
C111 N11 C114 106.6(4) . . ?
C111 N11 Zn3 127.3(3) . . ?
C114 N11 Zn3 125.5(3) . . ?
C116 N12 C119 107.0(4) . . ?
C116 N12 Zn3 123.7(3) . . ?
C119 N12 Zn3 129.0(3) . . ?
N1 C1 C20 124.7(5) . . ?
N1 C1 C2 108.7(4) . . ?
C20 C1 C2 126.5(5) . . ?
N1L C1L C6L 114.0(4) . . ?
N1L C1L C2L 111.5(4) . . ?
C6L C1L C2L 111.4(4) . . ?
N1L C1L H1LC 106.5 . . ?
C6L C1L H1LC 106.5 . . ?
C2L C1L H1LC 106.5 . . ?
C3 C2 C1 105.9(4) . . ?
C3 C2 C21 123.2(5) . . ?
C1 C2 C21 130.4(5) . . ?
C3L C2L C1L 110.5(4) . . ?
C3L C2L H2LA 109.5 . . ?
C1L C2L H2LA 109.5 . . ?
C3L C2L H2LB 109.5 . . ?
C1L C2L H2LB 109.5 . . ?
H2LA C2L H2LB 108.1 . . ?
C2 C3 C4 107.5(4) . . ?
C2 C3 C23 127.6(5) . . ?
C4 C3 C23 124.9(5) . . ?
C2L C3L C4L 110.5(5) . . ?
C2L C3L H3LC 109.5 . . ?
C4L C3L H3LC 109.5 . . ?
C2L C3L H3LD 109.5 . . ?
C4L C3L H3LD 109.5 . . ?
H3LC C3L H3LD 108.1 . . ?
N1 C4 C5 126.2(5) . . ?
N1 C4 C3 110.1(4) . . ?
C5 C4 C3 123.7(5) . . ?
C5L C4L C3L 112.7(5) . . ?
C5L C4L H4LC 109.0 . . ?
C3L C4L H4LC 109.0 . . ?
C5L C4L H4LD 109.0 . . ?
C3L C4L H4LD 109.0 . . ?
H4LC C4L H4LD 107.8 . . ?
C6L C5L C4L 112.2(5) . . ?
C6L C5L H5LA 109.2 . . ?
C4L C5L H5LA 109.2 . . ?
C6L C5L H5LB 109.2 . . ?
C4L C5L H5LB 109.2 . . ?
H5LA C5L H5LB 107.9 . . ?
C6 C5 C4 127.3(5) . . ?
C6 C5 H5A 116.3 . . ?
C4 C5 H5A 116.3 . . ?
C5 C6 N2 123.5(5) . . ?
C5 C6 C7 125.9(5) . . ?
N2 C6 C7 110.5(4) . . ?
N2L C6L C5L 114.9(5) . . ?
N2L C6L C1L 108.2(4) . . ?
C5L C6L C1L 109.9(5) . . ?
N2L C6L H6LA 107.9 . . ?
C5L C6L H6LA 107.9 . . ?
C1L C6L H6LA 107.9 . . ?
N3L C7L C12L 109.7(4) . . ?
N3L C7L C8L 108.3(4) . . ?
C12L C7L C8L 111.2(4) . . ?
N3L C7L H7LA 109.2 . . ?
C12L C7L H7LA 109.2 . . ?
C8L C7L H7LA 109.2 . . ?
C8 C7 C6 106.3(4) . . ?
C8 C7 C24 127.8(5) . . ?
C6 C7 C24 125.9(4) . . ?
C9L C8L C7L 111.3(4) . . ?
C9L C8L H8LA 109.4 . . ?
C7L C8L H8LA 109.4 . . ?
C9L C8L H8LB 109.4 . . ?
C7L C8L H8LB 109.4 . . ?
H8LA C8L H8LB 108.0 . . ?
C7 C8 C9 107.5(4) . . ?
C7 C8 C26 128.2(5) . . ?
C9 C8 C26 124.4(5) . . ?
C10 C9 N2 124.5(5) . . ?
C10 C9 C8 125.9(5) . . ?
N2 C9 C8 109.6(4) . . ?
C10L C9L C8L 111.2(5) . . ?
C10L C9L H9LA 109.4 . . ?
C8L C9L H9LA 109.4 . . ?
C10L C9L H9LB 109.4 . . ?
C8L C9L H9LB 109.4 . . ?
H9LA C9L H9LB 108.0 . . ?
C9L C10L C11L 111.3(5) . . ?
C9L C10L H10A 109.4 . . ?
C11L C10L H10A 109.4 . . ?
C9L C10L H10B 109.4 . . ?
C11L C10L H10B 109.4 . . ?
H10A C10L H10B 108.0 . . ?
C9 C10 C11 127.4(5) . . ?
C9 C10 H10C 116.3 . . ?
C11 C10 H10C 116.3 . . ?
N3 C11 C10 124.5(5) . . ?
N3 C11 C12 109.8(4) . . ?
C10 C11 C12 125.6(5) . . ?
C10L C11L C12L 110.3(4) . . ?
C10L C11L H11A 109.6 . . ?
C12L C11L H11A 109.6 . . ?
C10L C11L H11B 109.6 . . ?
C12L C11L H11B 109.6 . . ?
H11A C11L H11B 108.1 . . ?
N4L C12L C7L 110.7(4) . . ?
N4L C12L C11L 110.4(4) . . ?
C7L C12L C11L 109.5(4) . . ?
N4L C12L H12A 108.7 . . ?
C7L C12L H12A 108.7 . . ?
C11L C12L H12A 108.7 . . ?
C13 C12 C11 106.4(5) . . ?
C13 C12 C27 127.3(5) . . ?
C11 C12 C27 126.3(5) . . ?
C12 C13 C14 107.1(5) . . ?
C12 C13 C28 127.6(5) . . ?
C14 C13 C28 125.3(5) . . ?
N3 C14 C15 123.5(5) . . ?
N3 C14 C13 110.5(5) . . ?
C15 C14 C13 125.9(5) . . ?
C14 C15 C16 128.7(5) . . ?
C14 C15 H15A 115.7 . . ?
C16 C15 H15A 115.7 . . ?
N4 C16 C15 124.9(5) . . ?
N4 C16 C17 111.2(5) . . ?
C15 C16 C17 123.6(5) . . ?
C18 C17 C16 107.0(5) . . ?
C18 C17 C30 127.1(5) . . ?
C16 C17 C30 125.9(5) . . ?
C17 C18 C19 105.9(5) . . ?
C17 C18 C31 122.8(5) . . ?
C19 C18 C31 130.5(5) . . ?
N4 C19 C20 123.7(5) . . ?
N4 C19 C18 109.0(4) . . ?
C20 C19 C18 127.2(5) . . ?
C1 C20 C19 125.0(5) . . ?
C1 C20 C33 116.3(4) . . ?
C19 C20 C33 118.5(5) . . ?
C22 C21 C2 110.4(5) . . ?
C22 C21 H21A 109.6 . . ?
C2 C21 H21A 109.6 . . ?
C22 C21 H21B 109.6 . . ?
C2 C21 H21B 109.6 . . ?
H21A C21 H21B 108.1 . . ?
C21 C22 H22A 109.5 . . ?
C21 C22 H22B 109.5 . . ?
H22A C22 H22B 109.5 . . ?
C21 C22 H22C 109.5 . . ?
H22A C22 H22C 109.5 . . ?
H22B C22 H22C 109.5 . . ?
C3 C23 H23A 109.5 . . ?
C3 C23 H23B 109.5 . . ?
H23A C23 H23B 109.5 . . ?
C3 C23 H23C 109.5 . . ?
H23A C23 H23C 109.5 . . ?
H23B C23 H23C 109.5 . . ?
C7 C24 C25 113.4(5) . . ?
C7 C24 H24A 108.9 . . ?
C25 C24 H24A 108.9 . . ?
C7 C24 H24B 108.9 . . ?
C25 C24 H24B 108.9 . . ?
H24A C24 H24B 107.7 . . ?
C24 C25 H25A 109.5 . . ?
C24 C25 H25B 109.5 . . ?
H25A C25 H25B 109.5 . . ?
C24 C25 H25C 109.5 . . ?
H25A C25 H25C 109.5 . . ?
H25B C25 H25C 109.5 . . ?
C8 C26 H26A 109.5 . . ?
C8 C26 H26B 109.5 . . ?
H26A C26 H26B 109.5 . . ?
C8 C26 H26C 109.5 . . ?
H26A C26 H26C 109.5 . . ?
H26B C26 H26C 109.5 . . ?
C12 C27 H27A 109.5 . . ?
C12 C27 H27B 109.5 . . ?
H27A C27 H27B 109.5 . . ?
C12 C27 H27C 109.5 . . ?
H27A C27 H27C 109.5 . . ?
H27B C27 H27C 109.5 . . ?
C13 C28 C29 111.5(5) . . ?
C13 C28 H28A 109.3 . . ?
C29 C28 H28A 109.3 . . ?
C13 C28 H28B 109.3 . . ?
C29 C28 H28B 109.3 . . ?
H28A C28 H28B 108.0 . . ?
C28 C29 H29A 109.5 . . ?
C28 C29 H29B 109.5 . . ?
H29A C29 H29B 109.5 . . ?
C28 C29 H29C 109.5 . . ?
H29A C29 H29C 109.5 . . ?
H29B C29 H29C 109.5 . . ?
C17 C30 H30A 109.5 . . ?
C17 C30 H30B 109.5 . . ?
H30A C30 H30B 109.5 . . ?
C17 C30 H30C 109.5 . . ?
H30A C30 H30C 109.5 . . ?
H30B C30 H30C 109.5 . . ?
C18 C31 C32 112.7(5) . . ?
C18 C31 H31A 109.1 . . ?
C32 C31 H31A 109.1 . . ?
C18 C31 H31B 109.1 . . ?
C32 C31 H31B 109.1 . . ?
H31A C31 H31B 107.8 . . ?
C31 C32 H32A 109.5 . . ?
C31 C32 H32B 109.5 . . ?
H32A C32 H32B 109.5 . . ?
C31 C32 H32C 109.5 . . ?
H32A C32 H32C 109.5 . . ?
H32B C32 H32C 109.5 . . ?
C38 C33 C34 116.8(5) . . ?
C38 C33 C20 123.6(5) . . ?
C34 C33 C20 119.5(5) . . ?
C35 C34 C33 121.6(5) . . ?
C35 C34 H34A 119.2 . . ?
C33 C34 H34A 119.2 . . ?
C34 C35 C36 120.2(6) . . ?
C34 C35 H35A 119.9 . . ?
C36 C35 H35A 119.9 . . ?
C35 C36 C37 120.5(6) . . ?
C35 C36 H36A 119.7 . . ?
C37 C36 H36A 119.7 . . ?
C38 C37 C36 119.0(5) . . ?
C38 C37 H37A 120.5 . . ?
C36 C37 H37A 120.5 . . ?
C37 C38 O1 121.6(5) . . ?
C37 C38 C33 121.9(5) . . ?
O1 C38 C33 116.5(5) . . ?
N8 C51 C70 126.1(5) . . ?
N8 C51 C52 109.2(4) . . ?
C70 C51 C52 124.6(5) . . ?
C53 C52 C51 107.3(5) . . ?
C53 C52 H52A 126.3 . . ?
C51 C52 H52A 126.3 . . ?
C52 C53 C54 106.9(4) . . ?
C52 C53 H53A 126.6 . . ?
C54 C53 H53A 126.6 . . ?
N8 C54 C55 125.2(5) . . ?
N8 C54 C53 109.6(4) . . ?
C55 C54 C53 125.2(5) . . ?
C54 C55 C56 126.1(4) . . ?
C54 C55 C77 117.3(5) . . ?
C56 C55 C77 116.4(5) . . ?
N5 C56 C55 124.5(5) . . ?
N5 C56 C57 110.2(5) . . ?
C55 C56 C57 125.3(4) . . ?
C58 C57 C56 106.5(5) . . ?
C58 C57 H57A 126.7 . . ?
C56 C57 H57A 126.7 . . ?
C57 C58 C59 108.3(5) . . ?
C57 C58 H58A 125.9 . . ?
C59 C58 H58A 125.9 . . ?
N5 C59 C60 126.2(5) . . ?
N5 C59 C58 108.6(4) . . ?
C60 C59 C58 125.1(5) . . ?
C59 C60 C61 125.1(5) . . ?
C59 C60 C156 117.3(4) . . ?
C61 C60 C156 117.5(4) . . ?
N6 C61 C62 110.3(4) . . ?
N6 C61 C60 124.7(4) . . ?
C62 C61 C60 125.1(5) . . ?
C63 C62 C61 106.9(5) . . ?
C63 C62 H62A 126.6 . . ?
C61 C62 H62A 126.6 . . ?
C62 C63 C64 107.0(4) . . ?
C62 C63 H63A 126.5 . . ?
C64 C63 H63A 126.5 . . ?
N6 C64 C65 124.3(5) . . ?
N6 C64 C63 110.0(5) . . ?
C65 C64 C63 125.6(5) . . ?
C66 C65 C64 126.2(5) . . ?
C66 C65 C90 117.8(5) . . ?
C64 C65 C90 115.8(5) . . ?
N7 C66 C65 125.7(5) . . ?
N7 C66 C67 109.2(5) . . ?
C65 C66 C67 125.1(5) . . ?
C68 C67 C66 107.5(5) . . ?
C68 C67 H67A 126.2 . . ?
C66 C67 H67A 126.2 . . ?
C67 C68 C69 106.8(5) . . ?
C67 C68 H68A 126.6 . . ?
C69 C68 H68A 126.6 . . ?
N7 C69 C70 126.0(4) . . ?
N7 C69 C68 109.4(5) . . ?
C70 C69 C68 124.6(5) . . ?
C51 C70 C69 124.7(5) . . ?
C51 C70 C71 119.8(5) . . ?
C69 C70 C71 115.3(4) . . ?
C72 C71 C76 117.7(5) . . ?
C72 C71 C70 119.6(5) . . ?
C76 C71 C70 122.8(5) . . ?
C71 C72 C73 122.5(6) . . ?
C71 C72 H72A 118.7 . . ?
C73 C72 H72A 118.7 . . ?
C74 C73 C72 118.7(6) . . ?
C74 C73 H73A 120.6 . . ?
C72 C73 H73A 120.6 . . ?
C73 C74 C75 121.4(6) . . ?
C73 C74 H74A 119.3 . . ?
C75 C74 H74A 119.3 . . ?
C74 C75 C76 118.7(5) . . ?
C74 C75 H75A 120.7 . . ?
C76 C75 H75A 120.7 . . ?
O1 C76 C75 124.4(5) . . ?
O1 C76 C71 114.6(5) . . ?
C75 C76 C71 121.0(5) . . ?
C78 C77 C82 115.1(5) . . ?
C78 C77 C55 121.4(5) . . ?
C82 C77 C55 123.5(5) . . ?
C79 C78 C77 124.2(5) . . ?
C79 C78 Cl1 116.6(4) . . ?
C77 C78 Cl1 119.2(4) . . ?
C78 C79 C80 117.1(6) . . ?
C78 C79 H79A 121.4 . . ?
C80 C79 H79A 121.4 . . ?
C81 C80 C79 122.1(6) . . ?
C81 C80 H80A 119.0 . . ?
C79 C80 H80A 119.0 . . ?
C80 C81 C82 118.8(6) . . ?
C80 C81 H81A 120.6 . . ?
C82 C81 H81A 120.6 . . ?
C81 C82 C77 122.6(5) . . ?
C81 C82 Cl2 117.5(4) . . ?
C77 C82 Cl2 119.9(4) . . ?
C91 C90 C95 116.2(5) . . ?
C91 C90 C65 123.1(5) . . ?
C95 C90 C65 120.7(5) . . ?
C90 C91 C92 122.3(5) . . ?
C90 C91 Cl3 120.0(4) . . ?
C92 C91 Cl3 117.6(4) . . ?
C93 C92 C91 119.1(6) . . ?
C93 C92 H92A 120.4 . . ?
C91 C92 H92A 120.4 . . ?
C94 C93 C92 120.3(6) . . ?
C94 C93 H93A 119.9 . . ?
C92 C93 H93A 119.9 . . ?
C93 C94 C95 119.3(6) . . ?
C93 C94 H94A 120.4 . . ?
C95 C94 H94A 120.4 . . ?
C94 C95 C90 122.6(6) . . ?
C94 C95 Cl4 117.6(5) . . ?
C90 C95 Cl4 119.8(4) . . ?
N9 C101 C120 123.4(4) . . ?
N9 C101 C102 109.3(4) . . ?
C120 C101 C102 127.2(5) . . ?
C103 C102 C101 106.3(5) . . ?
C103 C102 C121 123.0(5) . . ?
C101 C102 C121 130.1(5) . . ?
C102 C103 C104 107.8(4) . . ?
C102 C103 C123 128.3(5) . . ?
C104 C103 C123 123.9(5) . . ?
N9 C104 C105 124.4(5) . . ?
N9 C104 C103 109.7(5) . . ?
C105 C104 C103 125.8(4) . . ?
C106 C105 C104 128.9(4) . . ?
C106 C105 H10D 115.6 . . ?
C104 C105 H10D 115.6 . . ?
N10 C106 C105 124.0(5) . . ?
N10 C106 C107 109.2(4) . . ?
C105 C106 C107 126.8(4) . . ?
C108 C107 C106 107.2(4) . . ?
C108 C107 C124 127.1(5) . . ?
C106 C107 C124 125.8(4) . . ?
C107 C108 C109 106.6(5) . . ?
C107 C108 C126 127.9(5) . . ?
C109 C108 C126 125.5(5) . . ?
N10 C109 C110 123.8(5) . . ?
N10 C109 C108 110.9(4) . . ?
C110 C109 C108 125.1(5) . . ?
C111 C110 C109 126.7(5) . . ?
C111 C110 H11C 116.7 . . ?
C109 C110 H11C 116.7 . . ?
N11 C111 C110 125.0(5) . . ?
N11 C111 C112 110.4(4) . . ?
C110 C111 C112 124.6(5) . . ?
C113 C112 C111 106.1(5) . . ?
C113 C112 C127 128.1(5) . . ?
C111 C112 C127 125.8(5) . . ?
C112 C113 C114 107.1(5) . . ?
C112 C113 C128 126.9(5) . . ?
C114 C113 C128 125.9(5) . . ?
N11 C114 C115 124.5(5) . . ?
N11 C114 C113 109.7(5) . . ?
C115 C114 C113 125.6(5) . . ?
C116 C115 C114 127.3(5) . . ?
C116 C115 H11D 116.4 . . ?
C114 C115 H11D 116.4 . . ?
N12 C116 C115 126.9(5) . . ?
N12 C116 C117 109.2(4) . . ?
C115 C116 C117 123.5(5) . . ?
C118 C117 C116 107.5(5) . . ?
C118 C117 C130 128.6(5) . . ?
C116 C117 C130 123.8(5) . . ?
C117 C118 C119 106.3(5) . . ?
C117 C118 C131 122.6(5) . . ?
C119 C118 C131 130.5(5) . . ?
N12 C119 C120 123.1(5) . . ?
N12 C119 C118 109.9(4) . . ?
C120 C119 C118 127.0(5) . . ?
C119 C120 C101 125.9(5) . . ?
C119 C120 C133 118.6(5) . . ?
C101 C120 C133 115.2(4) . . ?
C102 C121 C122 111.7(5) . . ?
C102 C121 H12B 109.3 . . ?
C122 C121 H12B 109.3 . . ?
C102 C121 H12C 109.3 . . ?
C122 C121 H12C 109.3 . . ?
H12B C121 H12C 107.9 . . ?
C121 C122 H12D 109.5 . . ?
C121 C122 H12E 109.5 . . ?
H12D C122 H12E 109.5 . . ?
C121 C122 H12F 109.5 . . ?
H12D C122 H12F 109.5 . . ?
H12E C122 H12F 109.5 . . ?
C103 C123 H12G 109.5 . . ?
C103 C123 H12H 109.5 . . ?
H12G C123 H12H 109.5 . . ?
C103 C123 H12I 109.5 . . ?
H12G C123 H12I 109.5 . . ?
H12H C123 H12I 109.5 . . ?
C107 C124 C125 114.7(5) . . ?
C107 C124 H12J 108.6 . . ?
C125 C124 H12J 108.6 . . ?
C107 C124 H12K 108.6 . . ?
C125 C124 H12K 108.6 . . ?
H12J C124 H12K 107.6 . . ?
C124 C125 H12L 109.5 . . ?
C124 C125 H12M 109.5 . . ?
H12L C125 H12M 109.5 . . ?
C124 C125 H12N 109.5 . . ?
H12L C125 H12N 109.5 . . ?
H12M C125 H12N 109.5 . . ?
C108 C126 H12O 109.5 . . ?
C108 C126 H12P 109.5 . . ?
H12O C126 H12P 109.5 . . ?
C108 C126 H12Q 109.5 . . ?
H12O C126 H12Q 109.5 . . ?
H12P C126 H12Q 109.5 . . ?
C112 C127 H12R 109.5 . . ?
C112 C127 H12S 109.5 . . ?
H12R C127 H12S 109.5 . . ?
C112 C127 H12T 109.5 . . ?
H12R C127 H12T 109.5 . . ?
H12S C127 H12T 109.5 . . ?
C113 C128 C129 111.3(5) . . ?
C113 C128 H12U 109.4 . . ?
C129 C128 H12U 109.4 . . ?
C113 C128 H12V 109.4 . . ?
C129 C128 H12V 109.4 . . ?
H12U C128 H12V 108.0 . . ?
C128 C129 H12W 109.5 . . ?
C128 C129 H12X 109.5 . . ?
H12W C129 H12X 109.5 . . ?
C128 C129 H12Y 109.5 . . ?
H12W C129 H12Y 109.5 . . ?
H12X C129 H12Y 109.5 . . ?
C117 C130 H13A 109.5 . . ?
C117 C130 H13B 109.5 . . ?
H13A C130 H13B 109.5 . . ?
C117 C130 H13C 109.5 . . ?
H13A C130 H13C 109.5 . . ?
H13B C130 H13C 109.5 . . ?
C132 C131 C118 111.9(5) . . ?
C132 C131 H13D 109.2 . . ?
C118 C131 H13D 109.2 . . ?
C132 C131 H13E 109.2 . . ?
C118 C131 H13E 109.2 . . ?
H13D C131 H13E 107.9 . . ?
C131 C132 H13F 109.5 . . ?
C131 C132 H13G 109.5 . . ?
H13F C132 H13G 109.5 . . ?
C131 C132 H13H 109.5 . . ?
H13F C132 H13H 109.5 . . ?
H13G C132 H13H 109.5 . . ?
C138 C133 C134 118.6(5) . . ?
C138 C133 C120 122.7(5) . . ?
C134 C133 C120 118.7(5) . . ?
C135 C134 C133 121.3(5) . . ?
C135 C134 H13I 119.3 . . ?
C133 C134 H13I 119.3 . . ?
C134 C135 C136 118.8(6) . . ?
C134 C135 H13J 120.6 . . ?
C136 C135 H13J 120.6 . . ?
C137 C136 C135 121.2(6) . . ?
C137 C136 H13K 119.4 . . ?
C135 C136 H13K 119.4 . . ?
C136 C137 C138 118.7(5) . . ?
C136 C137 H13L 120.6 . . ?
C138 C137 H13L 120.6 . . ?
O2 C138 C133 117.1(5) . . ?
O2 C138 C137 121.3(5) . . ?
C133 C138 C137 121.3(5) . . ?
C156 C151 O2 115.1(5) . . ?
C156 C151 C152 120.3(5) . . ?
O2 C151 C152 124.6(5) . . ?
C153 C152 C151 119.9(6) . . ?
C153 C152 H15B 120.0 . . ?
C151 C152 H15B 120.0 . . ?
C152 C153 C154 121.1(6) . . ?
C152 C153 H15C 119.4 . . ?
C154 C153 H15C 119.4 . . ?
C153 C154 C155 118.7(6) . . ?
C153 C154 H15D 120.7 . . ?
C155 C154 H15D 120.7 . . ?
C154 C155 C156 121.5(6) . . ?
C154 C155 H15E 119.2 . . ?
C156 C155 H15E 119.2 . . ?
C151 C156 C155 118.5(5) . . ?
C151 C156 C60 122.9(5) . . ?
C155 C156 C60 118.5(5) . . ?
loop_
_geom_bond_atom_site_label_1
_geom_bond_atom_site_label_2
_geom_bond_distance
_geom_bond_site_symmetry_2
_geom_bond_publ_flag
Zn1 N3 2.055(4) . ?
Zn1 N1 2.083(4) . ?
Zn1 N4 2.084(4) . ?
Zn1 N2 2.095(4) . ?
Zn1 N1L 2.156(4) . ?
Zn2 N7 2.064(4) . ?
Zn2 N5 2.074(4) . ?
Zn2 N6 2.082(4) . ?
Zn2 N8 2.088(4) . ?
Zn2 N3L 2.193(4) . ?
Zn3 N9 2.051(4) . ?
Zn3 N11 2.066(4) . ?
Zn3 N10 2.075(4) . ?
Zn3 N12 2.092(4) . ?
Zn3 N4L 2.191(4) . ?
Cl1 C78 1.752(6) . ?
Cl2 C82 1.737(6) . ?
Cl3 C91 1.745(6) . ?
Cl4 C95 1.748(6) . ?
O1 C76 1.382(6) . ?
O1 C38 1.393(6) . ?
O2 C138 1.384(6) . ?
O2 C151 1.388(6) . ?
N1 C4 1.364(6) . ?
N1 C1 1.370(6) . ?
N1L C1L 1.486(6) . ?
N1L H1LA 0.9100 . ?
N1L H1LB 0.9100 . ?
N2 C9 1.382(6) . ?
N2 C6 1.383(6) . ?
N2L C6L 1.473(7) . ?
N2L H2LC 0.8800 . ?
N2L H2LD 0.8800 . ?
N3 C14 1.370(6) . ?
N3 C11 1.376(7) . ?
N3L C7L 1.485(6) . ?
N3L H3LA 0.9100 . ?
N3L H3LB 0.9100 . ?
N4L C12L 1.489(6) . ?
N4L H4LA 0.9100 . ?
N4L H4LB 0.9100 . ?
N4 C16 1.366(6) . ?
N4 C19 1.385(7) . ?
N5 C56 1.367(6) . ?
N5 C59 1.386(7) . ?
N6 C61 1.368(7) . ?
N6 C64 1.370(6) . ?
N7 C69 1.367(7) . ?
N7 C66 1.372(6) . ?
N8 C54 1.369(6) . ?
N8 C51 1.369(7) . ?
N9 C104 1.379(6) . ?
N9 C101 1.383(7) . ?
N10 C109 1.360(6) . ?
N10 C106 1.375(6) . ?
N11 C111 1.364(7) . ?
N11 C114 1.374(6) . ?
N12 C116 1.368(6) . ?
N12 C119 1.370(7) . ?
C1 C20 1.411(7) . ?
C1 C2 1.492(7) . ?
C1L C6L 1.513(7) . ?
C1L C2L 1.529(7) . ?
C1L H1LC 1.0000 . ?
C2 C3 1.361(8) . ?
C2 C21 1.512(7) . ?
C2L C3L 1.525(8) . ?
C2L H2LA 0.9900 . ?
C2L H2LB 0.9900 . ?
C3 C4 1.449(7) . ?
C3 C23 1.501(7) . ?
C3L C4L 1.531(8) . ?
C3L H3LC 0.9900 . ?
C3L H3LD 0.9900 . ?
C4 C5 1.410(7) . ?
C4L C5L 1.518(8) . ?
C4L H4LC 0.9900 . ?
C4L H4LD 0.9900 . ?
C5L C6L 1.510(8) . ?
C5L H5LA 0.9900 . ?
C5L H5LB 0.9900 . ?
C5 C6 1.381(7) . ?
C5 H5A 0.9500 . ?
C6 C7 1.462(7) . ?
C6L H6LA 1.0000 . ?
C7L C12L 1.521(7) . ?
C7L C8L 1.536(7) . ?
C7L H7LA 1.0000 . ?
C7 C8 1.359(7) . ?
C7 C24 1.499(7) . ?
C8L C9L 1.527(8) . ?
C8L H8LA 0.9900 . ?
C8L H8LB 0.9900 . ?
C8 C9 1.465(7) . ?
C8 C26 1.501(7) . ?
C9 C10 1.375(7) . ?
C9L C10L 1.500(9) . ?
C9L H9LA 0.9900 . ?
C9L H9LB 0.9900 . ?
C10L C11L 1.516(8) . ?
C10L H10A 0.9900 . ?
C10L H10B 0.9900 . ?
C10 C11 1.384(7) . ?
C10 H10C 0.9500 . ?
C11 C12 1.461(7) . ?
C11L C12L 1.537(7) . ?
C11L H11A 0.9900 . ?
C11L H11B 0.9900 . ?
C12L H12A 1.0000 . ?
C12 C13 1.358(8) . ?
C12 C27 1.501(8) . ?
C13 C14 1.442(7) . ?
C13 C28 1.498(7) . ?
C14 C15 1.393(8) . ?
C15 C16 1.403(7) . ?
C15 H15A 0.9500 . ?
C16 C17 1.431(8) . ?
C17 C18 1.379(7) . ?
C17 C30 1.503(7) . ?
C18 C19 1.476(7) . ?
C18 C31 1.512(8) . ?
C19 C20 1.413(7) . ?
C20 C33 1.473(7) . ?
C21 C22 1.511(8) . ?
C21 H21A 0.9900 . ?
C21 H21B 0.9900 . ?
C22 H22A 0.9800 . ?
C22 H22B 0.9800 . ?
C22 H22C 0.9800 . ?
C23 H23A 0.9800 . ?
C23 H23B 0.9800 . ?
C23 H23C 0.9800 . ?
C24 C25 1.510(8) . ?
C24 H24A 0.9900 . ?
C24 H24B 0.9900 . ?
C25 H25A 0.9800 . ?
C25 H25B 0.9800 . ?
C25 H25C 0.9800 . ?
C26 H26A 0.9800 . ?
C26 H26B 0.9800 . ?
C26 H26C 0.9800 . ?
C27 H27A 0.9800 . ?
C27 H27B 0.9800 . ?
C27 H27C 0.9800 . ?
C28 C29 1.520(8) . ?
C28 H28A 0.9900 . ?
C28 H28B 0.9900 . ?
C29 H29A 0.9800 . ?
C29 H29B 0.9800 . ?
C29 H29C 0.9800 . ?
C30 H30A 0.9800 . ?
C30 H30B 0.9800 . ?
C30 H30C 0.9800 . ?
C31 C32 1.519(10) . ?
C31 H31A 0.9900 . ?
C31 H31B 0.9900 . ?
C32 H32A 0.9800 . ?
C32 H32B 0.9800 . ?
C32 H32C 0.9800 . ?
C33 C38 1.407(7) . ?
C33 C34 1.410(8) . ?
C34 C35 1.372(8) . ?
C34 H34A 0.9500 . ?
C35 C36 1.381(8) . ?
C35 H35A 0.9500 . ?
C36 C37 1.390(8) . ?
C36 H36A 0.9500 . ?
C37 C38 1.388(8) . ?
C37 H37A 0.9500 . ?
C51 C70 1.390(7) . ?
C51 C52 1.439(7) . ?
C52 C53 1.355(7) . ?
C52 H52A 0.9500 . ?
C53 C54 1.437(7) . ?
C53 H53A 0.9500 . ?
C54 C55 1.405(7) . ?
C55 C56 1.416(7) . ?
C55 C77 1.503(7) . ?
C56 C57 1.439(7) . ?
C57 C58 1.339(8) . ?
C57 H57A 0.9500 . ?
C58 C59 1.438(7) . ?
C58 H58A 0.9500 . ?
C59 C60 1.397(7) . ?
C60 C61 1.437(7) . ?
C60 C156 1.502(7) . ?
C61 C62 1.434(7) . ?
C62 C63 1.345(7) . ?
C62 H62A 0.9500 . ?
C63 C64 1.437(7) . ?
C63 H63A 0.9500 . ?
C64 C65 1.416(7) . ?
C65 C66 1.391(7) . ?
C65 C90 1.511(7) . ?
C66 C67 1.451(7) . ?
C67 C68 1.345(8) . ?
C67 H67A 0.9500 . ?
C68 C69 1.459(7) . ?
C68 H68A 0.9500 . ?
C69 C70 1.416(7) . ?
C70 C71 1.494(7) . ?
C71 C72 1.383(7) . ?
C71 C76 1.404(8) . ?
C72 C73 1.387(8) . ?
C72 H72A 0.9500 . ?
C73 C74 1.380(9) . ?
C73 H73A 0.9500 . ?
C74 C75 1.388(8) . ?
C74 H74A 0.9500 . ?
C75 C76 1.403(8) . ?
C75 H75A 0.9500 . ?
C77 C78 1.388(8) . ?
C77 C82 1.397(7) . ?
C78 C79 1.379(7) . ?
C79 C80 1.393(9) . ?
C79 H79A 0.9500 . ?
C80 C81 1.347(9) . ?
C80 H80A 0.9500 . ?
C81 C82 1.394(8) . ?
C81 H81A 0.9500 . ?
C90 C91 1.381(7) . ?
C90 C95 1.387(8) . ?
C91 C92 1.393(8) . ?
C92 C93 1.374(9) . ?
C92 H92A 0.9500 . ?
C93 C94 1.371(9) . ?
C93 H93A 0.9500 . ?
C94 C95 1.383(8) . ?
C94 H94A 0.9500 . ?
C101 C120 1.427(7) . ?
C101 C102 1.464(7) . ?
C102 C103 1.367(8) . ?
C102 C121 1.492(7) . ?
C103 C104 1.439(7) . ?
C103 C123 1.508(7) . ?
C104 C105 1.393(7) . ?
C105 C106 1.379(7) . ?
C105 H10D 0.9500 . ?
C106 C107 1.458(7) . ?
C107 C108 1.345(7) . ?
C107 C124 1.510(7) . ?
C108 C109 1.438(7) . ?
C108 C126 1.508(7) . ?
C109 C110 1.418(7) . ?
C110 C111 1.382(7) . ?
C110 H11C 0.9500 . ?
C111 C112 1.459(7) . ?
C112 C113 1.361(8) . ?
C112 C127 1.505(7) . ?
C113 C114 1.455(7) . ?
C113 C128 1.498(7) . ?
C114 C115 1.389(8) . ?
C115 C116 1.383(7) . ?
C115 H11D 0.9500 . ?
C116 C117 1.462(8) . ?
C117 C118 1.348(7) . ?
C117 C130 1.510(7) . ?
C118 C119 1.461(7) . ?
C118 C131 1.514(8) . ?
C119 C120 1.418(7) . ?
C120 C133 1.512(7) . ?
C121 C122 1.541(9) . ?
C121 H12B 0.9900 . ?
C121 H12C 0.9900 . ?
C122 H12D 0.9800 . ?
C122 H12E 0.9800 . ?
C122 H12F 0.9800 . ?
C123 H12G 0.9800 . ?
C123 H12H 0.9800 . ?
C123 H12I 0.9800 . ?
C124 C125 1.525(8) . ?
C124 H12J 0.9900 . ?
C124 H12K 0.9900 . ?
C125 H12L 0.9800 . ?
C125 H12M 0.9800 . ?
C125 H12N 0.9800 . ?
C126 H12O 0.9800 . ?
C126 H12P 0.9800 . ?
C126 H12Q 0.9800 . ?
C127 H12R 0.9800 . ?
C127 H12S 0.9800 . ?
C127 H12T 0.9800 . ?
C128 C129 1.533(9) . ?
C128 H12U 0.9900 . ?
C128 H12V 0.9900 . ?
C129 H12W 0.9800 . ?
C129 H12X 0.9800 . ?
C129 H12Y 0.9800 . ?
C130 H13A 0.9800 . ?
C130 H13B 0.9800 . ?
C130 H13C 0.9800 . ?
C131 C132 1.500(10) . ?
C131 H13D 0.9900 . ?
C131 H13E 0.9900 . ?
C132 H13F 0.9800 . ?
C132 H13G 0.9800 . ?
C132 H13H 0.9800 . ?
C133 C138 1.385(7) . ?
C133 C134 1.390(8) . ?
C134 C135 1.382(8) . ?
C134 H13I 0.9500 . ?
C135 C136 1.388(9) . ?
C135 H13J 0.9500 . ?
C136 C137 1.385(8) . ?
C136 H13K 0.9500 . ?
C137 C138 1.387(8) . ?
C137 H13L 0.9500 . ?
C151 C156 1.380(8) . ?
C151 C152 1.394(8) . ?
C152 C153 1.374(8) . ?
C152 H15B 0.9500 . ?
C153 C154 1.378(9) . ?
C153 H15C 0.9500 . ?
C154 C155 1.381(8) . ?
C154 H15D 0.9500 . ?
C155 C156 1.401(7) . ?
C155 H15E 0.9500 . ?
loop_
_geom_hbond_atom_site_label_D
_geom_hbond_atom_site_label_H
_geom_hbond_atom_site_label_A
_geom_hbond_distance_DH
_geom_hbond_distance_HA
_geom_hbond_distance_DA
_geom_hbond_angle_DHA
_geom_hbond_site_symmetry_A
_geom_hbond_publ_flag
N1L H1LA N2L 0.91 2.34 2.815(6) 112.1 . yes
