#------------------------------------------------------------------------------
#$Date: 2023-07-05 12:43:05 +0300 (Wed, 05 Jul 2023) $
#$Revision: 284896 $
#$URL: file:///home/coder/svn-repositories/cod/cif/1/56/91/1569118.cif $
#------------------------------------------------------------------------------
#
# This file is available in the Crystallography Open Database (COD),
# http://www.crystallography.net/
#
# All data on this site have been placed in the public domain by the
# contributors.
#
data_1569118
loop_
_publ_author_name
'Dhamija, Avinash'
'Chandel, Dolly'
'Rath, Sankar Prasad'
_publ_section_title
;
 Modulation of supramolecular chirality by stepwise axial coordination in
 a nano-size trizinc(ii)porphyrin trimer.
;
_journal_issue                   22
_journal_name_full               'Chemical science'
_journal_page_first              6032
_journal_page_last               6038
_journal_paper_doi               10.1039/d3sc00858d
_journal_volume                  14
_journal_year                    2023
_chemical_formula_sum            'C72 H72 Cl2 N10 O Zn1.5'
_chemical_formula_weight         1262.35
_space_group_crystal_system      triclinic
_space_group_IT_number           2
_space_group_name_Hall           '-P 1'
_space_group_name_H-M_alt        'P -1'
_atom_sites_solution_hydrogens   geom
_audit_creation_method           SHELXL-2014
_audit_update_record
;
2018-06-13 deposited with the CCDC.	2023-05-10 downloaded from the CCDC.
;
_cell_angle_alpha                83.953(5)
_cell_angle_beta                 86.895(5)
_cell_angle_gamma                66.880(5)
_cell_formula_units_Z            2
_cell_length_a                   12.199(5)
_cell_length_b                   14.356(5)
_cell_length_c                   21.640(5)
_cell_measurement_reflns_used    999
_cell_measurement_temperature    100(2)
_cell_measurement_theta_max      25.00
_cell_measurement_theta_min      2.5
_cell_volume                     3466(2)
_computing_cell_refinement       'Bruker SAINT'
_computing_data_collection       'Bruker APEX'
_computing_data_reduction        'Bruker SAINT'
_computing_molecular_graphics    'SHELXL 5.1, XP (Sheldrick, 1994)'
_computing_publication_material  SHELXL-97
_computing_structure_refinement  'SHELXL-2014 (Sheldrick, 2014)'
_computing_structure_solution    'SHELXS-97 (Sheldrick, 2008)'
_diffrn_ambient_temperature      100(2)
_diffrn_measured_fraction_theta_full 0.981
_diffrn_measured_fraction_theta_max 0.995
_diffrn_measurement_device_type  'Bruker SMART APEX'
_diffrn_measurement_method       \w
_diffrn_radiation_type           MoK\a
_diffrn_radiation_wavelength     0.71073
_diffrn_reflns_av_R_equivalents  0.3027
_diffrn_reflns_av_unetI/netI     0.4967
_diffrn_reflns_Laue_measured_fraction_full 0.981
_diffrn_reflns_Laue_measured_fraction_max 0.995
_diffrn_reflns_limit_h_max       14
_diffrn_reflns_limit_h_min       -14
_diffrn_reflns_limit_k_max       17
_diffrn_reflns_limit_k_min       -17
_diffrn_reflns_limit_l_max       25
_diffrn_reflns_limit_l_min       -25
_diffrn_reflns_number            42165
_diffrn_reflns_point_group_measured_fraction_full 0.981
_diffrn_reflns_point_group_measured_fraction_max 0.995
_diffrn_reflns_theta_full        25.242
_diffrn_reflns_theta_max         25.106
_diffrn_reflns_theta_min         2.021
_diffrn_source                   'fine-focus sealed tube'
_exptl_absorpt_coefficient_mu    0.649
_exptl_absorpt_correction_T_max  0.925
_exptl_absorpt_correction_T_min  0.890
_exptl_absorpt_correction_type   multi-scan
_exptl_absorpt_process_details   'SADABS 2.05 (Sheldrick, 2002)'
_exptl_crystal_colour            'dark red'
_exptl_crystal_density_diffrn    1.210
_exptl_crystal_description       block
_exptl_crystal_F_000             1322
_exptl_crystal_size_max          0.200
_exptl_crystal_size_mid          0.150
_exptl_crystal_size_min          0.120
_refine_diff_density_max         0.614
_refine_diff_density_min         -0.794
_refine_diff_density_rms         0.131
_refine_ls_extinction_method     none
_refine_ls_goodness_of_fit_ref   1.013
_refine_ls_hydrogen_treatment    constr
_refine_ls_matrix_type           full
_refine_ls_number_parameters     517
_refine_ls_number_reflns         12311
_refine_ls_number_restraints     0
_refine_ls_restrained_S_all      1.013
_refine_ls_R_factor_all          0.3930
_refine_ls_R_factor_gt           0.1591
_refine_ls_shift/su_max          0.001
_refine_ls_shift/su_mean         0.000
_refine_ls_structure_factor_coef Fsqd
_refine_ls_weighting_details
'w=1/[\s^2^(Fo^2^)+(0.2000P)^2^] where P=(Fo^2^+2Fc^2^)/3'
_refine_ls_weighting_scheme      calc
_refine_ls_wR_factor_gt          0.3490
_refine_ls_wR_factor_ref         0.4507
_reflns_Friedel_coverage         0.000
_reflns_number_gt                3441
_reflns_number_total             12311
_reflns_threshold_expression     'I > 2\s(I)'
_cod_data_source_file            d3sc00858d2.cif
_cod_data_source_block           shelx
_cod_depositor_comments
'Adding full bibliography for 1569118--1569120.cif.'
_cod_original_formula_sum        'C72 H72 Cl2 N10 O Zn1.50'
_cod_database_code               1569118
_shelx_space_group_comment
;
The symmetry employed for this shelxl refinement is uniquely defined
by the following loop, which should always be used as a source of
symmetry information in preference to the above space-group names.
They are only intended as comments.
;
_shelx_estimated_absorpt_t_min   0.881
_shelx_estimated_absorpt_t_max   0.926
_shelxl_version_number           2014-3
_shelx_res_file
;
TITL 10febb_0m in P -1
CELL  0.71073  12.1990  14.3560  21.6400   83.953   86.895   66.880
ZERR     2.00   0.0050   0.0050   0.0050    0.005    0.005    0.005
LATT   1
SFAC  C    H    N    O    ZN  Cl
UNIT  144 144 20 2 3  4
MERG   2
FMAP   2
PLAN   5
omit  -2   4   0
L.S. 12
ABIN
ACTA

TEMP -173.0
size 0.20 0.15 0.12 ! red block
WGHT    0.200000
FVAR       0.08539
ZN1   5    0.895222    0.362920    1.308113    11.00000    0.06777    0.09474 =
         0.08945   -0.03182   -0.01278   -0.03142
ZN2   5    1.000000    0.000000    1.000000    10.50000    0.02776    0.08039 =
         0.07032   -0.01506   -0.00037   -0.01299
CL1   6    1.360449   -0.344147    1.085198    11.00000    0.08500    0.05567 =
         0.20114   -0.03746   -0.04056   -0.01531
CL2   6    1.382871    0.009555    1.128168    11.00000    0.05776    0.06996 =
         0.11953   -0.01297   -0.02615   -0.03103
O1    4    0.700290    0.109426    1.220458    11.00000    0.03602    0.09191 =
         0.07814   -0.03579    0.00416   -0.02363
N1    3    0.794576    0.398196    1.227765    11.00000    0.05488    0.07159 =
         0.09639   -0.04126   -0.02651   -0.00550
N1L   3    1.051546    0.235522    1.278631    11.00000    0.07646    0.10133 =
         0.08783   -0.03920    0.01469   -0.00980
N2L   3    1.250041    0.133304    1.354370    11.00000    0.19332    0.26877 =
         0.26005    0.05879   -0.04092   -0.15167
AFIX  93
H2LA  2    1.220226    0.192631    1.369899    11.00000   -1.20000
H2LB  2    1.327247    0.096881    1.355783    11.00000   -1.20000
AFIX   0
C1L   1    1.072634    0.135108    1.322037    11.00000    0.13416
C2L   1    1.172902    0.096021    1.326791    11.00000    0.29180
C3L   1    1.224899   -0.014383    1.367247    11.00000    0.31860
AFIX  23
H3LA  2    1.308896   -0.055143    1.356341    11.00000   -1.20000
H3LB  2    1.216734   -0.008258    1.412565    11.00000   -1.20000
AFIX   0
C4L   1    1.133993   -0.058595    1.342677    11.00000    0.23883
AFIX  23
H4LA  2    1.163376   -0.079893    1.300805    11.00000   -1.20000
H4LB  2    1.145238   -0.121653    1.369709    11.00000   -1.20000
AFIX   0
C5L   1    1.002125   -0.000951    1.337237    11.00000    0.24183
AFIX  23
H5LA  2    0.964293   -0.038928    1.316635    11.00000   -1.20000
H5LB  2    0.963492    0.015889    1.378288    11.00000   -1.20000
AFIX   0
C6L   1    0.998965    0.078680    1.303258    11.00000    0.10862
AFIX  23
H1LA  2    0.914785    0.127367    1.300963    11.00000   -1.20000
H1LB  2    1.024390    0.058879    1.260701    11.00000   -1.20000
AFIX   0
N2    3    0.963020    0.473132    1.272841    11.00000    0.04522    0.05977 =
         0.12094   -0.04546    0.01033   -0.02688
N3    3    0.960357    0.364784    1.396325    11.00000    0.06952    0.11389 =
         0.09616   -0.04320   -0.01856   -0.03543
N3L   3    0.964388    0.170531    1.020222    11.00000    0.05458    0.11103 =
         0.15284   -0.03609   -0.00269   -0.00357
AFIX  23
H3LC  2    0.931013    0.212182    0.985731    11.00000   -1.20000
H3LD  2    0.909102    0.187942    1.051459    11.00000   -1.20000
AFIX   0
N4    3    0.781755    0.300165    1.349128    11.00000    0.08403    0.08231 =
         0.08520   -0.04785    0.01223   -0.03722
N4L   3    0.996039    0.199808    1.146050    11.00000    0.23525    0.15783 =
         0.10682   -0.04955    0.02987   -0.10694
AFIX  93
H4LC  2    0.958297    0.159395    1.142946    11.00000   -1.20000
H4LD  2    0.995281    0.224827    1.181561    11.00000   -1.20000
AFIX   0
N5    3    0.825345    0.037491    1.027695    11.00000    0.02051    0.04507 =
         0.06466   -0.01826   -0.01765   -0.01001
N6    3    1.050120   -0.059021    1.088603    11.00000    0.02356    0.05314 =
         0.06711   -0.01797   -0.00800   -0.01648
C1    1    0.717117    0.354444    1.214026    11.00000    0.05645    0.06723 =
         0.06435   -0.02919   -0.01263   -0.01132
C2    1    0.694882    0.372953    1.147407    11.00000    0.05951    0.09979 =
         0.06908   -0.04464   -0.00636   -0.02227
C3    1    0.754966    0.432672    1.124675    11.00000    0.04811    0.08581 =
         0.06778   -0.01196   -0.00058   -0.01517
C4    1    0.819018    0.445372    1.172229    11.00000    0.06722    0.07255 =
         0.07003   -0.01901   -0.01971   -0.02493
C5    1    0.890914    0.500589    1.171042    11.00000    0.08522    0.03124 =
         0.10662    0.00259   -0.03102   -0.00625
AFIX  43
H5A   2    0.892209    0.536256    1.131636    11.00000   -1.20000
AFIX   0
C6    1    0.959393    0.515099    1.213169    11.00000    0.06191    0.05457 =
         0.06510   -0.00821   -0.02059   -0.00031
C7    1    1.034047    0.570903    1.205901    11.00000    0.05470    0.06995 =
         0.11998   -0.01681   -0.01238   -0.03461
C7L   1    1.067522    0.193194    1.037405    11.00000    0.13136
C8    1    1.086941    0.563688    1.257920    11.00000    0.08060    0.08250 =
         0.14746   -0.03061    0.00007   -0.05548
C8L   1    1.062318    0.226309    1.090258    11.00000    0.15046
C9    1    1.044663    0.499099    1.304889    11.00000    0.04655    0.07599 =
         0.17552   -0.08137   -0.00013   -0.00063
C9L   1    1.153435    0.262872    1.108182    11.00000    0.14470
AFIX  23
H9LA  2    1.112341    0.328874    1.125966    11.00000   -1.20000
H9LB  2    1.203559    0.213878    1.141106    11.00000   -1.20000
AFIX   0
C10   1    1.078100    0.464224    1.366294    11.00000    0.09257    0.13807 =
         0.07183   -0.00547   -0.02416   -0.04500
AFIX  43
H10A  2    1.138510    0.482668    1.380494    11.00000   -1.20000
AFIX   0
C10L  1    1.230790    0.275712    1.056857    11.00000    0.14671
AFIX  23
H10B  2    1.225567    0.346513    1.055186    11.00000   -1.20000
H10C  2    1.313562    0.230885    1.068481    11.00000   -1.20000
AFIX   0
C11   1    1.038632    0.408566    1.408811    11.00000    0.09064    0.12528 =
         0.09881   -0.02607   -0.04752   -0.04233
C11L  1    1.214526    0.257261    0.993809    11.00000    0.17878
AFIX  23
H11A  2    1.198511    0.321315    0.966956    11.00000   -1.20000
H11B  2    1.290959    0.206558    0.979377    11.00000   -1.20000
AFIX   0
C12   1    1.077231    0.378009    1.469085    11.00000    0.05655    0.21612 =
         0.20608   -0.12984   -0.01581   -0.06152
C12L  1    1.123969    0.222853    0.983843    11.00000    0.09520
AFIX  23
H12A  2    1.158443    0.164029    0.958664    11.00000   -1.20000
H12B  2    1.061558    0.277566    0.958596    11.00000   -1.20000
AFIX   0
C13   1    1.016704    0.325096    1.492969    11.00000    0.12481    0.15833 =
         0.11095   -0.04473   -0.03768   -0.06457
C14   1    0.942408    0.310219    1.448740    11.00000    0.07835    0.20283 =
         0.07159   -0.04647    0.00854   -0.03964
C15   1    0.865985    0.260757    1.457686    11.00000    0.08954    0.23006 =
         0.08787   -0.02560   -0.01580   -0.07641
AFIX  43
H15A  2    0.865795    0.225228    1.497267    11.00000   -1.20000
AFIX   0
C16   1    0.786355    0.258415    1.412039    11.00000    0.11207    0.16868 =
         0.07274   -0.05927    0.03711   -0.06185
C17   1    0.694736    0.222803    1.421486    11.00000    0.10821    0.15772 =
         0.05564   -0.03185    0.03695   -0.07434
C18   1    0.633389    0.235821    1.372662    11.00000    0.05967    0.14373 =
         0.05680   -0.00977    0.01206   -0.05969
C19   1    0.688637    0.283468    1.323323    11.00000    0.03794    0.10726 =
         0.10020   -0.03138   -0.01362   -0.03383
C20   1    0.666531    0.305520    1.260428    11.00000    0.05523    0.09987 =
         0.07007   -0.03967   -0.01447   -0.02415
C21   1    0.651452    0.311407    1.106001    11.00000    0.08613
AFIX  23
H21A  2    0.702315    0.293506    1.068319    11.00000   -1.20000
H21B  2    0.651183    0.248399    1.129392    11.00000   -1.20000
AFIX   0
C22   1    0.537237    0.378545    1.090936    11.00000    0.19727
AFIX 137
H22A  2    0.501748    0.347423    1.064019    11.00000   -1.50000
H22B  2    0.539919    0.440993    1.069086    11.00000   -1.50000
H22C  2    0.488947    0.394891    1.129006    11.00000   -1.50000
AFIX   0
C23   1    0.759074    0.468585    1.058025    11.00000    0.10458
AFIX 137
H23A  2    0.756779    0.417208    1.032253    11.00000   -1.50000
H23B  2    0.832817    0.479782    1.049136    11.00000   -1.50000
H23C  2    0.690337    0.532469    1.048694    11.00000   -1.50000
AFIX   0
C24   1    1.058240    0.616834    1.149305    11.00000    0.10515
AFIX  23
H24A  2    1.083822    0.671206    1.158737    11.00000   -1.20000
H24B  2    0.982548    0.650201    1.126393    11.00000   -1.20000
AFIX   0
C25   1    1.147914    0.552227    1.107384    11.00000    0.11075
AFIX 137
H25A  2    1.146705    0.591203    1.067242    11.00000   -1.50000
H25B  2    1.129888    0.493075    1.101277    11.00000   -1.50000
H25C  2    1.227045    0.529253    1.125633    11.00000   -1.50000
AFIX   0
C26   1    1.164401    0.611151    1.279741    11.00000    0.11031
AFIX 137
H26A  2    1.208533    0.628507    1.244303    11.00000   -1.50000
H26B  2    1.220762    0.563253    1.310128    11.00000   -1.50000
H26C  2    1.115065    0.673038    1.299203    11.00000   -1.50000
AFIX   0
C27   1    1.164403    0.401482    1.500177    11.00000    0.16647
AFIX 137
H27A  2    1.125939    0.441513    1.535027    11.00000   -1.50000
H27B  2    1.197478    0.440689    1.470738    11.00000   -1.50000
H27C  2    1.228691    0.338104    1.515773    11.00000   -1.50000
AFIX   0
C28   1    1.037513    0.258283    1.561263    11.00000    0.13519
AFIX  23
H28A  2    1.069824    0.289824    1.590232    11.00000   -1.20000
H28B  2    0.959850    0.259980    1.578306    11.00000   -1.20000
AFIX   0
C29   1    1.119415    0.152562    1.557400    11.00000    0.20164
AFIX 137
H29A  2    1.127597    0.115303    1.598660    11.00000   -1.50000
H29B  2    1.197556    0.150364    1.542369    11.00000   -1.50000
H29C  2    1.088017    0.121120    1.528578    11.00000   -1.50000
AFIX   0
C30   1    0.673204    0.173332    1.488921    11.00000    0.15566
AFIX 137
H30A  2    0.618475    0.139283    1.485362    11.00000   -1.50000
H30B  2    0.638593    0.226933    1.517181    11.00000   -1.50000
H30C  2    0.749429    0.123654    1.505288    11.00000   -1.50000
AFIX   0
C31   1    0.527576    0.216617    1.374326    11.00000    0.08889
AFIX  23
H31A  2    0.539202    0.154477    1.402368    11.00000   -1.20000
H31B  2    0.512495    0.203744    1.332182    11.00000   -1.20000
AFIX   0
C32   1    0.420281    0.303444    1.396241    11.00000    0.14873
AFIX 137
H32A  2    0.378825    0.277432    1.429321    11.00000   -1.50000
H32B  2    0.366227    0.336502    1.361425    11.00000   -1.50000
H32C  2    0.445967    0.352901    1.412238    11.00000   -1.50000
AFIX   0
C33   1    0.568446    0.279204    1.238167    11.00000    0.07240
C34   1    0.450422    0.351245    1.239443    11.00000    0.08832
AFIX  43
H34A  2    0.436423    0.417794    1.249618    11.00000   -1.20000
AFIX   0
C35   1    0.352565    0.328987    1.226331    11.00000    0.09216
AFIX  43
H35A  2    0.274060    0.380033    1.225632    11.00000   -1.20000
AFIX   0
C36   1    0.372796    0.233873    1.214832    11.00000    0.08889
AFIX  43
H36A  2    0.306600    0.217720    1.207223    11.00000   -1.20000
AFIX   0
C37   1    0.487301    0.157011    1.213513    11.00000    0.07833
AFIX  43
H37A  2    0.498763    0.090140    1.205136    11.00000   -1.20000
AFIX   0
C38   1    0.585519    0.181579    1.224989    11.00000    0.06234
C51   1    0.784529    0.015435    1.086531    11.00000    0.05012
C52   1    0.654209    0.048009    1.082057    11.00000    0.05570
AFIX  43
H52A  2    0.601867    0.039749    1.114304    11.00000   -1.20000
AFIX   0
C53   1    0.623847    0.090238    1.025759    11.00000    0.04814
AFIX  43
H53A  2    0.544430    0.121243    1.011081    11.00000   -1.20000
AFIX   0
C54   1    0.727378    0.082868    0.989744    11.00000    0.03947
C55   1    1.267645   -0.113647    1.072656    11.00000    0.03389
C56   1    1.167026   -0.103510    1.109311    11.00000    0.04985
C57   1    1.165046   -0.136532    1.174908    11.00000    0.05068
AFIX  43
H57A  2    1.233002   -0.168821    1.200492    11.00000   -1.20000
AFIX   0
C58   1    1.050329   -0.113773    1.193734    11.00000    0.04996
AFIX  43
H58A  2    1.022678   -0.127368    1.234203    11.00000   -1.20000
AFIX   0
C59   1    0.977869   -0.063926    1.138823    11.00000    0.04364
C60   1    0.851272   -0.031205    1.137745    11.00000    0.04398
AFIX  66
C61   1    1.384552   -0.171761    1.107155    11.00000    0.04729
C62   1    1.442909   -0.118954    1.132362    11.00000    0.05700
C63   1    1.550028   -0.171865    1.162989    11.00000    0.06740
AFIX  43
H63A  2    1.589912   -0.135773    1.180217    11.00000   -1.20000
AFIX  65
C64   1    1.598792   -0.277584    1.168409    11.00000    0.07926
AFIX  43
H64A  2    1.672003   -0.313746    1.189341    11.00000   -1.20000
AFIX  65
C65   1    1.540436   -0.330393    1.143202    11.00000    0.10200
AFIX  43
H65A  2    1.573763   -0.402647    1.146906    11.00000   -1.20000
AFIX  65
C66   1    1.433317   -0.277483    1.112575    11.00000    0.07786
AFIX   0
C67   1    0.800728   -0.059203    1.195514    11.00000    0.04125
C68   1    0.824882   -0.159412    1.213702    11.00000    0.05728
AFIX  43
H68A  2    0.873291   -0.209853    1.187747    11.00000   -1.20000
AFIX   0
C69   1    0.780506   -0.188724    1.268843    11.00000    0.07097
AFIX  43
H69A  2    0.800609   -0.258917    1.281085    11.00000   -1.20000
AFIX   0
C70   1    0.710501   -0.120105    1.304613    11.00000    0.07420
AFIX  43
H70A  2    0.679336   -0.142452    1.341776    11.00000   -1.20000
AFIX   0
C71   1    0.682127   -0.023615    1.291534    11.00000    0.06723
AFIX  43
H71A  2    0.632472    0.024643    1.318417    11.00000   -1.20000
AFIX   0
C72   1    0.728646    0.006687    1.235186    11.00000    0.05688

HKLF    4

REM  10febb_0m in P -1
REM R1 =  0.1591 for    3441 Fo > 4sig(Fo)  and  0.3930 for all   12311 data
REM    517 parameters refined using      0 restraints

END

WGHT      0.2000      0.0000

REM Highest difference peak  0.614,  deepest hole -0.794,  1-sigma level  0.131
Q1    1   1.1202  0.0509  1.2874  11.00000  0.05    0.61
Q2    1   1.1755 -0.0061  1.3873  11.00000  0.05    0.60
Q3    1   1.1544  0.0131  1.3977  11.00000  0.05    0.59
Q4    1   1.0138  0.2451  1.0209  11.00000  0.05    0.58
Q5    1   1.1911  0.3413  1.5181  11.00000  0.05    0.52
;
_shelx_res_checksum              93401
_shelx_fab_file
;
    2    0    0     34.15      0.00
    3    0    0      8.37      0.00
    4    0    0      0.06      0.00
    5    0    0      4.04      0.00
    6    0    0      1.32      0.00
    7    0    0     -2.11      0.00
    8    0    0     -0.44      0.00
    9    0    0     -1.60      0.00
   10    0    0      2.47      0.00
   11    0    0     -4.37      0.00
   12    0    0      4.19      0.00
   13    0    0     -4.84      0.00
  -13    1    0      0.48      0.00
  -12    1    0     -0.99      0.00
  -11    1    0     -0.49      0.00
  -10    1    0      1.01      0.00
   -9    1    0     -1.67      0.00
   -8    1    0      0.02      0.00
   -7    1    0     -0.98      0.00
   -6    1    0      0.61      0.00
   -5    1    0     -3.15      0.00
   -4    1    0      2.54      0.00
   -3    1    0     -1.94      0.00
   -2    1    0      2.97      0.00
   -1    1    0     31.38      0.00
    2    1    0    -11.30      0.00
    3    1    0     -9.67      0.00
    4    1    0      0.06      0.00
    5    1    0      0.69      0.00
    6    1    0      1.98      0.00
    7    1    0      1.39      0.00
    8    1    0      0.65      0.00
    9    1    0      0.11      0.00
   10    1    0     -2.43      0.00
   11    1    0      2.46      0.00
   12    1    0     -1.78      0.00
   13    1    0      0.11      0.00
  -12    2    0     -2.38      0.00
  -11    2    0     -0.41      0.00
  -10    2    0     -0.93      0.00
   -9    2    0     -0.19      0.00
   -8    2    0      2.25      0.00
   -7    2    0     -2.15      0.00
   -6    2    0     -0.39      0.00
   -5    2    0      3.09      0.00
   -4    2    0     -7.08      0.00
   -3    2    0      5.23      0.00
   -2    2    0      9.38      0.00
   -1    2    0     -9.18      0.00
    0    2    0     28.52      0.00
    1    2    0    -17.58      0.00
    2    2    0     18.96      0.00
    3    2    0      6.94      0.00
    4    2    0      4.15      0.00
    5    2    0     -0.80      0.00
    6    2    0      0.67      0.00
    7    2    0     -2.32      0.00
    8    2    0      2.29      0.00
    9    2    0      0.11      0.00
   10    2    0     -0.71      0.00
   11    2    0     -0.57      0.00
   12    2    0     -1.50      0.00
   13    2    0      0.81      0.00
  -12    3    0      2.22      0.00
  -11    3    0     -0.57      0.00
  -10    3    0      0.40      0.00
   -9    3    0     -3.23      0.00
   -8    3    0      2.07      0.00
   -7    3    0     -1.49      0.00
   -6    3    0      0.04      0.00
   -5    3    0      1.66      0.00
   -4    3    0     -1.25      0.00
   -3    3    0     -2.19      0.00
   -2    3    0      0.87      0.00
   -1    3    0      2.34      0.00
    0    3    0      6.25      0.00
    1    3    0     -6.75      0.00
    2    3    0     -1.10      0.00
    3    3    0      0.70      0.00
    4    3    0     -0.88      0.00
    5    3    0      3.41      0.00
    6    3    0      3.02      0.00
    7    3    0     -1.72      0.00
    8    3    0      1.51      0.00
    9    3    0      0.26      0.00
   10    3    0      1.49      0.00
   11    3    0      1.03      0.00
   12    3    0      0.89      0.00
   13    3    0     -1.16      0.00
   14    3    0      0.59      0.00
  -11    4    0      1.75      0.00
  -10    4    0     -0.35      0.00
   -9    4    0     -0.27      0.00
   -8    4    0     -2.59      0.00
   -7    4    0      1.85      0.00
   -6    4    0      0.06      0.00
   -5    4    0     -0.12      0.00
   -4    4    0      0.98      0.00
   -3    4    0     -1.32      0.00
   -2    4    0     -1.30      0.00
   -1    4    0      0.35      0.00
    0    4    0      2.38      0.00
    1    4    0     -0.20      0.00
    2    4    0      6.66      0.00
    3    4    0      1.43      0.00
    4    4    0      5.23      0.00
    5    4    0     -2.50      0.00
    6    4    0      1.48      0.00
    7    4    0     -2.11      0.00
    8    4    0      3.87      0.00
    9    4    0     -3.50      0.00
   10    4    0     -0.01      0.00
   11    4    0     -1.28      0.00
   12    4    0      2.19      0.00
   13    4    0     -2.35      0.00
   14    4    0      0.01      0.00
  -11    5    0     -1.72      0.00
  -10    5    0      0.20      0.00
   -9    5    0      2.39      0.00
   -8    5    0      1.13      0.00
   -7    5    0     -1.85      0.00
   -6    5    0     -1.92      0.00
   -5    5    0      3.93      0.00
   -4    5    0     -2.98      0.00
   -3    5    0      2.23      0.00
   -2    5    0      0.16      0.00
   -1    5    0     -1.70      0.00
    0    5    0      3.98      0.00
    1    5    0      3.27      0.00
    2    5    0     -1.92      0.00
    3    5    0     -1.02      0.00
    4    5    0     -1.17      0.00
    5    5    0      3.25      0.00
    6    5    0      1.75      0.00
    7    5    0     -0.59      0.00
    8    5    0      1.13      0.00
    9    5    0      0.80      0.00
   10    5    0      3.04      0.00
   11    5    0     -2.18      0.00
   12    5    0      4.05      0.00
   13    5    0     -4.25      0.00
   14    5    0      5.17      0.00
  -10    6    0     -2.21      0.00
   -9    6    0      0.82      0.00
   -8    6    0     -2.22      0.00
   -7    6    0      2.61      0.00
   -6    6    0     -0.81      0.00
   -5    6    0      0.20      0.00
   -4    6    0      1.57      0.00
   -3    6    0      0.90      0.00
   -2    6    0     -1.88      0.00
   -1    6    0      0.08      0.00
    0    6    0     -4.10      0.00
    1    6    0     -1.19      0.00
    2    6    0      2.83      0.00
    3    6    0      2.77      0.00
    4    6    0     -4.54      0.00
    5    6    0      3.76      0.00
    6    6    0     -2.92      0.00
    7    6    0     -0.49      0.00
    8    6    0      0.51      0.00
    9    6    0     -0.80      0.00
   10    6    0     -0.59      0.00
   11    6    0     -0.61      0.00
   12    6    0     -1.08      0.00
   13    6    0      3.47      0.00
   14    6    0     -5.48      0.00
   -9    7    0     -0.58      0.00
   -8    7    0      5.27      0.00
   -7    7    0     -3.23      0.00
   -6    7    0      1.27      0.00
   -5    7    0      0.72      0.00
   -4    7    0     -1.08      0.00
   -3    7    0      0.34      0.00
   -2    7    0      1.69      0.00
   -1    7    0      0.51      0.00
    0    7    0      0.90      0.00
    1    7    0      0.17      0.00
    2    7    0     -0.05      0.00
    3    7    0     -0.23      0.00
    4    7    0      0.57      0.00
    5    7    0      1.05      0.00
    6    7    0      0.61      0.00
    7    7    0     -1.81      0.00
    8    7    0      0.74      0.00
    9    7    0      0.95      0.00
   10    7    0     -0.32      0.00
   11    7    0      1.37      0.00
   12    7    0      1.54      0.00
   13    7    0     -2.33      0.00
   14    7    0      4.16      0.00
   -9    8    0      0.40      0.00
   -8    8    0     -3.39      0.00
   -7    8    0      2.03      0.00
   -6    8    0      0.82      0.00
   -5    8    0     -0.18      0.00
   -4    8    0     -0.63      0.00
   -3    8    0      1.28      0.00
   -2    8    0      0.73      0.00
   -1    8    0      0.32      0.00
    0    8    0     -2.15      0.00
    1    8    0     -0.12      0.00
    2    8    0     -1.10      0.00
    3    8    0      0.58      0.00
    4    8    0     -1.08      0.00
    5    8    0     -0.93      0.00
    6    8    0     -0.41      0.00
    7    8    0      1.78      0.00
    8    8    0     -1.22      0.00
    9    8    0     -1.91      0.00
   10    8    0     -1.64      0.00
   11    8    0      2.62      0.00
   12    8    0     -3.61      0.00
   13    8    0     -0.32      0.00
   14    8    0      2.03      0.00
   -8    9    0      2.25      0.00
   -7    9    0      0.39      0.00
   -6    9    0     -1.61      0.00
   -5    9    0      2.61      0.00
   -4    9    0     -0.04      0.00
   -3    9    0      0.57      0.00
   -2    9    0     -2.78      0.00
   -1    9    0      2.63      0.00
    0    9    0      1.46      0.00
    1    9    0     -2.45      0.00
    2    9    0      2.58      0.00
    3    9    0      0.29      0.00
    4    9    0     -0.96      0.00
    5    9    0     -0.52      0.00
    6    9    0      1.78      0.00
    7    9    0     -3.54      0.00
    8    9    0      1.75      0.00
    9    9    0      1.54      0.00
   10    9    0     -0.23      0.00
   11    9    0     -2.93      0.00
   12    9    0      4.24      0.00
   13    9    0     -1.85      0.00
   14    9    0      0.92      0.00
   -7   10    0     -2.28      0.00
   -6   10    0      3.27      0.00
   -5   10    0     -2.19      0.00
   -4   10    0      0.45      0.00
   -3   10    0      0.13      0.00
   -2   10    0     -0.97      0.00
   -1   10    0      2.45      0.00
    0   10    0     -2.34      0.00
    1   10    0      2.10      0.00
    2   10    0     -3.80      0.00
    3   10    0      1.64      0.00
    4   10    0     -0.64      0.00
    5   10    0      2.41      0.00
    6   10    0     -2.07      0.00
    7   10    0      1.92      0.00
    8   10    0     -2.67      0.00
    9   10    0     -0.23      0.00
   10   10    0     -0.15      0.00
   11   10    0      0.76      0.00
   12   10    0     -2.87      0.00
   13   10    0      1.32      0.00
   14   10    0     -3.48      0.00
   -6   11    0     -6.73      0.00
   -5   11    0      4.24      0.00
   -4   11    0     -0.06      0.00
   -3   11    0     -1.70      0.00
   -2   11    0      1.67      0.00
   -1   11    0     -3.46      0.00
    0   11    0      2.47      0.00
    1   11    0      0.86      0.00
    2   11    0     -1.51      0.00
    3   11    0      3.41      0.00
    4   11    0     -2.11      0.00
    5   11    0      0.08      0.00
    6   11    0      1.09      0.00
    7   11    0      0.12      0.00
    8   11    0      0.08      0.00
    9   11    0      1.90      0.00
   10   11    0     -3.22      0.00
   11   11    0      2.43      0.00
   12   11    0     -0.47      0.00
   13   11    0     -0.05      0.00
   -5   12    0     -4.65      0.00
   -4   12    0      1.94      0.00
   -3   12    0      2.93      0.00
   -2   12    0     -4.92      0.00
   -1   12    0      2.66      0.00
    0   12    0     -2.45      0.00
    1   12    0      1.29      0.00
    2   12    0     -0.54      0.00
    3   12    0     -1.22      0.00
    4   12    0      1.40      0.00
    5   12    0      0.11      0.00
    6   12    0     -0.64      0.00
    7   12    0      2.19      0.00
    8   12    0     -0.49      0.00
    9   12    0     -1.73      0.00
   10   12    0      3.41      0.00
   11   12    0     -3.56      0.00
   12   12    0     -0.36      0.00
   13   12    0      1.81      0.00
   -4   13    0     -5.09      0.00
   -3   13    0      0.46      0.00
   -2   13    0      2.49      0.00
   -1   13    0     -3.31      0.00
    0   13    0     -0.53      0.00
    1   13    0      0.30      0.00
    2   13    0     -1.97      0.00
    3   13    0      3.62      0.00
    4   13    0     -2.45      0.00
    5   13    0      2.92      0.00
    6   13    0     -1.02      0.00
    7   13    0      0.54      0.00
    8   13    0      0.87      0.00
    9   13    0     -0.25      0.00
   10   13    0      1.66      0.00
   11   13    0     -1.47      0.00
   12   13    0      1.44      0.00
   -2   14    0     -6.18      0.00
   -1   14    0      7.48      0.00
    0   14    0     -3.07      0.00
    1   14    0     -1.45      0.00
    2   14    0      3.28      0.00
    3   14    0     -4.25      0.00
    4   14    0      3.09      0.00
    5   14    0     -2.08      0.00
    6   14    0      1.11      0.00
    7   14    0      3.77      0.00
    8   14    0     -5.57      0.00
    9   14    0      4.51      0.00
   10   14    0      0.03      0.00
   11   14    0     -0.70      0.00
   12   14    0      2.22      0.00
   -1   15    0     -3.25      0.00
    0   15    0     -2.40      0.00
    1   15    0      3.03      0.00
    2   15    0     -5.14      0.00
    3   15    0      3.32      0.00
    4   15    0     -1.98      0.00
    5   15    0      1.76      0.00
    6   15    0     -1.51      0.00
    7   15    0     -0.73      0.00
    8   15    0      7.06      0.00
    9   15    0     -6.63      0.00
   10   15    0      2.99      0.00
   11   15    0     -2.21      0.00
    1   16    0     -0.08      0.00
    2   16    0      0.02      0.00
    3   16    0     -1.57      0.00
    4   16    0      2.91      0.00
    5   16    0     -2.67      0.00
    6   16    0      2.27      0.00
    7   16    0     -0.63      0.00
    8   16    0     -2.23      0.00
    9   16    0      4.95      0.00
    5   17    0     -0.95      0.00
    6   17    0      1.84      0.00
   -9  -16    1      1.99      0.00
   -8  -16    1     -2.31      0.00
   -7  -16    1      0.58      0.00
   -6  -16    1     -1.65      0.00
   -5  -16    1      1.30      0.00
   -4  -16    1     -0.42      0.00
   -3  -16    1     -0.35      0.00
   -2  -16    1      1.59      0.00
   -1  -16    1      2.35      0.00
  -11  -15    1      2.97      0.00
  -10  -15    1     -3.10      0.00
   -9  -15    1      1.76      0.00
   -8  -15    1     -3.12      0.00
   -7  -15    1     -0.84      0.00
   -6  -15    1      2.00      0.00
   -5  -15    1     -2.11      0.00
   -4  -15    1      3.03      0.00
   -3  -15    1     -2.55      0.00
   -2  -15    1      2.58      0.00
   -1  -15    1     -3.72      0.00
    0  -15    1      3.35      0.00
    1  -15    1     -4.89      0.00
  -12  -14    1     -1.61      0.00
  -11  -14    1     -0.14      0.00
  -10  -14    1      0.03      0.00
   -9  -14    1     -3.77      0.00
   -8  -14    1      6.46      0.00
   -7  -14    1     -4.21      0.00
   -6  -14    1      0.26      0.00
   -5  -14    1     -0.36      0.00
   -4  -14    1     -2.86      0.00
   -3  -14    1      4.76      0.00
   -2  -14    1     -5.34      0.00
   -1  -14    1      5.26      0.00
    0  -14    1      1.24      0.00
    1  -14    1     -2.08      0.00
    2  -14    1      4.17      0.00
  -12  -13    1     -2.17      0.00
  -11  -13    1      4.68      0.00
  -10  -13    1     -3.16      0.00
   -9  -13    1      0.79      0.00
   -8  -13    1     -3.46      0.00
   -7  -13    1      0.52      0.00
   -6  -13    1     -0.30      0.00
   -5  -13    1     -0.58      0.00
   -4  -13    1      1.40      0.00
   -3  -13    1     -2.42      0.00
   -2  -13    1      2.82      0.00
   -1  -13    1     -1.46      0.00
    0  -13    1      1.82      0.00
    1  -13    1      0.31      0.00
    2  -13    1     -0.67      0.00
    3  -13    1     -2.08      0.00
    4  -13    1      2.67      0.00
  -13  -12    1     -2.76      0.00
  -12  -12    1      1.10      0.00
  -11  -12    1     -0.36      0.00
  -10  -12    1     -2.87      0.00
   -9  -12    1      1.97      0.00
   -8  -12    1      0.12      0.00
   -7  -12    1     -1.12      0.00
   -6  -12    1     -0.51      0.00
   -5  -12    1      0.10      0.00
   -4  -12    1     -1.54      0.00
   -3  -12    1      1.56      0.00
   -2  -12    1     -1.96      0.00
   -1  -12    1     -0.35      0.00
    0  -12    1      0.21      0.00
    1  -12    1      0.87      0.00
    2  -12    1      2.87      0.00
    3  -12    1      1.91      0.00
    4  -12    1     -4.65      0.00
    5  -12    1      2.71      0.00
  -13  -11    1      1.15      0.00
  -12  -11    1      0.38      0.00
  -11  -11    1      0.65      0.00
  -10  -11    1      2.10      0.00
   -9  -11    1     -0.18      0.00
   -8  -11    1     -1.35      0.00
   -7  -11    1     -0.51      0.00
   -6  -11    1     -0.48      0.00
   -5  -11    1     -1.46      0.00
   -4  -11    1      2.01      0.00
   -3  -11    1     -2.95      0.00
   -2  -11    1      2.85      0.00
   -1  -11    1     -0.02      0.00
    0  -11    1     -0.71      0.00
    1  -11    1      0.60      0.00
    2  -11    1     -0.66      0.00
    3  -11    1      1.27      0.00
    4  -11    1      2.45      0.00
    5  -11    1     -4.33      0.00
    6  -11    1      4.25      0.00
  -14  -10    1      5.03      0.00
  -13  -10    1     -2.48      0.00
  -12  -10    1      0.46      0.00
  -11  -10    1      0.37      0.00
  -10  -10    1     -3.73      0.00
   -9  -10    1      1.49      0.00
   -8  -10    1     -0.46      0.00
   -7  -10    1      1.27      0.00
   -6  -10    1      0.13      0.00
   -5  -10    1     -0.81      0.00
   -4  -10    1     -1.21      0.00
   -3  -10    1      1.46      0.00
   -2  -10    1     -1.34      0.00
   -1  -10    1     -0.84      0.00
    0  -10    1      2.65      0.00
    1  -10    1     -4.10      0.00
    2  -10    1      1.13      0.00
    3  -10    1      1.49      0.00
    4  -10    1     -0.54      0.00
    5  -10    1      1.75      0.00
    6  -10    1     -3.54      0.00
    7  -10    1      2.46      0.00
  -14   -9    1     -4.00      0.00
  -13   -9    1      4.07      0.00
  -12   -9    1     -3.21      0.00
  -11   -9    1      3.55      0.00
  -10   -9    1      1.47      0.00
   -9   -9    1      1.04      0.00
   -8   -9    1     -2.75      0.00
   -7   -9    1      3.09      0.00
   -6   -9    1     -1.92      0.00
   -5   -9    1      1.02      0.00
   -4   -9    1     -0.36      0.00
   -3   -9    1      0.99      0.00
   -2   -9    1     -1.79      0.00
   -1   -9    1      1.61      0.00
    0   -9    1      0.40      0.00
    1   -9    1     -0.48      0.00
    2   -9    1      1.11      0.00
    3   -9    1     -2.06      0.00
    4   -9    1      0.89      0.00
    5   -9    1     -1.28      0.00
    6   -9    1      2.18      0.00
    7   -9    1     -0.71      0.00
    8   -9    1     -0.12      0.00
  -14   -8    1     -1.80      0.00
  -13   -8    1     -1.44      0.00
  -12   -8    1      5.38      0.00
  -11   -8    1     -5.18      0.00
  -10   -8    1     -0.15      0.00
   -9   -8    1      2.01      0.00
   -8   -8    1      0.43      0.00
   -7   -8    1     -2.85      0.00
   -6   -8    1      0.35      0.00
   -5   -8    1      2.18      0.00
   -4   -8    1     -1.81      0.00
   -3   -8    1      1.35      0.00
   -2   -8    1      0.17      0.00
   -1   -8    1     -1.75      0.00
    0   -8    1      0.97      0.00
    1   -8    1     -1.08      0.00
    2   -8    1     -2.17      0.00
    3   -8    1      0.24      0.00
    4   -8    1      0.62      0.00
    5   -8    1      1.19      0.00
    6   -8    1     -3.11      0.00
    7   -8    1      0.70      0.00
    8   -8    1      0.14      0.00
    9   -8    1     -1.48      0.00
  -14   -7    1     -0.18      0.00
  -13   -7    1      1.16      0.00
  -12   -7    1     -2.89      0.00
  -11   -7    1      3.14      0.00
  -10   -7    1     -0.87      0.00
   -9   -7    1      1.79      0.00
   -8   -7    1     -0.55      0.00
   -7   -7    1      2.78      0.00
   -6   -7    1      2.41      0.00
   -5   -7    1     -3.24      0.00
   -4   -7    1      0.48      0.00
   -3   -7    1      1.85      0.00
   -2   -7    1     -0.97      0.00
   -1   -7    1      0.65      0.00
    0   -7    1      3.27      0.00
    1   -7    1     -0.70      0.00
    2   -7    1      1.27      0.00
    3   -7    1     -1.66      0.00
    4   -7    1     -1.24      0.00
    5   -7    1     -0.11      0.00
    6   -7    1     -0.16      0.00
    7   -7    1      1.87      0.00
    8   -7    1     -3.20      0.00
    9   -7    1      2.49      0.00
  -14   -6    1      1.06      0.00
  -13   -6    1     -0.58      0.00
  -12   -6    1     -1.40      0.00
  -11   -6    1      1.53      0.00
  -10   -6    1     -1.94      0.00
   -9   -6    1     -0.07      0.00
   -8   -6    1     -1.36      0.00
   -7   -6    1     -0.83      0.00
   -6   -6    1      0.32      0.00
   -5   -6    1     -0.88      0.00
   -4   -6    1      2.04      0.00
   -3   -6    1     -0.17      0.00
   -2   -6    1     -2.38      0.00
   -1   -6    1      0.39      0.00
    0   -6    1     -1.28      0.00
    1   -6    1      0.01      0.00
    2   -6    1      0.38      0.00
    3   -6    1     -2.32      0.00
    4   -6    1     -0.32      0.00
    5   -6    1     -0.16      0.00
    6   -6    1     -0.65      0.00
    7   -6    1     -1.08      0.00
    8   -6    1      2.15      0.00
    9   -6    1     -3.31      0.00
   10   -6    1     -0.75      0.00
  -14   -5    1     -4.73      0.00
  -13   -5    1      5.65      0.00
  -12   -5    1     -3.63      0.00
  -11   -5    1      2.72      0.00
  -10   -5    1     -1.54      0.00
   -9   -5    1      3.16      0.00
   -8   -5    1     -1.89      0.00
   -7   -5    1      3.66      0.00
   -6   -5    1     -1.23      0.00
   -5   -5    1     -0.44      0.00
   -4   -5    1     -3.14      0.00
   -3   -5    1      3.07      0.00
   -2   -5    1      0.31      0.00
   -1   -5    1     -2.21      0.00
    0   -5    1     -2.36      0.00
    1   -5    1      2.25      0.00
    2   -5    1      2.77      0.00
    3   -5    1     -0.71      0.00
    4   -5    1      2.24      0.00
    5   -5    1     -3.35      0.00
    6   -5    1      0.01      0.00
    7   -5    1      2.04      0.00
    8   -5    1     -2.00      0.00
    9   -5    1      0.65      0.00
   10   -5    1      0.42      0.00
   11   -5    1      1.90      0.00
  -14   -4    1      1.26      0.00
  -13   -4    1     -1.32      0.00
  -12   -4    1     -0.16      0.00
  -11   -4    1     -2.41      0.00
  -10   -4    1      0.31      0.00
   -9   -4    1      0.26      0.00
   -8   -4    1     -2.91      0.00
   -7   -4    1     -0.45      0.00
   -6   -4    1     -2.54      0.00
   -5   -4    1      4.93      0.00
   -4   -4    1     -3.63      0.00
   -3   -4    1      0.14      0.00
   -2   -4    1     -4.36      0.00
   -1   -4    1      7.31      0.00
    0   -4    1     -0.71      0.00
    1   -4    1     -4.54      0.00
    2   -4    1      0.63      0.00
    3   -4    1      0.21      0.00
    4   -4    1     -2.58      0.00
    5   -4    1      2.90      0.00
    6   -4    1     -3.39      0.00
    7   -4    1      0.56      0.00
    8   -4    1      0.48      0.00
    9   -4    1      2.56      0.00
   10   -4    1     -3.35      0.00
   11   -4    1     -1.89      0.00
  -14   -3    1     -1.35      0.00
  -13   -3    1      0.71      0.00
  -12   -3    1      2.47      0.00
  -11   -3    1     -1.76      0.00
  -10   -3    1      0.60      0.00
   -9   -3    1      0.14      0.00
   -8   -3    1      0.91      0.00
   -7   -3    1      3.01      0.00
   -6   -3    1     -2.45      0.00
   -5   -3    1     -2.57      0.00
   -4   -3    1     -4.25      0.00
   -3   -3    1      0.38      0.00
   -2   -3    1     -9.76      0.00
   -1   -3    1      7.72      0.00
    0   -3    1    -16.13      0.00
    1   -3    1      1.90      0.00
    2   -3    1     -0.39      0.00
    3   -3    1     -2.45      0.00
    4   -3    1      5.92      0.00
    5   -3    1     -1.67      0.00
    6   -3    1     -1.19      0.00
    7   -3    1      2.22      0.00
    8   -3    1     -4.46      0.00
    9   -3    1      3.56      0.00
   10   -3    1      0.71      0.00
   11   -3    1      1.19      0.00
   12   -3    1     -1.26      0.00
  -13   -2    1     -2.61      0.00
  -12   -2    1      1.17      0.00
  -11   -2    1     -0.04      0.00
  -10   -2    1     -0.01      0.00
   -9   -2    1     -1.18      0.00
   -8   -2    1     -2.46      0.00
   -7   -2    1     -1.35      0.00
   -6   -2    1      1.21      0.00
   -5   -2    1      1.75      0.00
   -4   -2    1     -1.15      0.00
   -3   -2    1      1.75      0.00
   -2   -2    1     -3.07      0.00
   -1   -2    1     -5.76      0.00
    0   -2    1     14.06      0.00
    1   -2    1      0.79      0.00
    2   -2    1     -3.68      0.00
    3   -2    1     -4.84      0.00
    4   -2    1      1.46      0.00
    5   -2    1      2.82      0.00
    6   -2    1     -2.54      0.00
    7   -2    1      3.24      0.00
    8   -2    1     -1.38      0.00
    9   -2    1     -0.17      0.00
   10   -2    1      0.24      0.00
   11   -2    1     -0.25      0.00
   12   -2    1      2.82      0.00
  -13   -1    1      2.81      0.00
  -12   -1    1     -0.19      0.00
  -11   -1    1     -0.92      0.00
  -10   -1    1      2.16      0.00
   -9   -1    1     -0.34      0.00
   -8   -1    1      2.39      0.00
   -7   -1    1     -1.04      0.00
   -6   -1    1     -2.23      0.00
   -5   -1    1     -2.41      0.00
   -4   -1    1     -4.33      0.00
   -3   -1    1      9.97      0.00
   -2   -1    1    -26.38      0.00
   -1   -1    1      1.70      0.00
    1   -1    1     -0.15      0.00
    2   -1    1     -2.40      0.00
    3   -1    1     -6.28      0.00
    4   -1    1     -3.99      0.00
    5   -1    1      3.04      0.00
    6   -1    1     -1.03      0.00
    7   -1    1      1.12      0.00
    8   -1    1      0.04      0.00
    9   -1    1      1.93      0.00
   10   -1    1     -2.24      0.00
   11   -1    1      2.90      0.00
   12   -1    1     -3.07      0.00
   13   -1    1      3.61      0.00
  -13    0    1      4.05      0.00
  -12    0    1     -3.88      0.00
  -11    0    1      4.30      0.00
  -10    0    1     -2.62      0.00
   -9    0    1      1.15      0.00
   -8    0    1      0.42      0.00
   -7    0    1      1.27      0.00
   -6    0    1      0.31      0.00
   -5    0    1     -2.54      0.00
   -4    0    1     -1.21      0.00
   -3    0    1      0.48      0.00
   -2    0    1    -20.88      0.00
    1    0    1     76.19      0.00
    2    0    1     -6.24      0.00
    3    0    1     -5.49      0.00
    4    0    1      3.77      0.00
    5    0    1     -3.99      0.00
    6    0    1     -1.86      0.00
    7    0    1      1.41      0.00
    8    0    1     -0.34      0.00
    9    0    1      1.64      0.00
   10    0    1     -0.49      0.00
   11    0    1      1.21      0.00
   12    0    1     -0.06      0.00
   13    0    1      0.83      0.00
  -13    1    1     -4.13      0.00
  -12    1    1      6.00      0.00
  -11    1    1     -3.11      0.00
  -10    1    1      1.16      0.00
   -9    1    1     -0.02      0.00
   -8    1    1      0.17      0.00
   -7    1    1     -0.17      0.00
   -6    1    1      1.39      0.00
   -5    1    1      1.61      0.00
   -4    1    1     -2.28      0.00
   -3    1    1      1.07      0.00
   -2    1    1     -8.06      0.00
   -1    1    1    -66.96      0.00
    1    1    1   -111.89      0.00
    2    1    1     10.85      0.00
    3    1    1      3.75      0.00
    4    1    1     -4.55      0.00
    5    1    1      0.90      0.00
    6    1    1     -2.67      0.00
    7    1    1      1.32      0.00
    8    1    1     -1.62      0.00
    9    1    1     -0.15      0.00
   10    1    1      3.28      0.00
   11    1    1     -1.89      0.00
   12    1    1      0.99      0.00
   13    1    1      0.82      0.00
  -12    2    1     -0.55      0.00
  -11    2    1      1.53      0.00
  -10    2    1      1.29      0.00
   -9    2    1      1.25      0.00
   -8    2    1     -1.78      0.00
   -7    2    1      1.57      0.00
   -6    2    1      2.47      0.00
   -5    2    1     -5.62      0.00
   -4    2    1      6.10      0.00
   -3    2    1     -2.65      0.00
   -2    2    1      1.04      0.00
   -1    2    1     19.12      0.00
    0    2    1    -59.87      0.00
    1    2    1     63.65      0.00
    2    2    1    -18.25      0.00
    3    2    1     -7.61      0.00
    4    2    1      2.25      0.00
    5    2    1      0.52      0.00
    6    2    1     -1.90      0.00
    7    2    1      1.65      0.00
    8    2    1     -2.22      0.00
    9    2    1     -1.44      0.00
   10    2    1     -1.05      0.00
   11    2    1      1.48      0.00
   12    2    1      0.41      0.00
   13    2    1     -1.34      0.00
  -12    3    1      1.25      0.00
  -11    3    1     -2.05      0.00
  -10    3    1      2.37      0.00
   -9    3    1     -0.32      0.00
   -8    3    1      1.82      0.00
   -7    3    1     -2.09      0.00
   -6    3    1      0.60      0.00
   -5    3    1      1.51      0.00
   -4    3    1     -2.99      0.00
   -3    3    1      4.18      0.00
   -2    3    1     -0.07      0.00
   -1    3    1    -11.50      0.00
    0    3    1      9.09      0.00
    1    3    1    -20.33      0.00
    2    3    1      3.38      0.00
    3    3    1     -4.70      0.00
    4    3    1     -2.33      0.00
    5    3    1     -5.36      0.00
    6    3    1     -1.91      0.00
    7    3    1      3.45      0.00
    8    3    1     -1.64      0.00
    9    3    1      3.12      0.00
   10    3    1     -1.74      0.00
   11    3    1      1.58      0.00
   12    3    1     -2.23      0.00
   13    3    1      3.09      0.00
   14    3    1      0.04      0.00
  -11    4    1     -3.34      0.00
  -10    4    1      1.71      0.00
   -9    4    1     -0.18      0.00
   -8    4    1      1.64      0.00
   -7    4    1     -0.13      0.00
   -6    4    1      2.43      0.00
   -5    4    1     -1.42      0.00
   -4    4    1     -0.06      0.00
   -3    4    1     -1.62      0.00
   -2    4    1      1.18      0.00
   -1    4    1      1.09      0.00
    0    4    1     -3.34      0.00
    1    4    1      0.28      0.00
    2    4    1     -2.37      0.00
    3    4    1      0.70      0.00
    4    4    1     -2.63      0.00
    5    4    1      3.23      0.00
    6    4    1     -3.30      0.00
    7    4    1     -0.39      0.00
    8    4    1     -3.94      0.00
    9    4    1     -0.14      0.00
   10    4    1     -0.67      0.00
   11    4    1      0.32      0.00
   12    4    1     -2.50      0.00
   13    4    1      1.83      0.00
   14    4    1     -2.62      0.00
  -11    5    1      3.42      0.00
  -10    5    1     -0.55      0.00
   -9    5    1     -1.48      0.00
   -8    5    1      0.07      0.00
   -7    5    1     -0.16      0.00
   -6    5    1      1.12      0.00
   -5    5    1     -1.77      0.00
   -4    5    1      1.66      0.00
   -3    5    1     -1.05      0.00
   -2    5    1      2.85      0.00
   -1    5    1     -0.52      0.00
    0    5    1      1.17      0.00
    1    5    1     -2.96      0.00
    2    5    1      0.07      0.00
    3    5    1     -3.59      0.00
    4    5    1      3.04      0.00
    5    5    1     -5.04      0.00
    6    5    1      0.09      0.00
    7    5    1      0.27      0.00
    8    5    1      3.01      0.00
    9    5    1     -1.25      0.00
   10    5    1     -0.54      0.00
   11    5    1      0.70      0.00
   12    5    1      0.91      0.00
   13    5    1      0.72      0.00
   14    5    1     -0.47      0.00
  -10    6    1      3.80      0.00
   -9    6    1      0.21      0.00
   -8    6    1     -1.50      0.00
   -7    6    1     -0.41      0.00
   -6    6    1      1.24      0.00
   -5    6    1      1.20      0.00
   -4    6    1     -2.04      0.00
   -3    6    1      0.63      0.00
   -2    6    1     -0.85      0.00
   -1    6    1     -1.99      0.00
    0    6    1      3.21      0.00
    1    6    1     -2.80      0.00
    2    6    1     -0.22      0.00
    3    6    1     -4.15      0.00
    4    6    1      3.22      0.00
    5    6    1     -2.52      0.00
    6    6    1      1.13      0.00
    7    6    1      0.22      0.00
    8    6    1     -3.10      0.00
    9    6    1     -1.52      0.00
   10    6    1      1.49      0.00
   11    6    1     -1.65      0.00
   12    6    1     -0.36      0.00
   13    6    1     -3.35      0.00
   14    6    1      3.94      0.00
   -9    7    1      0.07      0.00
   -8    7    1     -2.02      0.00
   -7    7    1      2.79      0.00
   -6    7    1     -3.41      0.00
   -5    7    1     -0.39      0.00
   -4    7    1      1.83      0.00
   -3    7    1     -0.39      0.00
   -2    7    1     -1.63      0.00
   -1    7    1      2.37      0.00
    0    7    1     -1.35      0.00
    1    7    1      3.00      0.00
    2    7    1      1.82      0.00
    3    7    1     -0.20      0.00
    4    7    1     -1.61      0.00
    5    7    1      1.57      0.00
    6    7    1     -2.30      0.00
    7    7    1      1.38      0.00
    8    7    1      2.88      0.00
    9    7    1     -0.33      0.00
   10    7    1      0.52      0.00
   11    7    1     -1.16      0.00
   12    7    1      0.30      0.00
   13    7    1      3.21      0.00
   14    7    1     -4.96      0.00
   -9    8    1      0.49      0.00
   -8    8    1      2.14      0.00
   -7    8    1     -4.47      0.00
   -6    8    1      1.93      0.00
   -5    8    1     -0.69      0.00
   -4    8    1     -0.10      0.00
   -3    8    1     -0.64      0.00
   -2    8    1      0.91      0.00
   -1    8    1     -1.20      0.00
    0    8    1      0.26      0.00
    1    8    1     -1.69      0.00
    2    8    1      0.63      0.00
    3    8    1     -2.26      0.00
    4    8    1      2.35      0.00
    5    8    1      0.57      0.00
    6    8    1      0.89      0.00
    7    8    1     -2.27      0.00
    8    8    1     -0.20      0.00
    9    8    1      0.24      0.00
   10    8    1      0.04      0.00
   11    8    1     -0.14      0.00
   12    8    1     -0.40      0.00
   13    8    1      1.02      0.00
   14    8    1     -1.68      0.00
   -8    9    1     -1.92      0.00
   -7    9    1      2.43      0.00
   -6    9    1     -0.76      0.00
   -5    9    1     -2.11      0.00
   -4    9    1     -0.33      0.00
   -3    9    1      0.01      0.00
   -2    9    1      1.71      0.00
   -1    9    1     -1.57      0.00
    0    9    1     -0.39      0.00
    1    9    1      2.40      0.00
    2    9    1      0.72      0.00
    3    9    1     -0.26      0.00
    4    9    1      0.18      0.00
    5    9    1     -0.67      0.00
    6    9    1      0.24      0.00
    7    9    1      1.29      0.00
    8    9    1      1.94      0.00
    9    9    1     -1.61      0.00
   10    9    1      1.27      0.00
   11    9    1      2.23      0.00
   12    9    1     -1.59      0.00
   13    9    1     -0.48      0.00
   14    9    1      2.63      0.00
   -7   10    1      0.64      0.00
   -6   10    1     -2.88      0.00
   -5   10    1      2.49      0.00
   -4   10    1     -0.46      0.00
   -3   10    1     -1.52      0.00
   -2   10    1     -0.65      0.00
   -1   10    1      2.10      0.00
    0   10    1     -0.80      0.00
    1   10    1     -3.96      0.00
    2   10    1      4.41      0.00
    3   10    1     -2.72      0.00
    4   10    1      0.28      0.00
    5   10    1     -0.35      0.00
    6   10    1      1.90      0.00
    7   10    1     -2.22      0.00
    8   10    1      2.59      0.00
    9   10    1     -1.50      0.00
   10   10    1      1.06      0.00
   11   10    1     -2.93      0.00
   12   10    1      1.40      0.00
   13   10    1      1.18      0.00
   14   10    1     -0.93      0.00
   -6   11    1      7.59      0.00
   -5   11    1     -5.42      0.00
   -4   11    1      0.24      0.00
   -3   11    1      2.00      0.00
   -2   11    1     -3.15      0.00
   -1   11    1      2.83      0.00
    0   11    1      0.41      0.00
    1   11    1     -1.33      0.00
    2   11    1      1.06      0.00
    3   11    1      0.11      0.00
    4   11    1      0.21      0.00
    5   11    1      0.64      0.00
    6   11    1     -0.90      0.00
    7   11    1     -0.86      0.00
    8   11    1      0.39      0.00
    9   11    1      0.42      0.00
   10   11    1      1.67      0.00
   11   11    1      1.55      0.00
   12   11    1      1.04      0.00
   13   11    1     -2.09      0.00
   -5   12    1      7.18      0.00
   -4   12    1      0.94      0.00
   -3   12    1     -4.76      0.00
   -2   12    1      5.52      0.00
   -1   12    1     -3.27      0.00
    0   12    1      1.98      0.00
    1   12    1     -0.68      0.00
    2   12    1     -0.21      0.00
    3   12    1     -0.83      0.00
    4   12    1     -0.46      0.00
    5   12    1     -2.02      0.00
    6   12    1      2.19      0.00
    7   12    1     -0.72      0.00
    8   12    1     -1.08      0.00
    9   12    1      2.68      0.00
   10   12    1     -4.86      0.00
   11   12    1      2.99      0.00
   12   12    1     -1.69      0.00
   13   12    1      0.20      0.00
   -4   13    1      1.90      0.00
   -3   13    1      3.00      0.00
   -2   13    1     -6.01      0.00
   -1   13    1      3.39      0.00
    0   13    1     -0.14      0.00
    1   13    1     -0.61      0.00
    2   13    1      1.24      0.00
    3   13    1     -0.15      0.00
    4   13    1      0.88      0.00
    5   13    1     -0.63      0.00
    6   13    1     -0.36      0.00
    7   13    1     -1.92      0.00
    8   13    1      2.08      0.00
    9   13    1     -1.82      0.00
   10   13    1      0.50      0.00
   11   13    1      0.55      0.00
   12   13    1      0.21      0.00
   13   13    1      2.96      0.00
   -3   14    1      1.43      0.00
   -2   14    1      8.52      0.00
   -1   14    1     -7.70      0.00
    0   14    1      5.40      0.00
    1   14    1      1.20      0.00
    2   14    1     -2.99      0.00
    3   14    1      3.21      0.00
    4   14    1     -4.05      0.00
    5   14    1      2.03      0.00
    6   14    1     -0.78      0.00
    7   14    1     -1.81      0.00
    8   14    1      1.23      0.00
    9   14    1      0.13      0.00
   10   14    1     -1.36      0.00
   11   14    1      2.22      0.00
   12   14    1     -3.48      0.00
   -1   15    1      7.42      0.00
    0   15    1     -3.43      0.00
    1   15    1     -1.61      0.00
    2   15    1      2.23      0.00
    3   15    1     -0.45      0.00
    4   15    1      0.57      0.00
    5   15    1     -1.64      0.00
    6   15    1      2.39      0.00
    7   15    1     -0.02      0.00
    8   15    1     -5.60      0.00
    9   15    1      3.69      0.00
   10   15    1     -1.14      0.00
   11   15    1     -0.47      0.00
    1   16    1      1.67      0.00
    2   16    1     -0.59      0.00
    3   16    1      3.45      0.00
    4   16    1     -3.58      0.00
    5   16    1      2.62      0.00
    6   16    1     -3.94      0.00
    7   16    1      1.03      0.00
    8   16    1      4.91      0.00
    9   16    1     -6.89      0.00
   10   16    1      2.58      0.00
    5   17    1      1.31      0.00
    6   17    1     -1.29      0.00
   -9  -16    2     -4.28      0.00
   -8  -16    2      3.62      0.00
   -7  -16    2      0.69      0.00
   -6  -16    2     -0.25      0.00
   -5  -16    2     -1.36      0.00
   -4  -16    2      0.65      0.00
   -3  -16    2     -1.36      0.00
   -2  -16    2      2.91      0.00
  -11  -15    2     -2.66      0.00
  -10  -15    2     -0.37      0.00
   -9  -15    2      2.85      0.00
   -8  -15    2     -2.59      0.00
   -7  -15    2      1.44      0.00
   -6  -15    2     -1.13      0.00
   -5  -15    2      2.17      0.00
   -4  -15    2     -0.20      0.00
   -3  -15    2     -1.80      0.00
   -2  -15    2      0.80      0.00
   -1  -15    2     -0.18      0.00
    0  -15    2     -4.93      0.00
    1  -15    2      5.01      0.00
  -12  -14    2      2.39      0.00
  -11  -14    2     -1.19      0.00
  -10  -14    2      2.48      0.00
   -9  -14    2      1.37      0.00
   -8  -14    2     -1.96      0.00
   -7  -14    2      3.20      0.00
   -6  -14    2      0.24      0.00
   -5  -14    2     -1.64      0.00
   -4  -14    2      4.01      0.00
   -3  -14    2     -5.67      0.00
   -2  -14    2      5.04      0.00
   -1  -14    2     -4.18      0.00
    0  -14    2      0.82      0.00
    1  -14    2     -0.12      0.00
    2  -14    2      2.10      0.00
  -12  -13    2      3.15      0.00
  -11  -13    2     -4.89      0.00
  -10  -13    2      3.70      0.00
   -9  -13    2     -1.42      0.00
   -8  -13    2      3.72      0.00
   -7  -13    2     -3.74      0.00
   -6  -13    2      3.41      0.00
   -5  -13    2     -3.05      0.00
   -4  -13    2      2.32      0.00
   -3  -13    2      0.63      0.00
   -2  -13    2     -1.29      0.00
   -1  -13    2      1.73      0.00
    0  -13    2     -2.43      0.00
    1  -13    2     -1.25      0.00
    2  -13    2     -1.73      0.00
    3  -13    2     -0.55      0.00
    4  -13    2      0.34      0.00
  -13  -12    2      0.77      0.00
  -12  -12    2     -1.89      0.00
  -11  -12    2      0.12      0.00
  -10  -12    2      3.07      0.00
   -9  -12    2     -4.10      0.00
   -8  -12    2      1.60      0.00
   -7  -12    2      2.71      0.00
   -6  -12    2      0.32      0.00
   -5  -12    2      1.50      0.00
   -4  -12    2     -0.20      0.00
   -3  -12    2     -1.56      0.00
   -2  -12    2      0.91      0.00
   -1  -12    2     -0.57      0.00
    0  -12    2      1.06      0.00
    1  -12    2     -2.62      0.00
    2  -12    2      0.58      0.00
    3  -12    2     -3.59      0.00
    4  -12    2      3.25      0.00
    5  -12    2      0.28      0.00
  -13  -11    2     -0.07      0.00
  -12  -11    2      3.41      0.00
  -11  -11    2     -3.34      0.00
  -10  -11    2      1.80      0.00
   -9  -11    2      1.17      0.00
   -8  -11    2      1.05      0.00
   -7  -11    2     -0.86      0.00
   -6  -11    2      0.33      0.00
   -5  -11    2     -0.96      0.00
   -4  -11    2      1.65      0.00
   -3  -11    2      0.70      0.00
   -2  -11    2     -1.13      0.00
   -1  -11    2      0.20      0.00
    0  -11    2     -0.38      0.00
    1  -11    2      1.59      0.00
    2  -11    2     -0.69      0.00
    3  -11    2     -0.85      0.00
    4  -11    2     -4.69      0.00
    5  -11    2      3.21      0.00
    6  -11    2     -0.30      0.00
  -14  -10    2     -2.51      0.00
  -13  -10    2     -0.44      0.00
  -12  -10    2     -0.26      0.00
  -11  -10    2     -1.25      0.00
  -10  -10    2      2.28      0.00
   -9  -10    2     -3.42      0.00
   -8  -10    2      1.85      0.00
   -7  -10    2     -2.17      0.00
   -6  -10    2      2.65      0.00
   -5  -10    2      0.18      0.00
   -4  -10    2      2.16      0.00
   -3  -10    2     -2.64      0.00
   -2  -10    2      2.42      0.00
   -1  -10    2     -0.41      0.00
    0  -10    2     -2.24      0.00
    1  -10    2      1.04      0.00
    2  -10    2      0.65      0.00
    3  -10    2     -1.11      0.00
    4  -10    2      0.58      0.00
    5  -10    2     -3.16      0.00
    6  -10    2      2.00      0.00
    7  -10    2     -2.03      0.00
  -14   -9    2      4.76      0.00
  -13   -9    2     -2.19      0.00
  -12   -9    2      0.70      0.00
  -11   -9    2     -1.14      0.00
  -10   -9    2     -0.02      0.00
   -9   -9    2      0.30      0.00
   -8   -9    2      1.62      0.00
   -7   -9    2      1.22      0.00
   -6   -9    2     -0.77      0.00
   -5   -9    2     -2.42      0.00
   -4   -9    2      1.60      0.00
   -3   -9    2     -0.41      0.00
   -2   -9    2     -0.83      0.00
   -1   -9    2      2.71      0.00
    0   -9    2     -0.70      0.00
    1   -9    2     -0.94      0.00
    2   -9    2      0.58      0.00
    3   -9    2      1.16      0.00
    4   -9    2     -0.65      0.00
    5   -9    2     -0.37      0.00
    6   -9    2     -0.30      0.00
    7   -9    2      1.26      0.00
    8   -9    2     -0.01      0.00
  -14   -8    2     -1.10      0.00
  -13   -8    2      2.04      0.00
  -12   -8    2     -3.96      0.00
  -11   -8    2      2.37      0.00
  -10   -8    2      0.71      0.00
   -9   -8    2     -3.52      0.00
   -8   -8    2     -2.53      0.00
   -7   -8    2      1.88      0.00
   -6   -8    2      0.48      0.00
   -5   -8    2     -2.33      0.00
   -4   -8    2      2.80      0.00
   -3   -8    2     -1.53      0.00
   -2   -8    2     -1.43      0.00
   -1   -8    2      0.52      0.00
    0   -8    2     -1.22      0.00
    1   -8    2      0.77      0.00
    2   -8    2      1.18      0.00
    3   -8    2     -1.11      0.00
    4   -8    2      2.00      0.00
    5   -8    2     -2.58      0.00
    6   -8    2      2.72      0.00
    7   -8    2     -3.44      0.00
    8   -8    2      0.45      0.00
    9   -8    2     -0.37      0.00
  -14   -7    2     -0.48      0.00
  -13   -7    2     -0.93      0.00
  -12   -7    2      4.65      0.00
  -11   -7    2     -5.30      0.00
  -10   -7    2      2.50      0.00
   -9   -7    2      0.41      0.00
   -8   -7    2      1.83      0.00
   -7   -7    2     -1.45      0.00
   -6   -7    2     -2.92      0.00
   -5   -7    2      4.55      0.00
   -4   -7    2     -2.48      0.00
   -3   -7    2     -0.52      0.00
   -2   -7    2      1.51      0.00
   -1   -7    2      1.33      0.00
    0   -7    2     -2.44      0.00
    1   -7    2      2.19      0.00
    2   -7    2     -1.33      0.00
    3   -7    2      2.11      0.00
    4   -7    2      2.21      0.00
    5   -7    2     -1.59      0.00
    6   -7    2      0.50      0.00
    7   -7    2      1.10      0.00
    8   -7    2      1.52      0.00
    9   -7    2      0.09      0.00
  -14   -6    2      1.89      0.00
  -13   -6    2     -3.27      0.00
  -12   -6    2      1.48      0.00
  -11   -6    2     -1.05      0.00
  -10   -6    2     -0.16      0.00
   -9   -6    2     -1.48      0.00
   -8   -6    2     -0.79      0.00
   -7   -6    2     -1.21      0.00
   -6   -6    2      1.51      0.00
   -5   -6    2     -3.60      0.00
   -4   -6    2      1.01      0.00
   -3   -6    2     -0.24      0.00
   -2   -6    2     -2.59      0.00
   -1   -6    2      0.88      0.00
    0   -6    2      0.89      0.00
    1   -6    2     -2.34      0.00
    2   -6    2     -1.52      0.00
    3   -6    2      0.45      0.00
    4   -6    2      0.22      0.00
    5   -6    2      1.39      0.00
    6   -6    2      1.42      0.00
    7   -6    2     -2.02      0.00
    8   -6    2     -1.53      0.00
    9   -6    2      0.99      0.00
   10   -6    2     -0.47      0.00
  -14   -5    2      2.16      0.00
  -13   -5    2     -0.39      0.00
  -12   -5    2      0.97      0.00
  -11   -5    2      0.19      0.00
  -10   -5    2      1.37      0.00
   -9   -5    2     -1.84      0.00
   -8   -5    2      3.38      0.00
   -7   -5    2     -1.90      0.00
   -6   -5    2      2.01      0.00
   -5   -5    2     -1.03      0.00
   -4   -5    2      1.73      0.00
   -3   -5    2     -2.45      0.00
   -2   -5    2      0.04      0.00
   -1   -5    2     -0.02      0.00
    0   -5    2     -0.11      0.00
    1   -5    2      4.03      0.00
    2   -5    2     -1.41      0.00
    3   -5    2      0.29      0.00
    4   -5    2      1.28      0.00
    5   -5    2     -0.15      0.00
    6   -5    2      1.93      0.00
    7   -5    2     -0.96      0.00
    8   -5    2      2.82      0.00
    9   -5    2     -0.81      0.00
   10   -5    2      1.67      0.00
   11   -5    2      1.48      0.00
  -14   -4    2     -2.86      0.00
  -13   -4    2      2.26      0.00
  -12   -4    2     -3.13      0.00
  -11   -4    2      3.02      0.00
  -10   -4    2     -2.68      0.00
   -9   -4    2      0.65      0.00
   -8   -4    2     -2.30      0.00
   -7   -4    2     -0.45      0.00
   -6   -4    2      1.72      0.00
   -5   -4    2     -4.73      0.00
   -4   -4    2      4.12      0.00
   -3   -4    2      2.99      0.00
   -2   -4    2      3.97      0.00
   -1   -4    2     -4.86      0.00
    0   -4    2     -0.45      0.00
    1   -4    2      4.48      0.00
    2   -4    2     -2.24      0.00
    3   -4    2     -0.96      0.00
    4   -4    2      1.46      0.00
    5   -4    2     -4.28      0.00
    6   -4    2      4.44      0.00
    7   -4    2     -1.40      0.00
    8   -4    2      0.60      0.00
    9   -4    2     -3.98      0.00
   10   -4    2      1.15      0.00
   11   -4    2      0.67      0.00
  -14   -3    2      1.88      0.00
  -13   -3    2      0.54      0.00
  -12   -3    2     -0.96      0.00
  -11   -3    2      0.83      0.00
  -10   -3    2      1.70      0.00
   -9   -3    2      0.41      0.00
   -8   -3    2      1.23      0.00
   -7   -3    2     -1.00      0.00
   -6   -3    2      0.85      0.00
   -5   -3    2      2.18      0.00
   -4   -3    2      0.75      0.00
   -3   -3    2     -6.88      0.00
   -2   -3    2      2.33      0.00
   -1   -3    2     -2.18      0.00
    0   -3    2      3.46      0.00
    1   -3    2     -3.57      0.00
    2   -3    2     -0.17      0.00
    3   -3    2      4.43      0.00
    4   -3    2     -2.79      0.00
    5   -3    2      0.52      0.00
    6   -3    2      0.77      0.00
    7   -3    2     -0.99      0.00
    8   -3    2      2.95      0.00
    9   -3    2     -0.04      0.00
   10   -3    2     -1.88      0.00
   11   -3    2      1.17      0.00
   12   -3    2      1.84      0.00
  -13   -2    2      1.49      0.00
  -12   -2    2     -0.05      0.00
  -11   -2    2     -1.28      0.00
  -10   -2    2     -1.39      0.00
   -9   -2    2      1.05      0.00
   -8   -2    2     -0.87      0.00
   -7   -2    2      1.42      0.00
   -6   -2    2     -2.12      0.00
   -5   -2    2     -0.46      0.00
   -4   -2    2      3.72      0.00
   -3   -2    2      1.35      0.00
   -2   -2    2     11.82      0.00
   -1   -2    2     12.44      0.00
    0   -2    2    -14.17      0.00
    1   -2    2     11.87      0.00
    2   -2    2      0.44      0.00
    3   -2    2      1.42      0.00
    4   -2    2      5.77      0.00
    5   -2    2     -6.80      0.00
    6   -2    2      2.22      0.00
    7   -2    2     -2.71      0.00
    8   -2    2      0.80      0.00
    9   -2    2      0.19      0.00
   10   -2    2      0.75      0.00
   11   -2    2     -2.13      0.00
   12   -2    2     -1.81      0.00
  -13   -1    2     -5.12      0.00
  -12   -1    2      2.28      0.00
  -11   -1    2     -0.12      0.00
  -10   -1    2     -0.38      0.00
   -9   -1    2      0.53      0.00
   -8   -1    2     -1.94      0.00
   -7   -1    2      1.10      0.00
   -6   -1    2      2.82      0.00
   -5   -1    2      0.83      0.00
   -4   -1    2      2.61      0.00
   -3   -1    2    -17.82      0.00
   -2   -1    2     26.44      0.00
   -1   -1    2    -46.81      0.00
    1   -1    2    -22.82      0.00
    2   -1    2     -7.21      0.00
    3   -1    2      4.06      0.00
    4   -1    2      1.06      0.00
    5   -1    2      1.72      0.00
    6   -1    2     -0.20      0.00
    7   -1    2      0.23      0.00
    8   -1    2     -1.40      0.00
    9   -1    2     -1.14      0.00
   10   -1    2      0.51      0.00
   11   -1    2     -0.82      0.00
   12   -1    2      3.39      0.00
   13   -1    2     -3.98      0.00
  -13    0    2      1.98      0.00
  -12    0    2     -1.01      0.00
  -11    0    2     -1.03      0.00
  -10    0    2      1.36      0.00
   -9    0    2     -0.77      0.00
   -8    0    2     -0.29      0.00
   -7    0    2     -1.41      0.00
   -6    0    2     -2.47      0.00
   -5    0    2      2.04      0.00
   -4    0    2      4.60      0.00
   -3    0    2      9.08      0.00
   -2    0    2     -0.95      0.00
    1    0    2      8.65      0.00
    2    0    2      1.62      0.00
    3    0    2      3.30      0.00
    4    0    2     -0.80      0.00
    5    0    2      2.61      0.00
    6    0    2      1.89      0.00
    7    0    2     -1.88      0.00
    8    0    2      0.88      0.00
    9    0    2     -1.17      0.00
   10    0    2     -0.59      0.00
   11    0    2     -0.11      0.00
   12    0    2     -1.96      0.00
   13    0    2      1.34      0.00
  -12    1    2     -6.04      0.00
  -11    1    2      2.38      0.00
  -10    1    2     -1.42      0.00
   -9    1    2     -0.78      0.00
   -8    1    2      0.09      0.00
   -7    1    2      0.55      0.00
   -6    1    2     -1.56      0.00
   -5    1    2     -1.17      0.00
   -4    1    2     -2.22      0.00
   -3    1    2     -0.26      0.00
   -2    1    2      0.34      0.00
   -1    1    2     40.31      0.00
    0    1    2    -88.58      0.00
    1    1    2     54.74      0.00
    2    1    2     -0.01      0.00
    3    1    2     -9.76      0.00
    4    1    2      2.24      0.00
    5    1    2     -4.35      0.00
    6    1    2      4.38      0.00
    7    1    2     -1.55      0.00
    8    1    2      1.82      0.00
    9    1    2      1.62      0.00
   10    1    2     -2.80      0.00
   11    1    2      0.50      0.00
   12    1    2      0.71      0.00
   13    1    2     -2.06      0.00
  -12    2    2      1.30      0.00
  -11    2    2     -0.34      0.00
  -10    2    2     -2.38      0.00
   -9    2    2      0.19      0.00
   -8    2    2      1.43      0.00
   -7    2    2     -0.24      0.00
   -6    2    2     -2.26      0.00
   -5    2    2      3.88      0.00
   -4    2    2     -3.08      0.00
   -3    2    2      4.13      0.00
   -2    2    2     -7.90      0.00
   -1    2    2     -6.31      0.00
    0    2    2     73.42      0.00
    1    2    2    -60.90      0.00
    2    2    2     18.82      0.00
    3    2    2     17.17      0.00
    4    2    2     -0.52      0.00
    5    2    2      2.95      0.00
    6    2    2     -0.49      0.00
    7    2    2     -1.56      0.00
    8    2    2     -0.47      0.00
    9    2    2     -0.46      0.00
   10    2    2      2.25      0.00
   11    2    2     -2.85      0.00
   12    2    2     -0.79      0.00
   13    2    2      1.90      0.00
  -12    3    2     -4.31      0.00
  -11    3    2      3.85      0.00
  -10    3    2     -2.79      0.00
   -9    3    2     -0.25      0.00
   -8    3    2     -4.70      0.00
   -7    3    2      2.21      0.00
   -6    3    2     -0.94      0.00
   -5    3    2     -3.67      0.00
   -4    3    2      3.90      0.00
   -3    3    2      0.44      0.00
   -2    3    2     -1.35      0.00
   -1    3    2      6.92      0.00
    0    3    2    -24.17      0.00
    1    3    2     30.05      0.00
    2    3    2     -7.60      0.00
    3    3    2     -8.60      0.00
    4    3    2      4.45      0.00
    5    3    2      1.22      0.00
    6    3    2      4.43      0.00
    7    3    2     -2.63      0.00
    8    3    2      4.78      0.00
    9    3    2     -2.65      0.00
   10    3    2      1.79      0.00
   11    3    2      0.07      0.00
   12    3    2      2.78      0.00
   13    3    2     -4.25      0.00
   14    3    2      2.76      0.00
  -11    4    2      0.83      0.00
  -10    4    2      0.13      0.00
   -9    4    2     -1.54      0.00
   -8    4    2      2.74      0.00
   -7    4    2     -1.71      0.00
   -6    4    2     -0.59      0.00
   -5    4    2      1.58      0.00
   -4    4    2     -2.70      0.00
   -3    4    2      1.99      0.00
   -2    4    2     -3.51      0.00
   -1    4    2     -0.29      0.00
    0    4    2      7.48      0.00
    1    4    2     -2.78      0.00
    2    4    2      5.14      0.00
    3    4    2      5.82      0.00
    4    4    2      2.80      0.00
    5    4    2     -3.70      0.00
    6    4    2      2.44      0.00
    7    4    2      1.35      0.00
    8    4    2     -1.95      0.00
    9    4    2      1.94      0.00
   10    4    2     -2.70      0.00
   11    4    2      1.08      0.00
   12    4    2     -1.68      0.00
   13    4    2     -0.58      0.00
   14    4    2      1.69      0.00
  -11    5    2     -3.13      0.00
  -10    5    2      2.51      0.00
   -9    5    2     -0.31      0.00
   -8    5    2     -1.87      0.00
   -7    5    2      0.27      0.00
   -6    5    2     -1.79      0.00
   -5    5    2     -1.92      0.00
   -4    5    2      0.24      0.00
   -3    5    2      2.24      0.00
   -2    5    2     -2.49      0.00
   -1    5    2      5.19      0.00
    0    5    2     -3.79      0.00
    1    5    2      2.95      0.00
    2    5    2      1.56      0.00
    3    5    2      0.85      0.00
    4    5    2     -2.84      0.00
    5    5    2      5.46      0.00
    6    5    2     -0.40      0.00
    7    5    2      0.67      0.00
    8    5    2      0.76      0.00
    9    5    2      1.57      0.00
   10    5    2      1.85      0.00
   11    5    2      1.24      0.00
   12    5    2     -1.53      0.00
   13    5    2      2.51      0.00
   14    5    2     -1.49      0.00
  -10    6    2     -7.76      0.00
   -9    6    2      0.82      0.00
   -8    6    2      3.64      0.00
   -7    6    2     -2.11      0.00
   -6    6    2      2.09      0.00
   -5    6    2     -0.20      0.00
   -4    6    2      0.54      0.00
   -3    6    2     -2.36      0.00
   -2    6    2      1.97      0.00
   -1    6    2     -3.75      0.00
    0    6    2     -1.35      0.00
    1    6    2      1.61      0.00
    2    6    2     -2.86      0.00
    3    6    2      3.45      0.00
    4    6    2      1.45      0.00
    5    6    2     -1.42      0.00
    6    6    2      0.93      0.00
    7    6    2     -2.54      0.00
    8    6    2      1.88      0.00
    9    6    2     -0.14      0.00
   10    6    2     -2.31      0.00
   11    6    2     -0.08      0.00
   12    6    2      2.18      0.00
   13    6    2     -0.94      0.00
   14    6    2     -1.64      0.00
   -9    7    2     -0.61      0.00
   -8    7    2     -1.21      0.00
   -7    7    2      0.39      0.00
   -6    7    2      1.37      0.00
   -5    7    2     -0.85      0.00
   -4    7    2     -3.23      0.00
   -3    7    2      1.30      0.00
   -2    7    2      1.14      0.00
   -1    7    2     -0.25      0.00
    0    7    2      3.11      0.00
    1    7    2     -2.21      0.00
    2    7    2      1.11      0.00
    3    7    2     -0.25      0.00
    4    7    2      1.16      0.00
    5    7    2     -1.57      0.00
    6    7    2      1.79      0.00
    7    7    2      2.03      0.00
    8    7    2     -2.87      0.00
    9    7    2      0.00      0.00
   10    7    2      3.62      0.00
   11    7    2      0.42      0.00
   12    7    2     -1.28      0.00
   13    7    2     -0.96      0.00
   14    7    2      4.50      0.00
   -9    8    2     -1.47      0.00
   -8    8    2     -0.54      0.00
   -7    8    2      3.49      0.00
   -6    8    2     -3.80      0.00
   -5    8    2      4.07      0.00
   -4    8    2      1.37      0.00
   -3    8    2     -1.07      0.00
   -2    8    2     -1.27      0.00
   -1    8    2     -0.45      0.00
    0    8    2     -1.58      0.00
    1    8    2      1.14      0.00
    2    8    2     -2.34      0.00
    3    8    2      0.74      0.00
    4    8    2     -1.28      0.00
    5    8    2      0.27      0.00
    6    8    2     -2.07      0.00
    7    8    2      0.82      0.00
    8    8    2      1.53      0.00
    9    8    2     -1.44      0.00
   10    8    2     -1.70      0.00
   11    8    2     -1.28      0.00
   12    8    2      2.68      0.00
   13    8    2     -2.51      0.00
   14    8    2      0.48      0.00
   -8    9    2      1.69      0.00
   -7    9    2     -3.97      0.00
   -6    9    2      4.72      0.00
   -5    9    2     -0.34      0.00
   -4    9    2     -1.23      0.00
   -3    9    2      0.44      0.00
   -2    9    2      0.79      0.00
   -1    9    2     -0.46      0.00
    0    9    2      0.64      0.00
    1    9    2      0.66      0.00
    2    9    2     -0.86      0.00
    3    9    2     -0.07      0.00
    4    9    2      1.08      0.00
    5    9    2      0.45      0.00
    6    9    2     -1.91      0.00
    7    9    2      0.34      0.00
    8    9    2     -3.35      0.00
    9    9    2      2.75      0.00
   10    9    2      0.29      0.00
   11    9    2     -0.02      0.00
   12    9    2     -0.18      0.00
   13    9    2      2.77      0.00
   14    9    2     -4.48      0.00
   -7   10    2      1.48      0.00
   -6   10    2     -2.31      0.00
   -5   10    2      0.46      0.00
   -4   10    2      1.29      0.00
   -3   10    2      0.71      0.00
   -2   10    2      1.90      0.00
   -1   10    2     -3.66      0.00
    0   10    2      0.26      0.00
    1   10    2      2.29      0.00
    2   10    2     -3.14      0.00
    3   10    2     -0.30      0.00
    4   10    2      0.57      0.00
    5   10    2     -1.06      0.00
    6   10    2      0.41      0.00
    7   10    2     -0.08      0.00
    8   10    2      0.28      0.00
    9   10    2     -1.58      0.00
   10   10    2     -1.57      0.00
   11   10    2      0.84      0.00
   12   10    2     -1.13      0.00
   13   10    2     -2.77      0.00
   14   10    2      3.34      0.00
   -6   11    2     -4.61      0.00
   -5   11    2      5.19      0.00
   -4   11    2     -1.63      0.00
   -3   11    2     -2.66      0.00
   -2   11    2      3.68      0.00
   -1   11    2     -0.08      0.00
    0   11    2     -3.09      0.00
    1   11    2      2.61      0.00
    2   11    2      0.91      0.00
    3   11    2     -0.13      0.00
    4   11    2     -0.38      0.00
    5   11    2      1.29      0.00
    6   11    2     -1.68      0.00
    7   11    2      0.83      0.00
    8   11    2      0.28      0.00
    9   11    2     -1.65      0.00
   10   11    2      1.96      0.00
   11   11    2     -2.13      0.00
   12   11    2     -0.19      0.00
   13   11    2      5.40      0.00
   -5   12    2     -9.89      0.00
   -4   12    2      2.01      0.00
   -3   12    2      3.83      0.00
   -2   12    2     -4.44      0.00
   -1   12    2      2.88      0.00
    0   12    2      0.64      0.00
    1   12    2     -2.76      0.00
    2   12    2      0.55      0.00
    3   12    2      0.43      0.00
    4   12    2     -1.88      0.00
    5   12    2      2.42      0.00
    6   12    2     -0.96      0.00
    7   12    2     -1.18      0.00
    8   12    2      1.63      0.00
    9   12    2     -2.31      0.00
   10   12    2      1.66      0.00
   11   12    2     -1.28      0.00
   12   12    2     -0.25      0.00
   13   12    2     -4.38      0.00
   -4   13    2     -1.00      0.00
   -3   13    2     -6.43      0.00
   -2   13    2      5.06      0.00
   -1   13    2     -2.66      0.00
    0   13    2     -1.78      0.00
    1   13    2      2.00      0.00
    2   13    2     -0.06      0.00
    3   13    2     -0.92      0.00
    4   13    2      2.41      0.00
    5   13    2     -1.12      0.00
    6   13    2      0.60      0.00
    7   13    2      3.62      0.00
    8   13    2     -4.79      0.00
    9   13    2      2.87      0.00
   10   13    2     -0.76      0.00
   11   13    2      0.07      0.00
   12   13    2     -0.11      0.00
   13   13    2      0.75      0.00
   -3   14    2      1.15      0.00
   -2   14    2     -6.11      0.00
   -1   14    2      6.09      0.00
    0   14    2     -0.57      0.00
    1   14    2     -4.23      0.00
    2   14    2      4.69      0.00
    3   14    2     -2.20      0.00
    4   14    2      0.16      0.00
    5   14    2      1.28      0.00
    6   14    2     -2.57      0.00
    7   14    2      0.60      0.00
    8   14    2      4.16      0.00
    9   14    2     -3.81      0.00
   10   14    2      1.55      0.00
   11   14    2     -1.35      0.00
   12   14    2      1.59      0.00
   -1   15    2    -10.54      0.00
    0   15    2      3.48      0.00
    1   15    2      0.17      0.00
    2   15    2     -2.72      0.00
    3   15    2     -0.88      0.00
    4   15    2      1.42      0.00
    5   15    2      1.46      0.00
    6   15    2     -0.47      0.00
    7   15    2      0.80      0.00
    8   15    2     -1.18      0.00
    9   15    2      2.51      0.00
   10   15    2     -2.37      0.00
   11   15    2      1.29      0.00
    1   16    2      0.78      0.00
    2   16    2      0.90      0.00
    3   16    2     -0.43      0.00
    4   16    2      0.74      0.00
    5   16    2     -2.70      0.00
    6   16    2      4.08      0.00
    7   16    2     -1.73      0.00
    8   16    2     -2.43      0.00
    9   16    2      3.25      0.00
   10   16    2      2.02      0.00
    5   17    2      0.00      0.00
    6   17    2     -0.51      0.00
    7   17    2      2.68      0.00
   -9  -16    3      1.82      0.00
   -8  -16    3     -0.03      0.00
   -7  -16    3     -2.57      0.00
   -6  -16    3     -0.15      0.00
   -5  -16    3      2.46      0.00
   -4  -16    3     -3.26      0.00
   -3  -16    3      4.83      0.00
   -2  -16    3     -2.84      0.00
  -10  -15    3      2.36      0.00
   -9  -15    3     -5.57      0.00
   -8  -15    3      2.11      0.00
   -7  -15    3      0.78      0.00
   -6  -15    3     -1.39      0.00
   -5  -15    3      0.20      0.00
   -4  -15    3     -1.72      0.00
   -3  -15    3      2.59      0.00
   -2  -15    3     -1.69      0.00
   -1  -15    3      0.29      0.00
    0  -15    3     -0.28      0.00
  -11  -14    3      2.70      0.00
  -10  -14    3     -3.38      0.00
   -9  -14    3      2.41      0.00
   -8  -14    3     -0.68      0.00
   -7  -14    3     -0.32      0.00
   -6  -14    3     -1.86      0.00
   -5  -14    3      4.44      0.00
   -4  -14    3     -6.04      0.00
   -3  -14    3      4.23      0.00
   -2  -14    3     -2.11      0.00
   -1  -14    3      1.89      0.00
    0  -14    3      1.82      0.00
    1  -14    3      2.34      0.00
    2  -14    3     -2.26      0.00
  -12  -13    3     -1.97      0.00
  -11  -13    3      3.86      0.00
  -10  -13    3     -3.82      0.00
   -9  -13    3      1.04      0.00
   -7  -13    3      3.82      0.00
   -6  -13    3     -5.80      0.00
   -5  -13    3      3.32      0.00
   -4  -13    3     -0.76      0.00
   -3  -13    3     -0.69      0.00
   -2  -13    3      1.28      0.00
   -1  -13    3     -0.68      0.00
    0  -13    3     -0.90      0.00
    1  -13    3      2.34      0.00
    2  -13    3      1.29      0.00
    3  -13    3      0.34      0.00
    4  -13    3     -2.18      0.00
  -13  -12    3     -1.11      0.00
  -12  -12    3     -0.55      0.00
  -11  -12    3     -0.10      0.00
  -10  -12    3     -2.77      0.00
   -9  -12    3      2.78      0.00
   -8  -12    3      0.77      0.00
   -7  -12    3     -3.94      0.00
   -6  -12    3      2.80      0.00
   -5  -12    3     -2.25      0.00
   -4  -12    3      1.02      0.00
   -3  -12    3     -0.73      0.00
   -2  -12    3      0.86      0.00
   -1  -12    3     -0.47      0.00
    0  -12    3      0.00      0.00
    1  -12    3      1.97      0.00
    2  -12    3     -0.38      0.00
    3  -12    3      3.10      0.00
    4  -12    3      1.42      0.00
    5  -12    3     -1.72      0.00
  -13  -11    3      1.76      0.00
  -12  -11    3     -3.36      0.00
  -11  -11    3      4.40      0.00
  -10  -11    3     -0.15      0.00
   -9  -11    3     -3.24      0.00
   -8  -11    3     -0.81      0.00
   -7  -11    3      2.26      0.00
   -6  -11    3     -4.01      0.00
   -5  -11    3      1.91      0.00
   -4  -11    3     -3.77      0.00
   -3  -11    3      1.20      0.00
   -2  -11    3     -0.35      0.00
   -1  -11    3      2.26      0.00
    0  -11    3     -0.94      0.00
    1  -11    3     -0.55      0.00
    2  -11    3      0.86      0.00
    3  -11    3     -0.39      0.00
    4  -11    3      4.41      0.00
    5  -11    3      0.08      0.00
    6  -11    3     -0.94      0.00
  -13  -10    3      0.84      0.00
  -12  -10    3      1.11      0.00
  -11  -10    3     -2.47      0.00
  -10  -10    3     -1.54      0.00
   -9  -10    3      2.08      0.00
   -8  -10    3     -0.88      0.00
   -7  -10    3     -0.87      0.00
   -6  -10    3      0.39      0.00
   -5  -10    3     -0.11      0.00
   -4  -10    3      0.58      0.00
   -3  -10    3     -0.07      0.00
   -2  -10    3     -0.22      0.00
   -1  -10    3     -2.07      0.00
    0  -10    3      2.15      0.00
    1  -10    3      1.60      0.00
    2  -10    3     -1.44      0.00
    3  -10    3      0.85      0.00
    4  -10    3     -0.92      0.00
    5  -10    3      2.85      0.00
    6  -10    3     -0.36      0.00
    7  -10    3     -0.28      0.00
  -14   -9    3     -2.27      0.00
  -13   -9    3     -0.50      0.00
  -12   -9    3      1.34      0.00
  -11   -9    3      2.25      0.00
  -10   -9    3      0.67      0.00
   -9   -9    3     -1.10      0.00
   -8   -9    3      1.85      0.00
   -7   -9    3     -3.08      0.00
   -6   -9    3      0.01      0.00
   -5   -9    3      2.45      0.00
   -4   -9    3     -2.86      0.00
   -3   -9    3     -1.00      0.00
   -2   -9    3      3.11      0.00
   -1   -9    3     -2.56      0.00
    0   -9    3     -0.32      0.00
    1   -9    3      1.53      0.00
    2   -9    3     -0.93      0.00
    3   -9    3      0.74      0.00
    4   -9    3     -1.41      0.00
    5   -9    3      2.69      0.00
    6   -9    3      0.09      0.00
    7   -9    3      1.18      0.00
    8   -9    3      1.16      0.00
  -14   -8    3      2.42      0.00
  -13   -8    3     -0.22      0.00
  -12   -8    3     -0.39      0.00
  -11   -8    3     -0.53      0.00
  -10   -8    3     -1.56      0.00
   -9   -8    3      1.45      0.00
   -8   -8    3      0.82      0.00
   -7   -8    3     -0.66      0.00
   -6   -8    3     -0.83      0.00
   -5   -8    3      0.03      0.00
   -4   -8    3      0.90      0.00
   -3   -8    3     -0.29      0.00
   -2   -8    3      0.49      0.00
   -1   -8    3      0.56      0.00
    0   -8    3     -0.53      0.00
    1   -8    3     -1.59      0.00
    2   -8    3      0.31      0.00
    3   -8    3      1.64      0.00
    4   -8    3     -3.06      0.00
    5   -8    3      2.53      0.00
    6   -8    3     -2.02      0.00
    7   -8    3      0.76      0.00
    8   -8    3     -1.32      0.00
  -14   -7    3     -1.32      0.00
  -13   -7    3      2.36      0.00
  -12   -7    3     -3.42      0.00
  -11   -7    3      4.33      0.00
  -10   -7    3      0.26      0.00
   -9   -7    3     -0.93      0.00
   -8   -7    3     -0.17      0.00
   -7   -7    3      2.79      0.00
   -6   -7    3      2.91      0.00
   -5   -7    3     -3.82      0.00
   -4   -7    3      3.03      0.00
   -3   -7    3     -0.49      0.00
   -2   -7    3      0.17      0.00
   -1   -7    3     -0.62      0.00
    0   -7    3      2.74      0.00
    1   -7    3      0.17      0.00
    2   -7    3      0.29      0.00
    3   -7    3     -1.30      0.00
    4   -7    3     -1.26      0.00
    5   -7    3      0.39      0.00
    6   -7    3      0.80      0.00
    7   -7    3     -0.04      0.00
    8   -7    3      1.77      0.00
    9   -7    3      0.99      0.00
  -14   -6    3     -2.48      0.00
  -13   -6    3      2.72      0.00
  -12   -6    3     -0.99      0.00
  -11   -6    3     -0.39      0.00
  -10   -6    3     -0.21      0.00
   -9   -6    3      1.32      0.00
   -8   -6    3     -0.89      0.00
   -7   -6    3     -0.21      0.00
   -6   -6    3     -3.79      0.00
   -5   -6    3      5.08      0.00
   -4   -6    3     -1.38      0.00
   -3   -6    3     -0.38      0.00
   -2   -6    3      4.43      0.00
   -1   -6    3     -3.07      0.00
    0   -6    3     -2.07      0.00
    1   -6    3     -0.47      0.00
    2   -6    3      0.11      0.00
    3   -6    3      0.68      0.00
    4   -6    3     -0.64      0.00
    5   -6    3     -2.13      0.00
    6   -6    3     -1.23      0.00
    7   -6    3      1.20      0.00
    8   -6    3     -1.37      0.00
    9   -6    3     -2.66      0.00
   10   -6    3     -1.03      0.00
  -14   -5    3      1.43      0.00
  -13   -5    3     -2.07      0.00
  -12   -5    3      1.34      0.00
  -11   -5    3      0.29      0.00
  -10   -5    3     -0.19      0.00
   -9   -5    3      2.05      0.00
   -8   -5    3     -0.01      0.00
   -7   -5    3      3.00      0.00
   -6   -5    3      0.10      0.00
   -5   -5    3      0.70      0.00
   -4   -5    3      0.39      0.00
   -3   -5    3     -0.55      0.00
   -2   -5    3     -1.86      0.00
   -1   -5    3      4.43      0.00
    0   -5    3      2.68      0.00
    1   -5    3     -2.95      0.00
    2   -5    3      0.58      0.00
    3   -5    3      2.54      0.00
    4   -5    3     -2.18      0.00
    5   -5    3      2.61      0.00
    6   -5    3     -2.45      0.00
    7   -5    3      0.38      0.00
    8   -5    3      0.09      0.00
    9   -5    3      3.21      0.00
   10   -5    3      0.63      0.00
   11   -5    3     -0.29      0.00
  -14   -4    3      1.07      0.00
  -13   -4    3     -1.62      0.00
  -12   -4    3      0.90      0.00
  -11   -4    3     -2.15      0.00
  -10   -4    3      0.72      0.00
   -9   -4    3     -1.63      0.00
   -8   -4    3      0.76      0.00
   -7   -4    3     -0.49      0.00
   -6   -4    3     -1.22      0.00
   -5   -4    3      2.23      0.00
   -4   -4    3     -0.88      0.00
   -3   -4    3      0.45      0.00
   -2   -4    3      2.36      0.00
   -1   -4    3     -0.20      0.00
    0   -4    3      1.91      0.00
    1   -4    3     -1.50      0.00
    2   -4    3     -0.85      0.00
    3   -4    3     -1.46      0.00
    4   -4    3     -1.56      0.00
    5   -4    3      1.89      0.00
    6   -4    3     -1.88      0.00
    7   -4    3     -0.67      0.00
    8   -4    3     -1.02      0.00
    9   -4    3     -0.21      0.00
   10   -4    3     -0.79      0.00
   11   -4    3     -2.96      0.00
  -14   -3    3     -1.44      0.00
  -13   -3    3      2.25      0.00
  -12   -3    3     -2.04      0.00
  -11   -3    3      3.66      0.00
  -10   -3    3     -2.19      0.00
   -9   -3    3      2.08      0.00
   -8   -3    3     -0.34      0.00
   -7   -3    3      1.52      0.00
   -6   -3    3      1.89      0.00
   -5   -3    3     -2.65      0.00
   -4   -3    3     -1.05      0.00
   -3   -3    3      2.53      0.00
   -2   -3    3     -4.32      0.00
   -1   -3    3     -6.95      0.00
    0   -3    3      2.07      0.00
    1   -3    3      1.55      0.00
    2   -3    3     -1.28      0.00
    3   -3    3      1.10      0.00
    4   -3    3     -0.61      0.00
    5   -3    3      0.52      0.00
    6   -3    3      0.95      0.00
    7   -3    3      0.34      0.00
    8   -3    3     -1.02      0.00
    9   -3    3     -0.16      0.00
   10   -3    3      2.38      0.00
   11   -3    3      2.44      0.00
   12   -3    3     -1.35      0.00
  -13   -2    3     -0.04      0.00
  -12   -2    3     -1.40      0.00
  -11   -2    3     -0.48      0.00
  -10   -2    3      1.64      0.00
   -9   -2    3     -2.78      0.00
   -8   -2    3      0.80      0.00
   -7   -2    3     -1.45      0.00
   -6   -2    3     -0.03      0.00
   -5   -2    3      2.33      0.00
   -4   -2    3     -0.86      0.00
   -3   -2    3      6.01      0.00
   -2   -2    3     -9.39      0.00
   -1   -2    3      9.08      0.00
    0   -2    3      5.73      0.00
    1   -2    3     -4.22      0.00
    2   -2    3      1.71      0.00
    3   -2    3      2.32      0.00
    4   -2    3     -6.84      0.00
    5   -2    3      2.89      0.00
    6   -2    3     -0.79      0.00
    7   -2    3      1.82      0.00
    8   -2    3     -0.13      0.00
    9   -2    3     -0.96      0.00
   10   -2    3     -1.57      0.00
   11   -2    3      1.09      0.00
   12   -2    3     -1.36      0.00
  -13   -1    3      3.29      0.00
  -12   -1    3     -1.43      0.00
  -11   -1    3      1.69      0.00
  -10   -1    3     -1.49      0.00
   -9   -1    3      1.98      0.00
   -8   -1    3      1.82      0.00
   -7   -1    3      0.12      0.00
   -6   -1    3     -0.99      0.00
   -5   -1    3     -1.85      0.00
   -4   -1    3     -3.84      0.00
   -3   -1    3      3.12      0.00
   -2   -1    3    -11.56      0.00
   -1   -1    3     16.25      0.00
    0   -1    3    -41.17      0.00
    1   -1    3     11.87      0.00
    2   -1    3      1.30      0.00
    3   -1    3     -3.73      0.00
    4   -1    3      3.68      0.00
    5   -1    3     -5.27      0.00
    6   -1    3      0.64      0.00
    7   -1    3     -0.18      0.00
    8   -1    3      1.59      0.00
    9   -1    3      1.02      0.00
   10   -1    3      0.77      0.00
   11   -1    3     -0.34      0.00
   12   -1    3     -0.97      0.00
  -13    0    3     -4.85      0.00
  -12    0    3      3.46      0.00
  -11    0    3     -1.06      0.00
  -10    0    3      0.28      0.00
   -9    0    3     -0.39      0.00
   -8    0    3     -0.39      0.00
   -7    0    3      1.41      0.00
   -6    0    3      2.36      0.00
   -5    0    3     -0.33      0.00
   -4    0    3      0.58      0.00
   -3    0    3     -9.15      0.00
   -2    0    3     20.16      0.00
   -1    0    3    -27.33      0.00
    0    0    3     43.31      0.00
    1    0    3    -23.05      0.00
    2    0    3     -1.27      0.00
    3    0    3      6.00      0.00
    4    0    3      0.08      0.00
    5    0    3      2.71      0.00
    6    0    3     -4.35      0.00
    7    0    3      1.79      0.00
    8    0    3     -1.42      0.00
    9    0    3      0.64      0.00
   10    0    3      0.38      0.00
   11    0    3      1.68      0.00
   12    0    3      0.07      0.00
   13    0    3     -1.08      0.00
  -12    1    3      2.34      0.00
  -11    1    3     -0.17      0.00
  -10    1    3     -0.62      0.00
   -9    1    3      1.63      0.00
   -8    1    3     -0.94      0.00
   -7    1    3     -1.02      0.00
   -6    1    3      1.69      0.00
   -5    1    3      0.22      0.00
   -4    1    3      4.28      0.00
   -3    1    3     -6.15      0.00
   -2    1    3     -8.55      0.00
   -1    1    3     -6.95      0.00
    0    1    3     -1.27      0.00
    1    1    3      1.96      0.00
    2    1    3    -19.22      0.00
    3    1    3     -0.21      0.00
    4    1    3     -3.14      0.00
    5    1    3      3.55      0.00
    6    1    3     -2.11      0.00
    7    1    3      1.63      0.00
    8    1    3      0.05      0.00
    9    1    3     -1.31      0.00
   10    1    3      1.61      0.00
   11    1    3     -0.32      0.00
   12    1    3      0.16      0.00
   13    1    3      1.57      0.00
  -12    2    3      0.43      0.00
  -11    2    3     -1.46      0.00
  -10    2    3      5.11      0.00
   -9    2    3     -1.05      0.00
   -8    2    3      1.88      0.00
   -7    2    3     -0.14      0.00
   -6    2    3      1.56      0.00
   -5    2    3     -2.42      0.00
   -4    2    3      2.29      0.00
   -3    2    3     -2.19      0.00
   -2    2    3     12.77      0.00
   -1    2    3      0.82      0.00
    0    2    3    -37.95      0.00
    1    2    3     37.41      0.00
    2    2    3      0.56      0.00
    3    2    3     -7.57      0.00
    4    2    3      0.25      0.00
    5    2    3     -3.47      0.00
    6    2    3      0.49      0.00
    7    2    3      0.70      0.00
    8    2    3     -1.45      0.00
    9    2    3      1.26      0.00
   10    2    3     -2.28      0.00
   11    2    3      2.05      0.00
   12    2    3     -0.54      0.00
   13    2    3      0.15      0.00
  -12    3    3      4.01      0.00
  -11    3    3     -1.44      0.00
  -10    3    3     -2.59      0.00
   -9    3    3      2.74      0.00
   -8    3    3      1.59      0.00
   -7    3    3     -1.64      0.00
   -6    3    3     -0.31      0.00
   -5    3    3      3.46      0.00
   -4    3    3     -0.70      0.00
   -3    3    3     -4.39      0.00
   -2    3    3     -0.68      0.00
   -1    3    3      0.46      0.00
    0    3    3     14.59      0.00
    1    3    3    -31.34      0.00
    2    3    3     -2.90      0.00
    3    3    3      8.82      0.00
    4    3    3     -8.27      0.00
    5    3    3      3.51      0.00
    6    3    3     -6.26      0.00
    7    3    3      4.10      0.00
    8    3    3     -2.61      0.00
    9    3    3      2.26      0.00
   10    3    3      1.84      0.00
   11    3    3     -1.91      0.00
   12    3    3     -0.54      0.00
   13    3    3      4.83      0.00
   14    3    3     -3.59      0.00
  -11    4    3      1.83      0.00
  -10    4    3      0.08      0.00
   -9    4    3      1.37      0.00
   -8    4    3     -1.20      0.00
   -7    4    3      4.09      0.00
   -6    4    3      1.26      0.00
   -5    4    3     -1.33      0.00
   -4    4    3      4.33      0.00
   -3    4    3     -2.64      0.00
   -2    4    3      1.30      0.00
   -1    4    3     -2.21      0.00
    0    4    3     -6.57      0.00
    1    4    3      9.59      0.00
    2    4    3     -1.73      0.00
    3    4    3     -7.23      0.00
    4    4    3      1.74      0.00
    5    4    3      0.99      0.00
    6    4    3     -0.23      0.00
    7    4    3     -4.31      0.00
    8    4    3      1.25      0.00
    9    4    3     -4.27      0.00
   10    4    3      2.12      0.00
   11    4    3     -2.72      0.00
   12    4    3      2.58      0.00
   13    4    3     -1.72      0.00
   14    4    3     -1.10      0.00
  -11    5    3      0.68      0.00
  -10    5    3     -0.50      0.00
   -9    5    3     -1.05      0.00
   -8    5    3      1.48      0.00
   -7    5    3     -1.64      0.00
   -6    5    3     -0.05      0.00
   -5    5    3      1.50      0.00
   -4    5    3     -0.55      0.00
   -3    5    3     -0.01      0.00
   -2    5    3      2.96      0.00
   -1    5    3     -1.84      0.00
    0    5    3      5.81      0.00
    1    5    3     -5.50      0.00
    2    5    3     -1.69      0.00
    3    5    3      0.51      0.00
    4    5    3      0.01      0.00
    5    5    3     -5.02      0.00
    6    5    3      0.70      0.00
    7    5    3      3.95      0.00
    8    5    3     -2.90      0.00
    9    5    3      2.96      0.00
   10    5    3     -2.65      0.00
   11    5    3      2.11      0.00
   12    5    3     -0.29      0.00
   13    5    3     -0.63      0.00
   14    5    3      3.35      0.00
  -10    6    3      9.68      0.00
   -9    6    3     -3.61      0.00
   -8    6    3     -1.26      0.00
   -7    6    3      3.06      0.00
   -6    6    3     -0.14      0.00
   -5    6    3     -0.47      0.00
   -4    6    3      3.77      0.00
   -3    6    3      1.20      0.00
   -2    6    3     -4.77      0.00
   -1    6    3      4.29      0.00
    0    6    3     -4.83      0.00
    1    6    3      0.32      0.00
    2    6    3      1.60      0.00
    3    6    3     -2.08      0.00
    4    6    3     -3.06      0.00
    5    6    3      3.55      0.00
    6    6    3     -2.72      0.00
    7    6    3      0.12      0.00
    8    6    3     -1.48      0.00
    9    6    3     -0.94      0.00
   10    6    3      0.34      0.00
   11    6    3     -0.71      0.00
   12    6    3     -2.75      0.00
   13    6    3      1.93      0.00
   14    6    3     -2.05      0.00
   -9    7    3      4.13      0.00
   -8    7    3      2.17      0.00
   -7    7    3     -4.69      0.00
   -6    7    3      1.81      0.00
   -5    7    3     -2.12      0.00
   -4    7    3      1.34      0.00
   -3    7    3     -0.20      0.00
   -2    7    3      1.08      0.00
   -1    7    3      0.06      0.00
    0    7    3      2.15      0.00
    1    7    3      1.56      0.00
    2    7    3     -0.18      0.00
    3    7    3     -0.08      0.00
    4    7    3      2.13      0.00
    5    7    3     -1.79      0.00
    6    7    3      1.23      0.00
    7    7    3     -2.55      0.00
    8    7    3      2.64      0.00
    9    7    3      2.09      0.00
   10    7    3     -3.71      0.00
   11    7    3      1.07      0.00
   12    7    3      1.89      0.00
   13    7    3      0.51      0.00
   14    7    3     -1.98      0.00
   -9    8    3     -1.98      0.00
   -8    8    3      0.09      0.00
   -7    8    3     -1.12      0.00
   -6    8    3      3.82      0.00
   -5    8    3     -4.79      0.00
   -4    8    3      0.14      0.00
   -3    8    3      3.05      0.00
   -2    8    3      0.17      0.00
   -1    8    3     -0.15      0.00
    0    8    3      0.26      0.00
    1    8    3     -2.66      0.00
    2    8    3      0.80      0.00
    3    8    3      0.71      0.00
    4    8    3     -0.95      0.00
    5    8    3      0.41      0.00
    6    8    3      1.93      0.00
    7    8    3      1.28      0.00
    8    8    3     -3.59      0.00
    9    8    3     -0.23      0.00
   10    8    3      3.40      0.00
   11    8    3     -0.83      0.00
   12    8    3     -3.49      0.00
   13    8    3      1.84      0.00
   14    8    3      0.47      0.00
   -8    9    3     -0.74      0.00
   -7    9    3      3.61      0.00
   -6    9    3     -5.95      0.00
   -5    9    3      3.14      0.00
   -4    9    3     -0.03      0.00
   -3    9    3     -2.11      0.00
   -2    9    3     -1.43      0.00
   -1    9    3      2.31      0.00
    0    9    3      1.21      0.00
    1    9    3      0.09      0.00
    2    9    3      1.74      0.00
    3    9    3      0.54      0.00
    4    9    3     -0.11      0.00
    5    9    3     -0.94      0.00
    6    9    3      1.05      0.00
    7    9    3     -0.38      0.00
    8    9    3      4.39      0.00
    9    9    3     -1.88      0.00
   10    9    3     -1.25      0.00
   11    9    3      0.75      0.00
   12    9    3      1.90      0.00
   13    9    3     -2.99      0.00
   14    9    3      4.29      0.00
   -7   10    3     -5.08      0.00
   -6   10    3      8.61      0.00
   -5   10    3     -5.46      0.00
   -4   10    3     -1.87      0.00
   -3   10    3      2.89      0.00
   -2   10    3     -1.56      0.00
   -1   10    3      0.08      0.00
    0   10    3      1.21      0.00
    1   10    3     -1.96      0.00
    2   10    3     -0.19      0.00
    3   10    3      0.69      0.00
    4   10    3      0.38      0.00
    5   10    3      0.86      0.00
    6   10    3     -0.82      0.00
    7   10    3      2.49      0.00
    8   10    3     -3.65      0.00
    9   10    3      2.92      0.00
   10   10    3      1.09      0.00
   11   10    3     -1.71      0.00
   12   10    3      0.98      0.00
   13   10    3      1.18      0.00
   14   10    3     -4.40      0.00
   -6   11    3     -4.03      0.00
   -5   11    3      2.13      0.00
   -4   11    3      0.20      0.00
   -3   11    3      0.96      0.00
   -2   11    3     -3.13      0.00
   -1   11    3      0.21      0.00
    0   11    3      1.96      0.00
    1   11    3      0.10      0.00
    2   11    3      0.27      0.00
    3   11    3     -1.34      0.00
    4   11    3      3.42      0.00
    5   11    3     -3.05      0.00
    6   11    3      2.38      0.00
    7   11    3     -0.96      0.00
    8   11    3      1.70      0.00
    9   11    3      0.23      0.00
   10   11    3      0.13      0.00
   11   11    3      1.61      0.00
   12   11    3      0.97      0.00
   13   11    3     -3.43      0.00
   -5   12    3      8.00      0.00
   -4   12    3     -4.28      0.00
   -3   12    3     -1.26      0.00
   -2   12    3      5.33      0.00
   -1   12    3     -3.15      0.00
    0   12    3     -1.89      0.00
    1   12    3      2.89      0.00
    2   12    3     -1.38      0.00
    3   12    3     -0.89      0.00
    4   12    3      0.54      0.00
    5   12    3     -0.87      0.00
    6   12    3     -0.76      0.00
    7   12    3      1.40      0.00
    8   12    3     -0.35      0.00
    9   12    3      0.23      0.00
   10   12    3     -0.36      0.00
   11   12    3     -1.79      0.00
   12   12    3      1.17      0.00
   13   12    3      4.31      0.00
   -4   13    3      2.69      0.00
   -3   13    3      3.48      0.00
   -2   13    3     -5.00      0.00
   -1   13    3      2.35      0.00
    0   13    3      0.56      0.00
    1   13    3     -1.07      0.00
    2   13    3      0.00      0.00
    3   13    3      0.85      0.00
    4   13    3     -1.15      0.00
    5   13    3      1.02      0.00
    6   13    3      1.85      0.00
    7   13    3     -4.97      0.00
    8   13    3      4.26      0.00
    9   13    3     -1.54      0.00
   10   13    3      1.97      0.00
   11   13    3      0.11      0.00
   12   13    3      1.33      0.00
   13   13    3     -3.64      0.00
   -3   14    3     -0.82      0.00
   -2   14    3      4.54      0.00
   -1   14    3     -0.10      0.00
    0   14    3     -3.10      0.00
    1   14    3      6.66      0.00
    2   14    3     -4.33      0.00
    3   14    3      0.30      0.00
    4   14    3      1.43      0.00
    5   14    3     -4.54      0.00
    6   14    3      3.11      0.00
    7   14    3      1.05      0.00
    8   14    3     -5.20      0.00
    9   14    3      3.47      0.00
   10   14    3     -0.03      0.00
   11   14    3     -0.52      0.00
   12   14    3     -0.37      0.00
   -1   15    3      5.09      0.00
    0   15    3     -0.73      0.00
    1   15    3     -5.58      0.00
    2   15    3      5.39      0.00
    3   15    3      0.31      0.00
    4   15    3     -3.00      0.00
    5   15    3      2.45      0.00
    6   15    3     -3.26      0.00
    7   15    3     -0.08      0.00
    8   15    3      5.23      0.00
    9   15    3     -6.45      0.00
   10   15    3      2.05      0.00
   11   15    3     -0.62      0.00
    1   16    3      0.89      0.00
    2   16    3     -0.65      0.00
    3   16    3     -1.42      0.00
    4   16    3      2.09      0.00
    5   16    3      0.56      0.00
    6   16    3     -1.83      0.00
    7   16    3     -0.30      0.00
    8   16    3     -0.88      0.00
    9   16    3      3.43      0.00
   10   16    3     -3.77      0.00
    5   17    3     -0.35      0.00
    6   17    3      2.92      0.00
    7   17    3     -4.10      0.00
   -8  -16    4     -1.79      0.00
   -7  -16    4      0.69      0.00
   -6  -16    4      1.94      0.00
   -5  -16    4     -3.79      0.00
   -4  -16    4      2.21      0.00
   -3  -16    4     -0.41      0.00
   -2  -16    4     -0.63      0.00
  -10  -15    4     -5.27      0.00
   -9  -15    4      2.94      0.00
   -8  -15    4     -0.21      0.00
   -7  -15    4     -3.14      0.00
   -6  -15    4      2.13      0.00
   -5  -15    4      0.57      0.00
   -4  -15    4      1.58      0.00
   -3  -15    4     -1.39      0.00
   -2  -15    4     -0.01      0.00
   -1  -15    4     -3.70      0.00
    0  -15    4      3.75      0.00
  -11  -14    4     -2.96      0.00
  -10  -14    4      5.99      0.00
   -9  -14    4     -2.91      0.00
   -8  -14    4      3.25      0.00
   -7  -14    4      0.20      0.00
   -6  -14    4      2.88      0.00
   -5  -14    4     -5.27      0.00
   -4  -14    4      3.92      0.00
   -3  -14    4     -2.07      0.00
   -2  -14    4      1.04      0.00
   -1  -14    4      0.71      0.00
    0  -14    4     -2.58      0.00
    1  -14    4      2.47      0.00
    2  -14    4     -1.19      0.00
  -12  -13    4      2.31      0.00
  -11  -13    4     -2.07      0.00
  -10  -13    4      1.49      0.00
   -9  -13    4     -0.84      0.00
   -8  -13    4      0.97      0.00
   -7  -13    4     -3.33      0.00
   -6  -13    4      3.02      0.00
   -5  -13    4      0.67      0.00
   -4  -13    4     -3.89      0.00
   -3  -13    4      4.76      0.00
   -2  -13    4     -2.37      0.00
   -1  -13    4     -1.16      0.00
    0  -13    4      3.41      0.00
    1  -13    4     -5.65      0.00
    2  -13    4     -1.27      0.00
    3  -13    4     -1.45      0.00
  -12  -12    4     -0.14      0.00
  -11  -12    4      0.69      0.00
  -10  -12    4     -1.08      0.00
   -9  -12    4      2.29      0.00
   -8  -12    4     -1.45      0.00
   -7  -12    4      5.43      0.00
   -6  -12    4     -2.45      0.00
   -5  -12    4      2.92      0.00
   -4  -12    4      0.15      0.00
   -3  -12    4     -0.68      0.00
   -2  -12    4     -0.45      0.00
   -1  -12    4     -0.51      0.00
    0  -12    4     -1.04      0.00
    1  -12    4      1.45      0.00
    2  -12    4     -0.85      0.00
    3  -12    4     -0.57      0.00
    4  -12    4     -4.19      0.00
    5  -12    4      1.29      0.00
  -13  -11    4     -3.10      0.00
  -12  -11    4      2.74      0.00
  -11  -11    4     -0.73      0.00
  -10  -11    4      0.09      0.00
   -9  -11    4      2.84      0.00
   -8  -11    4      0.73      0.00
   -7  -11    4     -4.42      0.00
   -6  -11    4      3.10      0.00
   -5  -11    4     -2.03      0.00
   -4  -11    4      1.21      0.00
   -3  -11    4     -0.24      0.00
   -2  -11    4      1.20      0.00
   -1  -11    4     -2.79      0.00
    0  -11    4      2.19      0.00
    1  -11    4     -2.43      0.00
    2  -11    4     -0.59      0.00
    3  -11    4      0.38      0.00
    4  -11    4     -2.15      0.00
    5  -11    4     -1.82      0.00
    6  -11    4     -0.05      0.00
  -13  -10    4      1.45      0.00
  -12  -10    4     -3.89      0.00
  -11  -10    4      2.69      0.00
  -10  -10    4     -0.79      0.00
   -9  -10    4     -1.08      0.00
   -8  -10    4     -1.32      0.00
   -7  -10    4      5.95      0.00
   -6  -10    4     -1.68      0.00
   -5  -10    4      1.67      0.00
   -4  -10    4     -0.09      0.00
   -3  -10    4      1.88      0.00
   -2  -10    4     -1.44      0.00
   -1  -10    4      3.01      0.00
    0  -10    4     -2.50      0.00
    1  -10    4     -1.43      0.00
    2  -10    4      1.37      0.00
    3  -10    4     -1.79      0.00
    4  -10    4      1.75      0.00
    5  -10    4     -3.20      0.00
    6  -10    4     -1.51      0.00
    7  -10    4     -0.69      0.00
  -13   -9    4     -0.04      0.00
  -12   -9    4      0.83      0.00
  -11   -9    4     -2.82      0.00
  -10   -9    4      1.13      0.00
   -9   -9    4      2.31      0.00
   -8   -9    4     -0.07      0.00
   -7   -9    4     -0.81      0.00
   -6   -9    4      2.33      0.00
   -5   -9    4     -3.43      0.00
   -4   -9    4      0.90      0.00
   -3   -9    4      0.26      0.00
   -2   -9    4     -1.30      0.00
   -1   -9    4     -0.92      0.00
    0   -9    4      2.94      0.00
    1   -9    4     -1.41      0.00
    2   -9    4     -0.28      0.00
    3   -9    4     -2.88      0.00
    4   -9    4      3.06      0.00
    5   -9    4     -2.68      0.00
    6   -9    4      1.15      0.00
    7   -9    4     -0.32      0.00
    8   -9    4     -0.47      0.00
  -14   -8    4     -0.97      0.00
  -13   -8    4     -1.97      0.00
  -12   -8    4      2.05      0.00
  -11   -8    4      1.13      0.00
  -10   -8    4     -1.29      0.00
   -9   -8    4     -2.11      0.00
   -8   -8    4      0.11      0.00
   -7   -8    4     -0.63      0.00
   -6   -8    4     -0.88      0.00
   -5   -8    4      4.01      0.00
   -4   -8    4     -1.94      0.00
   -3   -8    4      0.08      0.00
   -2   -8    4      2.01      0.00
   -1   -8    4     -2.41      0.00
    0   -8    4      0.03      0.00
    1   -8    4      1.52      0.00
    2   -8    4     -0.30      0.00
    3   -8    4     -0.49      0.00
    4   -8    4      0.85      0.00
    5   -8    4     -0.97      0.00
    6   -8    4     -1.31      0.00
    7   -8    4     -0.86      0.00
    8   -8    4     -0.96      0.00
  -14   -7    4      3.48      0.00
  -13   -7    4     -3.03      0.00
  -12   -7    4      0.99      0.00
  -11   -7    4     -2.99      0.00
  -10   -7    4      0.57      0.00
   -9   -7    4      1.96      0.00
   -8   -7    4      1.42      0.00
   -7   -7    4     -1.96      0.00
   -6   -7    4      0.51      0.00
   -5   -7    4     -0.41      0.00
   -4   -7    4     -0.20      0.00
   -3   -7    4     -1.41      0.00
   -2   -7    4      0.44      0.00
   -1   -7    4      1.18      0.00
    0   -7    4     -0.67      0.00
    1   -7    4     -0.71      0.00
    2   -7    4      1.18      0.00
    3   -7    4      0.72      0.00
    4   -7    4     -1.28      0.00
    5   -7    4      2.51      0.00
    6   -7    4     -0.75      0.00
    7   -7    4      0.94      0.00
    8   -7    4      0.82      0.00
    9   -7    4      0.81      0.00
  -14   -6    4      0.26      0.00
  -13   -6    4     -1.56      0.00
  -12   -6    4      1.80      0.00
  -11   -6    4     -1.00      0.00
  -10   -6    4      0.71      0.00
   -9   -6    4     -3.90      0.00
   -8   -6    4      0.03      0.00
   -7   -6    4     -0.81      0.00
   -6   -6    4      1.93      0.00
   -5   -6    4     -4.75      0.00
   -4   -6    4      1.14      0.00
   -3   -6    4     -0.41      0.00
   -2   -6    4     -2.66      0.00
   -1   -6    4     -0.37      0.00
    0   -6    4      0.87      0.00
    1   -6    4     -0.07      0.00
    2   -6    4     -0.69      0.00
    3   -6    4     -1.75      0.00
    4   -6    4      1.01      0.00
    5   -6    4      0.52      0.00
    6   -6    4      0.46      0.00
    7   -6    4     -1.93      0.00
    8   -6    4     -1.54      0.00
    9   -6    4      0.34      0.00
   10   -6    4     -1.53      0.00
  -14   -5    4      0.00      0.00
  -13   -5    4      1.30      0.00
  -12   -5    4     -0.20      0.00
  -11   -5    4     -1.01      0.00
  -10   -5    4      1.12      0.00
   -9   -5    4     -0.30      0.00
   -8   -5    4      0.85      0.00
   -7   -5    4     -1.89      0.00
   -6   -5    4      0.50      0.00
   -5   -5    4      0.30      0.00
   -4   -5    4     -0.48      0.00
   -3   -5    4     -0.99      0.00
   -2   -5    4      3.23      0.00
   -1   -5    4     -6.37      0.00
    0   -5    4      0.31      0.00
    1   -5    4      1.53      0.00
    2   -5    4      3.54      0.00
    3   -5    4     -0.60      0.00
    4   -5    4      1.59      0.00
    5   -5    4     -1.83      0.00
    6   -5    4      2.11      0.00
    7   -5    4      2.08      0.00
    8   -5    4      1.17      0.00
    9   -5    4     -1.26      0.00
   10   -5    4      2.86      0.00
  -14   -4    4     -0.12      0.00
  -13   -4    4     -2.02      0.00
  -12   -4    4      1.23      0.00
  -11   -4    4     -0.68      0.00
  -10   -4    4     -0.17      0.00
   -9   -4    4     -1.58      0.00
   -8   -4    4     -0.14      0.00
   -7   -4    4     -1.80      0.00
   -6   -4    4     -1.00      0.00
   -5   -4    4     -1.01      0.00
   -4   -4    4      0.91      0.00
   -3   -4    4     -2.01      0.00
   -2   -4    4     -2.31      0.00
   -1   -4    4      5.60      0.00
    0   -4    4     -2.29      0.00
    1   -4    4     -4.00      0.00
    2   -4    4      0.18      0.00
    3   -4    4      0.50      0.00
    4   -4    4     -0.30      0.00
    5   -4    4      0.05      0.00
    6   -4    4     -1.41      0.00
    7   -4    4      0.64      0.00
    8   -4    4     -1.04      0.00
    9   -4    4     -0.03      0.00
   10   -4    4     -2.82      0.00
   11   -4    4     -0.41      0.00
  -13   -3    4     -3.11      0.00
  -12   -3    4      4.13      0.00
  -11   -3    4     -2.88      0.00
  -10   -3    4      1.89      0.00
   -9   -3    4     -0.03      0.00
   -8   -3    4      0.46      0.00
   -7   -3    4      0.59      0.00
   -6   -3    4     -1.10      0.00
   -5   -3    4     -0.50      0.00
   -4   -3    4     -0.04      0.00
   -3   -3    4     -5.14      0.00
   -2   -3    4      3.07      0.00
   -1   -3    4     -2.60      0.00
    0   -3    4     -2.29      0.00
    1   -3    4     -1.73      0.00
    2   -3    4      3.21      0.00
    3   -3    4     -2.65      0.00
    4   -3    4      2.98      0.00
    5   -3    4      1.52      0.00
    6   -3    4     -0.13      0.00
    7   -3    4     -1.25      0.00
    8   -3    4      2.24      0.00
    9   -3    4      0.61      0.00
   10   -3    4      2.64      0.00
   11   -3    4     -3.21      0.00
   12   -3    4      5.23      0.00
  -13   -2    4      0.20      0.00
  -12   -2    4     -1.27      0.00
  -11   -2    4      1.61      0.00
  -10   -2    4     -2.96      0.00
   -9   -2    4      1.50      0.00
   -8   -2    4     -2.45      0.00
   -7   -2    4     -1.13      0.00
   -6   -2    4      1.00      0.00
   -5   -2    4     -1.61      0.00
   -4   -2    4      2.21      0.00
   -3   -2    4     -1.37      0.00
   -2   -2    4      9.94      0.00
   -1   -2    4     -8.23      0.00
    0   -2    4      9.36      0.00
    1   -2    4     -0.41      0.00
    2   -2    4     -0.32      0.00
    3   -2    4     -0.57      0.00
    4   -2    4      0.05      0.00
    5   -2    4     -0.39      0.00
    6   -2    4      0.90      0.00
    7   -2    4     -1.88      0.00
    8   -2    4     -1.05      0.00
    9   -2    4      1.06      0.00
   10   -2    4     -1.74      0.00
   11   -2    4     -0.18      0.00
   12   -2    4     -0.22      0.00
  -13   -1    4     -0.30      0.00
  -12   -1    4      1.42      0.00
  -11   -1    4     -1.76      0.00
  -10   -1    4      2.48      0.00
   -9   -1    4     -1.26      0.00
   -8   -1    4     -0.36      0.00
   -7   -1    4      1.01      0.00
   -6   -1    4     -1.35      0.00
   -5   -1    4      1.71      0.00
   -4   -1    4     -1.94      0.00
   -3   -1    4      0.90      0.00
   -2   -1    4    -12.14      0.00
   -1   -1    4      0.58      0.00
    0   -1    4      8.13      0.00
    1   -1    4     -8.15      0.00
    2   -1    4     -3.44      0.00
    3   -1    4      2.50      0.00
    4   -1    4     -4.57      0.00
    5   -1    4      3.13      0.00
    6   -1    4      2.47      0.00
    7   -1    4      0.01      0.00
    8   -1    4     -1.03      0.00
    9   -1    4     -2.07      0.00
   10   -1    4      1.68      0.00
   11   -1    4     -0.69      0.00
   12   -1    4      1.52      0.00
  -13    0    4      2.25      0.00
  -12    0    4     -2.22      0.00
  -11    0    4      1.96      0.00
  -10    0    4     -2.00      0.00
   -9    0    4      1.36      0.00
   -8    0    4     -0.51      0.00
   -7    0    4     -1.92      0.00
   -6    0    4     -2.16      0.00
   -5    0    4      0.27      0.00
   -4    0    4     -0.43      0.00
   -3    0    4      8.37      0.00
   -2    0    4      2.27      0.00
   -1    0    4     11.78      0.00
    0    0    4    -18.12      0.00
    1    0    4     15.80      0.00
    2    0    4     10.76      0.00
    3    0    4     -3.14      0.00
    4    0    4      3.60      0.00
    5    0    4     -7.99      0.00
    6    0    4      3.43      0.00
    7    0    4     -0.95      0.00
    8    0    4      0.75      0.00
    9    0    4      0.64      0.00
   10    0    4     -0.86      0.00
   11    0    4     -2.21      0.00
   12    0    4      0.67      0.00
   13    0    4     -0.39      0.00
  -12    1    4     -2.05      0.00
  -11    1    4     -0.17      0.00
  -10    1    4      0.13      0.00
   -9    1    4     -1.93      0.00
   -8    1    4      0.11      0.00
   -7    1    4      2.28      0.00
   -6    1    4     -2.22      0.00
   -5    1    4      0.89      0.00
   -4    1    4     -6.61      0.00
   -3    1    4      2.27      0.00
   -2    1    4      2.70      0.00
   -1    1    4    -14.92      0.00
    0    1    4     26.68      0.00
    1    1    4    -30.08      0.00
    2    1    4      6.37      0.00
    3    1    4      1.37      0.00
    4    1    4      0.30      0.00
    5    1    4      0.79      0.00
    6    1    4     -0.31      0.00
    7    1    4     -0.42      0.00
    8    1    4     -0.43      0.00
    9    1    4      0.74      0.00
   10    1    4     -1.01      0.00
   11    1    4      0.72      0.00
   12    1    4     -0.47      0.00
   13    1    4     -1.46      0.00
  -12    2    4     -0.31      0.00
  -11    2    4      2.23      0.00
  -10    2    4     -3.74      0.00
   -9    2    4      2.48      0.00
   -8    2    4     -2.62      0.00
   -7    2    4      0.64      0.00
   -6    2    4     -0.77      0.00
   -5    2    4      2.15      0.00
   -4    2    4     -2.41      0.00
   -3    2    4      1.61      0.00
   -2    2    4     -5.30      0.00
   -1    2    4      9.42      0.00
    0    2    4      8.17      0.00
    1    2    4      4.78      0.00
    2    2    4     -3.21      0.00
    3    2    4      3.34      0.00
    4    2    4      4.52      0.00
    5    2    4      0.60      0.00
    6    2    4      1.43      0.00
    7    2    4     -3.72      0.00
    8    2    4      1.61      0.00
    9    2    4     -1.34      0.00
   10    2    4     -0.69      0.00
   11    2    4     -1.01      0.00
   12    2    4      2.56      0.00
   13    2    4     -3.46      0.00
  -12    3    4     -2.87      0.00
  -11    3    4     -1.70      0.00
  -10    3    4      3.94      0.00
   -9    3    4     -5.14      0.00
   -8    3    4     -1.13      0.00
   -7    3    4     -1.44      0.00
   -6    3    4     -0.55      0.00
   -5    3    4     -1.73      0.00
   -4    3    4     -0.85      0.00
   -3    3    4      4.92      0.00
   -2    3    4      0.59      0.00
   -1    3    4     -7.15      0.00
    0    3    4     -7.37      0.00
    1    3    4     14.85      0.00
    2    3    4     -0.82      0.00
    3    3    4     -4.74      0.00
    4    3    4      1.71      0.00
    5    3    4     -5.11      0.00
    6    3    4      6.75      0.00
    7    3    4     -0.09      0.00
    8    3    4      1.06      0.00
    9    3    4      1.34      0.00
   10    3    4     -2.45      0.00
   11    3    4      2.72      0.00
   12    3    4     -1.24      0.00
   13    3    4     -2.06      0.00
   14    3    4      2.62      0.00
  -11    4    4      0.69      0.00
  -10    4    4     -3.83      0.00
   -9    4    4      4.98      0.00
   -8    4    4      0.19      0.00
   -7    4    4     -1.62      0.00
   -6    4    4     -1.08      0.00
   -5    4    4      2.55      0.00
   -4    4    4     -5.82      0.00
   -3    4    4      0.23      0.00
   -2    4    4     -0.10      0.00
   -1    4    4      4.25      0.00
    0    4    4      1.46      0.00
    1    4    4     -5.30      0.00
    2    4    4      2.08      0.00
    3    4    4      8.81      0.00
    4    4    4     -2.47      0.00
    5    4    4      4.14      0.00
    6    4    4     -4.74      0.00
    7    4    4      0.85      0.00
    8    4    4     -0.43      0.00
    9    4    4      0.49      0.00
   10    4    4     -0.70      0.00
   11    4    4     -0.22      0.00
   12    4    4     -1.48      0.00
   13    4    4      0.80      0.00
   14    4    4     -0.58      0.00
  -11    5    4      3.25      0.00
  -10    5    4     -4.46      0.00
   -9    5    4      1.35      0.00
   -8    5    4     -2.65      0.00
   -7    5    4     -0.56      0.00
   -6    5    4     -1.77      0.00
   -5    5    4     -1.22      0.00
   -4    5    4      0.48      0.00
   -3    5    4     -1.66      0.00
   -2    5    4      0.49      0.00
   -1    5    4      1.22      0.00
    0    5    4     -4.35      0.00
    1    5    4      9.35      0.00
    2    5    4     -3.31      0.00
    3    5    4     -0.45      0.00
    4    5    4      0.03      0.00
    5    5    4      2.26      0.00
    6    5    4      3.00      0.00
    7    5    4     -3.48      0.00
    8    5    4      4.09      0.00
    9    5    4     -1.92      0.00
   10    5    4      4.41      0.00
   11    5    4     -3.11      0.00
   12    5    4      2.92      0.00
   13    5    4      0.29      0.00
   14    5    4     -2.56      0.00
  -10    6    4     -6.54      0.00
   -9    6    4      3.60      0.00
   -8    6    4      0.24      0.00
   -7    6    4      2.23      0.00
   -6    6    4     -2.40      0.00
   -5    6    4      3.81      0.00
   -4    6    4     -5.06      0.00
   -3    6    4     -0.08      0.00
   -2    6    4      1.18      0.00
   -1    6    4     -3.75      0.00
    0    6    4      2.67      0.00
    1    6    4     -5.10      0.00
    2    6    4      0.67      0.00
    3    6    4      1.34      0.00
    4    6    4      1.55      0.00
    5    6    4     -2.39      0.00
    6    6    4     -0.16      0.00
    7    6    4      2.27      0.00
    8    6    4     -2.42      0.00
    9    6    4      0.47      0.00
   10    6    4     -1.57      0.00
   11    6    4      1.84      0.00
   12    6    4     -0.08      0.00
   13    6    4     -2.70      0.00
   14    6    4      3.00      0.00
   -9    7    4     -5.87      0.00
   -8    7    4     -2.27      0.00
   -7    7    4      3.69      0.00
   -6    7    4     -3.98      0.00
   -5    7    4      1.06      0.00
   -4    7    4      0.82      0.00
   -3    7    4     -3.43      0.00
   -2    7    4     -0.30      0.00
   -1    7    4      2.16      0.00
    0    7    4     -3.08      0.00
    1    7    4      4.25      0.00
    2    7    4     -1.64      0.00
    3    7    4      2.67      0.00
    4    7    4     -4.82      0.00
    5    7    4      3.54      0.00
    6    7    4     -1.81      0.00
    7    7    4      1.40      0.00
    8    7    4     -0.09      0.00
    9    7    4     -0.25      0.00
   10    7    4      2.27      0.00
   11    7    4     -1.44      0.00
   12    7    4      0.19      0.00
   13    7    4      0.28      0.00
   14    7    4      0.37      0.00
   -9    8    4      5.94      0.00
   -8    8    4     -0.82      0.00
   -7    8    4     -1.14      0.00
   -6    8    4      0.47      0.00
   -5    8    4      2.62      0.00
   -4    8    4      0.44      0.00
   -3    8    4     -1.24      0.00
   -2    8    4     -1.32      0.00
   -1    8    4     -0.06      0.00
    0    8    4     -1.74      0.00
    1    8    4     -0.65      0.00
    2    8    4     -0.49      0.00
    3    8    4     -3.03      0.00
    4    8    4      3.30      0.00
    5    8    4     -1.94      0.00
    6    8    4     -0.33      0.00
    7    8    4     -2.17      0.00
    8    8    4      1.78      0.00
    9    8    4      1.38      0.00
   10    8    4     -4.32      0.00
   11    8    4      2.25      0.00
   12    8    4      1.49      0.00
   13    8    4     -0.24      0.00
   14    8    4     -2.18      0.00
   -8    9    4      0.87      0.00
   -7    9    4     -0.97      0.00
   -6    9    4      3.57      0.00
   -5    9    4     -5.34      0.00
   -4    9    4      2.26      0.00
   -3    9    4      1.65      0.00
   -2    9    4     -0.09      0.00
   -1    9    4     -1.65      0.00
    0    9    4      0.11      0.00
    1    9    4      0.08      0.00
    2    9    4     -0.85      0.00
    3    9    4      1.83      0.00
    4    9    4     -2.74      0.00
    5    9    4      1.25      0.00
    6    9    4     -0.79      0.00
    7    9    4      0.02      0.00
    8    9    4     -4.15      0.00
    9    9    4      1.60      0.00
   10    9    4      2.86      0.00
   11    9    4     -1.80      0.00
   12    9    4     -1.15      0.00
   13    9    4      0.99      0.00
   14    9    4     -0.29      0.00
   -7   10    4      4.62      0.00
   -6   10    4     -8.17      0.00
   -5   10    4      6.68      0.00
   -4   10    4      1.28      0.00
   -3   10    4     -4.56      0.00
   -2   10    4      2.39      0.00
   -1   10    4      1.06      0.00
    0   10    4     -2.11      0.00
    1   10    4     -0.02      0.00
    2   10    4     -0.37      0.00
    3   10    4     -0.34      0.00
    4   10    4     -1.92      0.00
    5   10    4     -0.21      0.00
    6   10    4      1.07      0.00
    7   10    4     -2.30      0.00
    8   10    4      3.11      0.00
    9   10    4     -1.88      0.00
   10   10    4     -4.15      0.00
   11   10    4      3.05      0.00
   12   10    4     -1.77      0.00
   13   10    4      0.24      0.00
   14   10    4      2.83      0.00
   -6   11    4     12.76      0.00
   -5   11    4    -10.95      0.00
   -4   11    4      2.35      0.00
   -3   11    4      2.16      0.00
   -2   11    4      0.56      0.00
   -1   11    4     -2.44      0.00
    0   11    4      2.80      0.00
    1   11    4     -1.83      0.00
    2   11    4     -0.11      0.00
    3   11    4      3.01      0.00
    4   11    4     -2.86      0.00
    5   11    4      1.65      0.00
    6   11    4     -1.51      0.00
    7   11    4      1.14      0.00
    8   11    4     -3.84      0.00
    9   11    4      2.23      0.00
   10   11    4      0.51      0.00
   11   11    4     -0.66      0.00
   12   11    4      1.06      0.00
   13   11    4     -0.84      0.00
   -5   12    4      2.83      0.00
   -4   12    4      0.95      0.00
   -3   12    4      0.66      0.00
   -2   12    4     -4.39      0.00
   -1   12    4      4.04      0.00
    0   12    4      0.53      0.00
    1   12    4     -1.72      0.00
    2   12    4      0.15      0.00
    3   12    4     -0.91      0.00
    4   12    4      1.09      0.00
    5   12    4     -1.48      0.00
    6   12    4      0.53      0.00
    7   12    4     -0.44      0.00
    8   12    4      0.00      0.00
    9   12    4     -1.36      0.00
   10   12    4     -0.84      0.00
   11   12    4      1.29      0.00
   12   12    4     -3.27      0.00
   13   12    4     -1.69      0.00
   -4   13    4     -3.65      0.00
   -3   13    4     -1.69      0.00
   -2   13    4      5.71      0.00
   -1   13    4     -7.26      0.00
    0   13    4      3.44      0.00
    1   13    4     -1.93      0.00
    2   13    4      1.86      0.00
    3   13    4      0.61      0.00
    4   13    4      0.25      0.00
    5   13    4      1.28      0.00
    6   13    4     -3.22      0.00
    7   13    4      4.19      0.00
    8   13    4     -1.74      0.00
    9   13    4      0.80      0.00
   10   13    4     -2.25      0.00
   11   13    4      0.67      0.00
   12   13    4      1.57      0.00
   13   13    4      2.26      0.00
   -2   14    4     -1.56      0.00
   -1   14    4      0.85      0.00
    0   14    4      2.53      0.00
    1   14    4     -2.38      0.00
    2   14    4      1.20      0.00
    3   14    4     -1.32      0.00
    4   14    4      0.38      0.00
    5   14    4      1.92      0.00
    6   14    4      0.09      0.00
    7   14    4     -3.83      0.00
    8   14    4      3.61      0.00
    9   14    4     -1.14      0.00
   10   14    4      0.07      0.00
   11   14    4     -0.89      0.00
   12   14    4     -0.24      0.00
   -1   15    4     -1.68      0.00
    0   15    4     -4.96      0.00
    1   15    4      7.01      0.00
    2   15    4     -5.63      0.00
    3   15    4      0.12      0.00
    4   15    4      3.43      0.00
    5   15    4     -3.73      0.00
    6   15    4      4.98      0.00
    7   15    4      0.28      0.00
    8   15    4     -4.95      0.00
    9   15    4      3.44      0.00
   10   15    4      0.08      0.00
   11   15    4     -0.41      0.00
    1   16    4     -3.98      0.00
    2   16    4      4.90      0.00
    3   16    4      0.82      0.00
    4   16    4     -3.17      0.00
    5   16    4      1.56      0.00
    6   16    4     -2.60      0.00
    7   16    4      3.34      0.00
    8   16    4      2.17      0.00
    9   16    4     -4.90      0.00
   10   16    4      2.85      0.00
    5   17    4      0.81      0.00
    6   17    4     -1.91      0.00
    7   17    4      1.88      0.00
   -7  -16    5      2.62      0.00
   -6  -16    5     -3.87      0.00
   -5  -16    5      1.44      0.00
   -4  -16    5      1.29      0.00
   -3  -16    5     -4.69      0.00
  -10  -15    5      4.00      0.00
   -9  -15    5     -1.59      0.00
   -8  -15    5     -1.66      0.00
   -7  -15    5      0.80      0.00
   -6  -15    5      1.07      0.00
   -5  -15    5     -1.82      0.00
   -4  -15    5     -2.10      0.00
   -3  -15    5      4.57      0.00
   -2  -15    5     -4.92      0.00
   -1  -15    5      5.09      0.00
    0  -15    5     -6.50      0.00
  -11  -14    5      5.95      0.00
  -10  -14    5     -7.32      0.00
   -9  -14    5      5.51      0.00
   -8  -14    5     -2.15      0.00
   -7  -14    5      1.57      0.00
   -6  -14    5     -3.15      0.00
   -5  -14    5      3.86      0.00
   -4  -14    5     -0.29      0.00
   -3  -14    5     -2.32      0.00
   -2  -14    5      0.39      0.00
   -1  -14    5     -0.28      0.00
    0  -14    5      4.82      0.00
    1  -14    5     -5.19      0.00
    2  -14    5      8.21      0.00
  -12  -13    5     -2.19      0.00
  -11  -13    5     -1.01      0.00
  -10  -13    5      2.41      0.00
   -9  -13    5     -3.65      0.00
   -8  -13    5      0.47      0.00
   -6  -13    5      0.20      0.00
   -5  -13    5     -5.48      0.00
   -4  -13    5      6.15      0.00
   -3  -13    5     -4.39      0.00
   -2  -13    5      2.33      0.00
   -1  -13    5      1.94      0.00
    0  -13    5     -5.63      0.00
    1  -13    5      6.68      0.00
    2  -13    5     -3.14      0.00
    3  -13    5      3.07      0.00
  -12  -12    5      0.91      0.00
  -11  -12    5     -2.33      0.00
  -10  -12    5      2.61      0.00
   -9  -12    5     -2.52      0.00
   -8  -12    5      1.37      0.00
   -7  -12    5     -1.00      0.00
   -6  -12    5      2.39      0.00
   -5  -12    5      0.17      0.00
   -4  -12    5     -3.06      0.00
   -3  -12    5      4.03      0.00
   -2  -12    5     -3.18      0.00
   -1  -12    5      1.82      0.00
    0  -12    5      2.48      0.00
    1  -12    5     -3.32      0.00
    2  -12    5      3.31      0.00
    3  -12    5     -0.77      0.00
    4  -12    5      4.71      0.00
  -13  -11    5      3.41      0.00
  -12  -11    5     -0.35      0.00
  -11  -11    5     -0.10      0.00
  -10  -11    5     -1.27      0.00
   -9  -11    5     -0.02      0.00
   -8  -11    5     -1.49      0.00
   -7  -11    5      0.39      0.00
   -6  -11    5     -2.91      0.00
   -5  -11    5     -0.41      0.00
   -4  -11    5     -0.32      0.00
   -3  -11    5     -2.04      0.00
   -2  -11    5      0.88      0.00
   -1  -11    5      0.59      0.00
    0  -11    5     -1.41      0.00
    1  -11    5      4.19      0.00
    2  -11    5     -1.34      0.00
    3  -11    5      1.31      0.00
    4  -11    5     -0.91      0.00
    5  -11    5      2.92      0.00
    6  -11    5      1.84      0.00
  -13  -10    5     -4.06      0.00
  -12  -10    5      3.57      0.00
  -11  -10    5     -2.08      0.00
  -10  -10    5      0.50      0.00
   -9  -10    5     -0.89      0.00
   -8  -10    5      1.38      0.00
   -7  -10    5     -3.76      0.00
   -6  -10    5      1.39      0.00
   -5  -10    5      2.45      0.00
   -4  -10    5     -0.90      0.00
   -3  -10    5      1.26      0.00
   -2  -10    5     -0.59      0.00
   -1  -10    5     -0.19      0.00
    0  -10    5      1.00      0.00
    1  -10    5      1.02      0.00
    2  -10    5     -0.54      0.00
    3  -10    5      4.08      0.00
    4  -10    5     -3.35      0.00
    5  -10    5      2.72      0.00
    6  -10    5     -0.17      0.00
    7  -10    5      1.03      0.00
  -13   -9    5      2.13      0.00
  -12   -9    5     -2.31      0.00
  -11   -9    5      2.36      0.00
  -10   -9    5     -1.06      0.00
   -9   -9    5      0.94      0.00
   -8   -9    5     -3.15      0.00
   -7   -9    5      4.09      0.00
   -6   -9    5     -4.48      0.00
   -5   -9    5     -0.16      0.00
   -4   -9    5     -1.10      0.00
   -3   -9    5     -0.10      0.00
   -2   -9    5     -1.69      0.00
   -1   -9    5      2.31      0.00
    0   -9    5     -2.74      0.00
    1   -9    5     -0.02      0.00
    2   -9    5      0.68      0.00
    3   -9    5      2.43      0.00
    4   -9    5     -0.99      0.00
    5   -9    5      1.48      0.00
    6   -9    5      1.62      0.00
    7   -9    5      0.39      0.00
  -13   -8    5      2.74      0.00
  -12   -8    5     -0.59      0.00
  -11   -8    5     -2.26      0.00
  -10   -8    5      1.59      0.00
   -9   -8    5      0.35      0.00
   -8   -8    5     -0.93      0.00
   -7   -8    5     -0.93      0.00
   -6   -8    5      1.88      0.00
   -5   -8    5     -1.72      0.00
   -4   -8    5     -0.63      0.00
   -3   -8    5      4.25      0.00
   -2   -8    5     -3.13      0.00
   -1   -8    5      1.68      0.00
    0   -8    5      1.20      0.00
    1   -8    5     -0.39      0.00
    2   -8    5     -0.16      0.00
    3   -8    5     -0.72      0.00
    4   -8    5      2.93      0.00
    5   -8    5     -2.17      0.00
    6   -8    5      0.53      0.00
    7   -8    5      0.41      0.00
    8   -8    5     -2.44      0.00
  -14   -7    5     -3.45      0.00
  -13   -7    5      1.56      0.00
  -12   -7    5     -0.44      0.00
  -11   -7    5      3.78      0.00
  -10   -7    5     -2.76      0.00
   -9   -7    5      0.13      0.00
   -8   -7    5     -0.28      0.00
   -7   -7    5      3.08      0.00
   -6   -7    5     -3.63      0.00
   -5   -7    5      5.07      0.00
   -4   -7    5     -3.37      0.00
   -3   -7    5      1.91      0.00
   -2   -7    5     -0.50      0.00
   -1   -7    5     -1.05      0.00
    0   -7    5      0.58      0.00
    1   -7    5      0.62      0.00
    2   -7    5     -0.43      0.00
    3   -7    5     -0.61      0.00
    4   -7    5      1.55      0.00
    5   -7    5     -1.59      0.00
    6   -7    5      2.12      0.00
    7   -7    5      1.07      0.00
    8   -7    5      1.67      0.00
    9   -7    5      0.68      0.00
  -14   -6    5      0.71      0.00
  -13   -6    5      1.07      0.00
  -12   -6    5     -2.46      0.00
  -11   -6    5      1.81      0.00
  -10   -6    5     -0.20      0.00
   -9   -6    5      3.14      0.00
   -8   -6    5     -2.19      0.00
   -7   -6    5     -0.57      0.00
   -6   -6    5     -1.03      0.00
   -5   -6    5      1.92      0.00
   -4   -6    5     -1.30      0.00
   -3   -6    5      1.92      0.00
   -2   -6    5     -0.17      0.00
   -1   -6    5      2.36      0.00
    0   -6    5     -2.22      0.00
    1   -6    5     -0.83      0.00
    2   -6    5     -0.55      0.00
    3   -6    5      1.20      0.00
    4   -6    5     -1.73      0.00
    5   -6    5      1.26      0.00
    6   -6    5     -2.61      0.00
    7   -6    5     -0.22      0.00
    8   -6    5     -0.79      0.00
    9   -6    5     -2.16      0.00
   10   -6    5     -1.41      0.00
  -14   -5    5     -0.77      0.00
  -13   -5    5      0.70      0.00
  -12   -5    5      0.47      0.00
  -11   -5    5      0.32      0.00
  -10   -5    5     -1.15      0.00
   -9   -5    5      1.42      0.00
   -8   -5    5     -0.02      0.00
   -7   -5    5      3.97      0.00
   -6   -5    5     -0.02      0.00
   -5   -5    5      1.21      0.00
   -4   -5    5     -0.61      0.00
   -3   -5    5      2.38      0.00
   -2   -5    5     -2.57      0.00
   -1   -5    5      5.25      0.00
    0   -5    5      0.08      0.00
    1   -5    5      2.07      0.00
    2   -5    5     -1.78      0.00
    3   -5    5     -0.66      0.00
    4   -5    5      0.70      0.00
    5   -5    5      0.95      0.00
    6   -5    5      0.95      0.00
    7   -5    5     -1.27      0.00
    8   -5    5      1.38      0.00
    9   -5    5      4.83      0.00
   10   -5    5     -1.00      0.00
  -13   -4    5      1.21      0.00
  -12   -4    5     -1.05      0.00
  -11   -4    5     -0.18      0.00
  -10   -4    5      0.64      0.00
   -9   -4    5      0.95      0.00
   -8   -4    5     -1.58      0.00
   -7   -4    5     -0.11      0.00
   -6   -4    5      0.16      0.00
   -5   -4    5      1.51      0.00
   -4   -4    5     -1.16      0.00
   -3   -4    5      4.97      0.00
   -2   -4    5      1.81      0.00
   -1   -4    5     -5.23      0.00
    0   -4    5      1.72      0.00
    1   -4    5      3.18      0.00
    2   -4    5     -1.28      0.00
    3   -4    5     -1.53      0.00
    4   -4    5     -1.12      0.00
    5   -4    5     -1.82      0.00
    6   -4    5      0.68      0.00
    7   -4    5     -0.65      0.00
    8   -4    5     -1.59      0.00
    9   -4    5     -3.03      0.00
   10   -4    5     -0.12      0.00
   11   -4    5     -0.39      0.00
  -13   -3    5      1.77      0.00
  -12   -3    5     -0.06      0.00
  -11   -3    5      0.08      0.00
  -10   -3    5      1.64      0.00
   -9   -3    5     -1.36      0.00
   -8   -3    5      3.24      0.00
   -7   -3    5      0.03      0.00
   -6   -3    5      1.37      0.00
   -5   -3    5      2.08      0.00
   -4   -3    5     -1.34      0.00
   -3   -3    5      1.81      0.00
   -2   -3    5     -5.30      0.00
   -1   -3    5      6.95      0.00
    0   -3    5     -2.09      0.00
    1   -3    5      0.15      0.00
    2   -3    5      0.10      0.00
    3   -3    5      2.74      0.00
    4   -3    5     -0.44      0.00
    5   -3    5      0.01      0.00
    6   -3    5     -1.59      0.00
    7   -3    5      3.44      0.00
    8   -3    5     -0.54      0.00
    9   -3    5      1.52      0.00
   10   -3    5     -1.44      0.00
   11   -3    5      6.28      0.00
  -13   -2    5     -2.70      0.00
  -12   -2    5      1.70      0.00
  -11   -2    5     -2.53      0.00
  -10   -2    5      1.49      0.00
   -9   -2    5     -1.61      0.00
   -8   -2    5      0.97      0.00
   -7   -2    5      0.44      0.00
   -6   -2    5     -0.88      0.00
   -5   -2    5      0.23      0.00
   -4   -2    5      1.85      0.00
   -3   -2    5      3.05      0.00
   -2   -2    5      1.22      0.00
   -1   -2    5      6.22      0.00
    0   -2    5     -4.39      0.00
    1   -2    5      3.21      0.00
    2   -2    5      2.58      0.00
    3   -2    5     -2.91      0.00
    4   -2    5      0.84      0.00
    5   -2    5      0.41      0.00
    6   -2    5     -2.58      0.00
    7   -2    5     -0.28      0.00
    8   -2    5      1.39      0.00
    9   -2    5     -1.65      0.00
   10   -2    5      0.79      0.00
   11   -2    5     -3.16      0.00
   12   -2    5      0.06      0.00
  -13   -1    5      0.56      0.00
  -12   -1    5     -1.23      0.00
  -11   -1    5      0.89      0.00
  -10   -1    5      0.76      0.00
   -9   -1    5      0.16      0.00
   -8   -1    5      1.21      0.00
   -7   -1    5     -0.46      0.00
   -6   -1    5      4.34      0.00
   -5   -1    5     -2.41      0.00
   -4   -1    5      0.55      0.00
   -3   -1    5     -3.78      0.00
   -2   -1    5      3.37      0.00
   -1   -1    5     -6.18      0.00
    0   -1    5     -1.33      0.00
    1   -1    5     -3.55      0.00
    2   -1    5      2.94      0.00
    3   -1    5     -1.33      0.00
    4   -1    5     -0.15      0.00
    5   -1    5      2.81      0.00
    6   -1    5     -1.57      0.00
    7   -1    5     -1.27      0.00
    8   -1    5      1.13      0.00
    9   -1    5      3.09      0.00
   10   -1    5     -3.59      0.00
   11   -1    5      4.47      0.00
   12   -1    5     -0.75      0.00
  -13    0    5      0.17      0.00
  -12    0    5      2.24      0.00
  -11    0    5     -2.72      0.00
  -10    0    5      0.90      0.00
   -9    0    5     -0.56      0.00
   -8    0    5      0.59      0.00
   -7    0    5     -0.26      0.00
   -6    0    5      1.73      0.00
   -5    0    5      0.30      0.00
   -4    0    5      2.19      0.00
   -3    0    5      1.99      0.00
   -2    0    5     -9.06      0.00
   -1    0    5     13.89      0.00
    0    0    5      5.64      0.00
    1    0    5      0.69      0.00
    2    0    5     -5.36      0.00
    3    0    5      4.69      0.00
    4    0    5     -4.62      0.00
    5    0    5      5.58      0.00
    6    0    5      0.08      0.00
    7    0    5     -1.79      0.00
    8    0    5      0.51      0.00
    9    0    5     -1.63      0.00
   10    0    5      2.12      0.00
   12    0    5     -1.52      0.00
   13    0    5      1.50      0.00
  -12    1    5      3.04      0.00
  -11    1    5     -1.47      0.00
  -10    1    5      0.47      0.00
   -9    1    5      0.51      0.00
   -8    1    5      0.29      0.00
   -7    1    5     -1.86      0.00
   -6    1    5      2.63      0.00
   -5    1    5     -1.85      0.00
   -4    1    5      5.93      0.00
   -3    1    5     -4.35      0.00
   -2    1    5      2.33      0.00
   -1    1    5     -4.80      0.00
    0    1    5    -18.22      0.00
    1    1    5     11.50      0.00
    2    1    5     -1.22      0.00
    3    1    5     -3.23      0.00
    4    1    5     -0.54      0.00
    5    1    5     -3.86      0.00
    6    1    5      1.52      0.00
    7    1    5      2.52      0.00
    8    1    5      0.89      0.00
    9    1    5     -0.88      0.00
   10    1    5      0.66      0.00
   11    1    5      0.01      0.00
   12    1    5     -1.08      0.00
   13    1    5      2.42      0.00
  -12    2    5     -0.49      0.00
  -11    2    5      0.90      0.00
  -10    2    5      1.48      0.00
   -9    2    5      0.26      0.00
   -8    2    5      2.68      0.00
   -7    2    5      0.60      0.00
   -6    2    5      1.01      0.00
   -5    2    5     -3.00      0.00
   -4    2    5      2.45      0.00
   -3    2    5      0.14      0.00
   -2    2    5      4.10      0.00
   -1    2    5     -5.12      0.00
    0    2    5     15.28      0.00
    1    2    5    -17.20      0.00
    2    2    5     10.30      0.00
    3    2    5      2.16      0.00
    4    2    5     -3.66      0.00
    5    2    5      4.45      0.00
    6    2    5     -5.07      0.00
    7    2    5      1.14      0.00
    8    2    5     -1.14      0.00
    9    2    5     -0.04      0.00
   10    2    5      2.16      0.00
   11    2    5      0.84      0.00
   12    2    5     -2.55      0.00
   13    2    5      3.01      0.00
  -11    3    5     -2.33      0.00
  -10    3    5     -1.18      0.00
   -9    3    5      0.17      0.00
   -8    3    5     -0.50      0.00
   -7    3    5      1.18      0.00
   -6    3    5      0.81      0.00
   -5    3    5      0.60      0.00
   -4    3    5      1.56      0.00
   -3    3    5     -2.86      0.00
   -2    3    5      0.79      0.00
   -1    3    5      2.55      0.00
    0    3    5     -0.83      0.00
    1    3    5     -6.23      0.00
    2    3    5     -1.28      0.00
    3    3    5     -4.69      0.00
    4    3    5      2.60      0.00
    5    3    5      1.57      0.00
    6    3    5     -0.25      0.00
    7    3    5     -1.15      0.00
    8    3    5      2.33      0.00
    9    3    5     -0.87      0.00
   10    3    5      0.33      0.00
   11    3    5     -0.42      0.00
   12    3    5      2.55      0.00
   13    3    5     -0.23      0.00
   14    3    5     -1.09      0.00
  -11    4    5     -2.97      0.00
  -10    4    5      8.14      0.00
   -9    4    5     -4.57      0.00
   -8    4    5      1.03      0.00
   -7    4    5      3.15      0.00
   -6    4    5      3.00      0.00
   -5    4    5     -2.15      0.00
   -4    4    5      4.61      0.00
   -3    4    5     -0.24      0.00
   -2    4    5     -1.36      0.00
   -1    4    5     -6.17      0.00
    0    4    5      6.12      0.00
    1    4    5     -0.40      0.00
    2    4    5      1.31      0.00
    3    4    5     -2.38      0.00
    4    4    5      1.39      0.00
    5    4    5     -6.10      0.00
    6    4    5      3.92      0.00
    7    4    5     -0.05      0.00
    8    4    5     -3.39      0.00
    9    4    5      1.38      0.00
   10    4    5     -2.37      0.00
   11    4    5      1.62      0.00
   12    4    5     -0.63      0.00
   13    4    5     -0.84      0.00
   14    4    5      1.59      0.00
  -10    5    5      3.32      0.00
   -9    5    5     -0.99      0.00
   -8    5    5      0.40      0.00
   -7    5    5     -3.14      0.00
   -6    5    5      1.63      0.00
   -5    5    5     -0.46      0.00
   -4    5    5     -0.97      0.00
   -3    5    5      4.43      0.00
   -2    5    5      1.25      0.00
   -1    5    5      0.30      0.00
    0    5    5      3.54      0.00
    1    5    5     -7.15      0.00
    2    5    5      4.81      0.00
    3    5    5     -1.28      0.00
    4    5    5     -0.51      0.00
    5    5    5      2.29      0.00
    6    5    5     -3.20      0.00
    7    5    5      1.48      0.00
    8    5    5      1.87      0.00
    9    5    5      0.72      0.00
   10    5    5     -1.87      0.00
   11    5    5      2.28      0.00
   12    5    5     -1.42      0.00
   13    5    5      0.30      0.00
   14    5    5      2.20      0.00
  -10    6    5      0.61      0.00
   -9    6    5      1.85      0.00
   -8    6    5      0.63      0.00
   -7    6    5     -2.06      0.00
   -6    6    5      5.70      0.00
   -5    6    5     -1.58      0.00
   -4    6    5      3.87      0.00
   -3    6    5     -1.47      0.00
   -2    6    5      1.31      0.00
   -1    6    5     -2.02      0.00
    0    6    5     -1.73      0.00
    1    6    5      4.76      0.00
    2    6    5     -3.91      0.00
    3    6    5     -0.63      0.00
    4    6    5      0.68      0.00
    5    6    5     -0.79      0.00
    6    6    5      3.08      0.00
    7    6    5     -5.07      0.00
    8    6    5      1.79      0.00
    9    6    5     -1.35      0.00
   10    6    5      1.13      0.00
   11    6    5     -2.55      0.00
   12    6    5      0.86      0.00
   13    6    5      1.40      0.00
   14    6    5     -3.44      0.00
   -9    7    5      2.62      0.00
   -8    7    5      1.30      0.00
   -7    7    5     -0.56      0.00
   -6    7    5     -2.64      0.00
   -5    7    5      0.90      0.00
   -4    7    5     -3.79      0.00
   -3    7    5      5.01      0.00
   -2    7    5      0.33      0.00
   -1    7    5      1.26      0.00
    0    7    5      3.38      0.00
    1    7    5     -3.69      0.00
    2    7    5      4.78      0.00
    3    7    5     -1.88      0.00
    4    7    5      3.07      0.00
    5    7    5     -1.05      0.00
    6    7    5     -0.12      0.00
    7    7    5      1.33      0.00
    8    7    5     -0.12      0.00
    9    7    5     -0.84      0.00
   10    7    5     -0.32      0.00
   11    7    5      1.91      0.00
   12    7    5     -0.63      0.00
   13    7    5     -1.66      0.00
   14    7    5      3.00      0.00
   -8    8    5     -0.44      0.00
   -7    8    5      3.86      0.00
   -6    8    5     -2.51      0.00
   -5    8    5      2.51      0.00
   -4    8    5      0.09      0.00
   -3    8    5     -1.59      0.00
   -2    8    5      3.22      0.00
   -1    8    5     -1.43      0.00
    0    8    5      0.33      0.00
    1    8    5      1.28      0.00
    2    8    5     -1.53      0.00
    3    8    5      2.62      0.00
    4    8    5     -3.63      0.00
    5    8    5      2.67      0.00
    6    8    5      0.91      0.00
    7    8    5      0.67      0.00
    8    8    5      0.83      0.00
    9    8    5     -1.30      0.00
   10    8    5      1.75      0.00
   11    8    5     -2.08      0.00
   12    8    5     -0.08      0.00
   13    8    5      0.18      0.00
   14    8    5      0.76      0.00
   -8    9    5     -1.25      0.00
   -7    9    5     -1.08      0.00
   -6    9    5     -0.64      0.00
   -5    9    5      2.87      0.00
   -4    9    5     -2.80      0.00
   -3    9    5     -0.95      0.00
   -2    9    5     -0.06      0.00
   -1    9    5      2.91      0.00
    0    9    5     -1.42      0.00
    1    9    5      2.24      0.00
    2    9    5      1.73      0.00
    3    9    5     -2.10      0.00
    4    9    5      4.14      0.00
    5    9    5     -1.46      0.00
    6    9    5     -0.10      0.00
    7    9    5     -0.16      0.00
    8    9    5      2.90      0.00
    9    9    5     -1.23      0.00
   10    9    5     -2.11      0.00
   11    9    5      2.62      0.00
   12    9    5     -0.60      0.00
   13    9    5      0.84      0.00
   14    9    5     -2.06      0.00
   -7   10    5     -0.05      0.00
   -6   10    5      0.56      0.00
   -5   10    5     -3.38      0.00
   -4   10    5      1.00      0.00
   -3   10    5      3.98      0.00
   -2   10    5     -4.73      0.00
   -1   10    5      1.93      0.00
    0   10    5      0.13      0.00
    1   10    5     -0.71      0.00
    2   10    5      0.74      0.00
    3   10    5     -0.64      0.00
    4   10    5      1.34      0.00
    5   10    5      1.29      0.00
    6   10    5     -0.91      0.00
    7   10    5      1.63      0.00
    8   10    5     -1.06      0.00
    9   10    5      0.17      0.00
   10   10    5      4.60      0.00
   11   10    5     -4.06      0.00
   12   10    5      1.48      0.00
   13   10    5     -1.40      0.00
   14   10    5      0.61      0.00
   -6   11    5    -10.69      0.00
   -5   11    5      9.98      0.00
   -4   11    5     -2.53      0.00
   -3   11    5     -4.57      0.00
   -2   11    5      2.81      0.00
   -1   11    5      1.66      0.00
    0   11    5     -3.81      0.00
    1   11    5      3.06      0.00
    2   11    5      0.07      0.00
    3   11    5     -0.25      0.00
    4   11    5     -0.22      0.00
    5   11    5      1.41      0.00
    6   11    5      0.54      0.00
    7   11    5     -0.59      0.00
    8   11    5      2.77      0.00
    9   11    5      0.51      0.00
   10   11    5     -3.10      0.00
   11   11    5      2.99      0.00
   12   11    5     -1.79      0.00
   13   11    5      4.19      0.00
   -5   12    5    -12.23      0.00
   -4   12    5      4.46      0.00
   -3   12    5      0.88      0.00
   -2   12    5      0.09      0.00
   -1   12    5     -1.07      0.00
    0   12    5     -0.41      0.00
    1   12    5      0.75      0.00
    2   12    5     -0.73      0.00
    3   12    5      0.66      0.00
    4   12    5     -1.89      0.00
    5   12    5      0.70      0.00
    6   12    5      0.44      0.00
    7   12    5      0.02      0.00
    8   12    5     -1.76      0.00
    9   12    5      1.15      0.00
   10   12    5      1.55      0.00
   11   12    5     -1.92      0.00
   12   12    5      1.90      0.00
   13   12    5     -1.72      0.00
   -4   13    5     -2.37      0.00
   -3   13    5      1.65      0.00
   -2   13    5     -7.55      0.00
   -1   13    5      9.23      0.00
    0   13    5     -6.17      0.00
    1   13    5      3.15      0.00
    2   13    5     -2.72      0.00
    3   13    5      0.85      0.00
    4   13    5      0.28      0.00
    5   13    5     -1.19      0.00
    6   13    5      2.58      0.00
    7   13    5     -1.17      0.00
    8   13    5      0.86      0.00
    9   13    5     -0.11      0.00
   10   13    5      1.67      0.00
   11   13    5      2.18      0.00
   12   13    5     -4.55      0.00
   -2   14    5      3.77      0.00
   -1   14    5     -5.12      0.00
    0   14    5      4.09      0.00
    1   14    5     -2.63      0.00
    2   14    5      1.77      0.00
    3   14    5      1.47      0.00
    4   14    5     -2.88      0.00
    5   14    5      0.24      0.00
    6   14    5     -4.47      0.00
    7   14    5      5.98      0.00
    8   14    5     -3.25      0.00
    9   14    5      0.78      0.00
   10   14    5     -2.21      0.00
   11   14    5      1.19      0.00
   12   14    5      2.48      0.00
   -1   15    5      1.09      0.00
    0   15    5      1.44      0.00
    1   15    5     -3.18      0.00
    2   15    5      0.40      0.00
    3   15    5     -0.68      0.00
    4   15    5     -0.19      0.00
    5   15    5      1.99      0.00
    6   15    5     -1.28      0.00
    7   15    5     -3.70      0.00
    8   15    5      4.13      0.00
    9   15    5     -0.13      0.00
   10   15    5     -0.88      0.00
   11   15    5     -0.45      0.00
    1   16    5      7.59      0.00
    2   16    5     -5.06      0.00
    3   16    5     -0.04      0.00
    4   16    5      2.09      0.00
    5   16    5     -2.92      0.00
    6   16    5      3.91      0.00
    7   16    5     -3.69      0.00
    8   16    5     -1.41      0.00
    9   16    5      2.35      0.00
    5   17    5     -0.83      0.00
    6   17    5      0.04      0.00
   -7  -16    6     -4.14      0.00
   -6  -16    6      3.10      0.00
   -5  -16    6     -1.40      0.00
   -4  -16    6      0.50      0.00
   -9  -15    6     -2.34      0.00
   -8  -15    6      1.23      0.00
   -7  -15    6      1.38      0.00
   -6  -15    6     -2.50      0.00
   -5  -15    6      1.83      0.00
   -4  -15    6      4.42      0.00
   -3  -15    6     -8.80      0.00
   -2  -15    6      8.60      0.00
   -1  -15    6     -5.73      0.00
  -11  -14    6     -7.81      0.00
  -10  -14    6      9.16      0.00
   -9  -14    6     -3.88      0.00
   -8  -14    6      3.09      0.00
   -7  -14    6     -1.97      0.00
   -6  -14    6      4.34      0.00
   -5  -14    6     -2.55      0.00
   -4  -14    6     -4.01      0.00
   -3  -14    6      7.77      0.00
   -2  -14    6     -4.13      0.00
   -1  -14    6      1.40      0.00
    0  -14    6     -1.79      0.00
    1  -14    6      5.42      0.00
  -11  -13    6      4.54      0.00
  -10  -13    6     -7.96      0.00
   -9  -13    6      4.70      0.00
   -8  -13    6     -3.41      0.00
   -7  -13    6      1.13      0.00
   -6  -13    6     -4.13      0.00
   -5  -13    6      6.26      0.00
   -4  -13    6     -2.45      0.00
   -3  -13    6     -0.71      0.00
   -2  -13    6      0.79      0.00
   -1  -13    6     -1.55      0.00
    0  -13    6      3.46      0.00
    1  -13    6     -7.86      0.00
    2  -13    6      6.80      0.00
    3  -13    6     -6.55      0.00
  -12  -12    6     -0.98      0.00
  -11  -12    6      0.75      0.00
  -10  -12    6      1.17      0.00
   -9  -12    6      0.41      0.00
   -8  -12    6      2.37      0.00
   -7  -12    6     -0.04      0.00
   -6  -12    6      2.32      0.00
   -5  -12    6     -3.29      0.00
   -4  -12    6      5.51      0.00
   -3  -12    6     -3.64      0.00
   -2  -12    6      2.36      0.00
   -1  -12    6     -0.97      0.00
    0  -12    6     -2.94      0.00
    1  -12    6      3.98      0.00
    2  -12    6     -3.90      0.00
    3  -12    6      1.83      0.00
    4  -12    6     -2.82      0.00
  -13  -11    6     -0.23      0.00
  -12  -11    6     -1.46      0.00
  -11  -11    6      1.23      0.00
  -10  -11    6      1.61      0.00
   -9  -11    6     -1.45      0.00
   -8  -11    6     -0.95      0.00
   -7  -11    6      0.49      0.00
   -6  -11    6      0.18      0.00
   -5  -11    6     -1.49      0.00
   -4  -11    6     -1.18      0.00
   -3  -11    6      2.63      0.00
   -2  -11    6     -2.78      0.00
   -1  -11    6      1.35      0.00
    0  -11    6      0.85      0.00
    1  -11    6     -5.78      0.00
    2  -11    6      3.25      0.00
    3  -11    6     -4.30      0.00
    4  -11    6      3.87      0.00
    5  -11    6     -2.35      0.00
  -13  -10    6      4.47      0.00
  -12  -10    6     -1.89      0.00
  -11  -10    6     -0.59      0.00
  -10  -10    6     -0.32      0.00
   -9  -10    6      0.95      0.00
   -8  -10    6      1.91      0.00
   -7  -10    6     -0.05      0.00
   -6  -10    6      3.80      0.00
   -5  -10    6     -1.99      0.00
   -4  -10    6      3.30      0.00
   -3  -10    6     -2.00      0.00
   -2  -10    6      3.81      0.00
   -1  -10    6     -2.50      0.00
    0  -10    6      1.04      0.00
    1  -10    6     -0.09      0.00
    2  -10    6      0.25      0.00
    3  -10    6     -4.62      0.00
    4  -10    6      1.59      0.00
    5  -10    6     -1.81      0.00
    6  -10    6     -0.21      0.00
  -13   -9    6     -3.48      0.00
  -12   -9    6      1.06      0.00
  -11   -9    6      1.02      0.00
  -10   -9    6      0.89      0.00
   -9   -9    6     -1.83      0.00
   -8   -9    6      3.44      0.00
   -7   -9    6     -3.27      0.00
   -6   -9    6      0.94      0.00
   -5   -9    6      0.59      0.00
   -4   -9    6     -0.55      0.00
   -3   -9    6     -1.64      0.00
   -2   -9    6     -0.65      0.00
   -1   -9    6      0.37      0.00
    0   -9    6     -1.24      0.00
    1   -9    6      0.38      0.00
    2   -9    6     -1.66      0.00
    3   -9    6      0.39      0.00
    4   -9    6     -3.28      0.00
    5   -9    6      2.32      0.00
    6   -9    6     -1.81      0.00
    7   -9    6      0.54      0.00
  -13   -8    6     -1.12      0.00
  -12   -8    6      1.42      0.00
  -11   -8    6     -0.23      0.00
  -10   -8    6     -0.21      0.00
   -9   -8    6      0.81      0.00
   -8   -8    6     -0.90      0.00
   -7   -8    6      0.73      0.00
   -6   -8    6      1.74      0.00
   -5   -8    6     -2.22      0.00
   -4   -8    6      5.49      0.00
   -3   -8    6     -3.46      0.00
   -2   -8    6      2.56      0.00
   -1   -8    6      0.71      0.00
    0   -8    6     -0.58      0.00
    1   -8    6     -0.83      0.00
    2   -8    6      1.27      0.00
    3   -8    6      1.41      0.00
    4   -8    6     -4.04      0.00
    5   -8    6      0.75      0.00
    6   -8    6     -0.18      0.00
    7   -8    6     -4.59      0.00
    8   -8    6      2.30      0.00
  -13   -7    6      0.35      0.00
  -12   -7    6     -2.25      0.00
  -11   -7    6     -3.05      0.00
  -10   -7    6      2.69      0.00
   -9   -7    6     -0.39      0.00
   -8   -7    6      2.01      0.00
   -7   -7    6     -1.93      0.00
   -6   -7    6      3.97      0.00
   -5   -7    6     -4.59      0.00
   -4   -7    6      0.98      0.00
   -3   -7    6      0.21      0.00
   -2   -7    6     -1.66      0.00
   -1   -7    6      0.89      0.00
    0   -7    6     -0.53      0.00
    1   -7    6      0.54      0.00
    2   -7    6     -1.18      0.00
    3   -7    6     -0.65      0.00
    4   -7    6      0.90      0.00
    5   -7    6     -0.42      0.00
    6   -7    6     -0.17      0.00
    7   -7    6      2.50      0.00
    8   -7    6     -1.33      0.00
    9   -7    6      2.83      0.00
  -13   -6    6     -0.50      0.00
  -12   -6    6      3.83      0.00
  -11   -6    6     -0.78      0.00
  -10   -6    6     -0.54      0.00
   -9   -6    6     -3.23      0.00
   -8   -6    6      2.22      0.00
   -7   -6    6     -0.92      0.00
   -6   -6    6     -1.28      0.00
   -5   -6    6      0.36      0.00
   -4   -6    6      0.72      0.00
   -3   -6    6     -1.97      0.00
   -2   -6    6      0.67      0.00
   -1   -6    6     -2.73      0.00
    0   -6    6      1.42      0.00
    1   -6    6     -0.26      0.00
    2   -6    6      0.81      0.00
    3   -6    6     -0.73      0.00
    4   -6    6      0.65      0.00
    5   -6    6     -2.10      0.00
    6   -6    6      0.77      0.00
    7   -6    6     -2.24      0.00
    8   -6    6     -0.77      0.00
    9   -6    6     -2.36      0.00
   10   -6    6      0.19      0.00
  -13   -5    6      0.20      0.00
  -12   -5    6     -3.47      0.00
  -11   -5    6      1.04      0.00
  -10   -5    6      1.54      0.00
   -9   -5    6     -1.47      0.00
   -8   -5    6      0.56      0.00
   -7   -5    6     -1.50      0.00
   -6   -5    6      2.06      0.00
   -5   -5    6     -1.48      0.00
   -4   -5    6      0.75      0.00
   -3   -5    6     -1.44      0.00
   -2   -5    6      0.47      0.00
   -1   -5    6     -1.11      0.00
    0   -5    6      0.11      0.00
    1   -5    6     -1.23      0.00
    2   -5    6      1.56      0.00
    3   -5    6      2.27      0.00
    4   -5    6     -0.36      0.00
    5   -5    6      1.01      0.00
    6   -5    6     -1.74      0.00
    7   -5    6      4.26      0.00
    8   -5    6      0.81      0.00
    9   -5    6     -1.43      0.00
   10   -5    6      3.71      0.00
  -13   -4    6      1.70      0.00
  -12   -4    6     -2.12      0.00
  -11   -4    6      1.77      0.00
  -10   -4    6     -2.92      0.00
   -9   -4    6      0.70      0.00
   -8   -4    6     -0.90      0.00
   -7   -4    6      0.39      0.00
   -6   -4    6     -2.20      0.00
   -5   -4    6     -2.25      0.00
   -4   -4    6      1.16      0.00
   -3   -4    6     -4.33      0.00
   -2   -4    6     -0.53      0.00
   -1   -4    6      3.30      0.00
    0   -4    6     -2.66      0.00
    1   -4    6     -2.22      0.00
    2   -4    6     -0.72      0.00
    3   -4    6     -1.33      0.00
    4   -4    6      1.02      0.00
    5   -4    6      0.58      0.00
    6   -4    6     -0.22      0.00
    7   -4    6     -3.11      0.00
    8   -4    6      0.18      0.00
    9   -4    6      0.44      0.00
   10   -4    6     -2.74      0.00
   11   -4    6     -4.04      0.00
  -13   -3    6      0.77      0.00
  -12   -3    6     -0.84      0.00
  -11   -3    6      1.50      0.00
  -10   -3    6     -1.37      0.00
   -9   -3    6      2.40      0.00
   -8   -3    6     -3.31      0.00
   -7   -3    6      1.43      0.00
   -6   -3    6     -0.62      0.00
   -5   -3    6      0.01      0.00
   -4   -3    6     -1.09      0.00
   -3   -3    6     -0.35      0.00
   -2   -3    6     -0.18      0.00
   -1   -3    6     -7.41      0.00
    0   -3    6      1.36      0.00
    1   -3    6      2.46      0.00
    2   -3    6     -0.61      0.00
    3   -3    6     -0.11      0.00
    4   -3    6      1.69      0.00
    5   -3    6     -0.78      0.00
    6   -3    6      3.29      0.00
    7   -3    6     -1.16      0.00
    8   -3    6      0.68      0.00
    9   -3    6      0.71      0.00
   10   -3    6      4.15      0.00
   11   -3    6     -2.52      0.00
  -13   -2    6      1.27      0.00
  -12   -2    6     -0.85      0.00
  -11   -2    6      0.24      0.00
  -10   -2    6     -1.41      0.00
   -9   -2    6     -0.26      0.00
   -8   -2    6     -0.69      0.00
   -7   -2    6     -0.85      0.00
   -6   -2    6     -2.20      0.00
   -5   -2    6      1.06      0.00
   -4   -2    6     -1.52      0.00
   -3   -2    6     -1.58      0.00
   -2   -2    6     -0.02      0.00
   -1   -2    6      2.19      0.00
    0   -2    6     -0.19      0.00
    1   -2    6      0.04      0.00
    2   -2    6     -2.45      0.00
    3   -2    6     -0.61      0.00
    4   -2    6      0.63      0.00
    5   -2    6     -1.32      0.00
    6   -2    6     -1.23      0.00
    7   -2    6      2.99      0.00
    8   -2    6     -1.78      0.00
    9   -2    6     -2.61      0.00
   10   -2    6     -0.03      0.00
   11   -2    6      0.83      0.00
   12   -2    6     -3.90      0.00
  -13   -1    6     -0.60      0.00
  -12   -1    6      1.13      0.00
  -11   -1    6      1.32      0.00
  -10   -1    6     -0.87      0.00
   -9   -1    6      0.84      0.00
   -8   -1    6     -0.61      0.00
   -7   -1    6      2.04      0.00
   -6   -1    6     -4.59      0.00
   -5   -1    6      1.73      0.00
   -4   -1    6     -1.10      0.00
   -3   -1    6     -1.56      0.00
   -2   -1    6     -1.69      0.00
   -1   -1    6     -3.00      0.00
    0   -1    6     -6.54      0.00
    1   -1    6      3.07      0.00
    2   -1    6     -1.56      0.00
    3   -1    6     -2.70      0.00
    4   -1    6      4.14      0.00
    5   -1    6     -1.27      0.00
    6   -1    6     -1.53      0.00
    7   -1    6      2.81      0.00
    8   -1    6     -0.61      0.00
    9   -1    6     -2.09      0.00
   10   -1    6      4.31      0.00
   11   -1    6     -3.81      0.00
   12   -1    6      2.26      0.00
  -12    0    6     -2.79      0.00
  -11    0    6      0.50      0.00
  -10    0    6      3.04      0.00
   -9    0    6     -3.02      0.00
   -8    0    6     -1.03      0.00
   -7    0    6      1.12      0.00
   -6    0    6     -2.02      0.00
   -5    0    6     -0.46      0.00
   -4    0    6     -2.12      0.00
   -3    0    6      0.74      0.00
   -2    0    6      6.41      0.00
   -1    0    6     -2.29      0.00
    0    0    6      0.11      0.00
    1    0    6     -0.42      0.00
    2    0    6      7.20      0.00
    3    0    6     -4.35      0.00
    4    0    6      1.47      0.00
    5    0    6     -0.25      0.00
    6    0    6     -3.58      0.00
    7    0    6      1.78      0.00
    8    0    6     -0.61      0.00
    9    0    6      1.48      0.00
   10    0    6     -2.23      0.00
   11    0    6     -0.16      0.00
   12    0    6      1.89      0.00
   13    0    6     -3.63      0.00
  -12    1    6     -2.39      0.00
  -11    1    6      0.48      0.00
  -10    1    6     -1.39      0.00
   -9    1    6      1.04      0.00
   -8    1    6     -0.09      0.00
   -7    1    6      0.03      0.00
   -6    1    6     -1.48      0.00
   -5    1    6      2.73      0.00
   -4    1    6     -6.37      0.00
   -3    1    6      3.59      0.00
   -2    1    6    -12.21      0.00
   -1    1    6     11.02      0.00
    0    1    6     -3.17      0.00
    1    1    6     -4.72      0.00
    2    1    6     -5.03      0.00
    3    1    6     -0.98      0.00
    4    1    6      0.71      0.00
    5    1    6      3.30      0.00
    6    1    6      1.66      0.00
    7    1    6     -3.33      0.00
    8    1    6     -0.26      0.00
    9    1    6      0.25      0.00
   10    1    6     -0.87      0.00
   11    1    6     -0.65      0.00
   12    1    6      0.85      0.00
   13    1    6     -0.46      0.00
  -12    2    6      2.34      0.00
  -11    2    6     -1.33      0.00
  -10    2    6      2.06      0.00
   -9    2    6     -1.62      0.00
   -8    2    6     -0.58      0.00
   -7    2    6      0.21      0.00
   -6    2    6     -2.36      0.00
   -5    2    6      2.96      0.00
   -4    2    6     -1.40      0.00
   -3    2    6     -0.24      0.00
   -2    2    6     -1.06      0.00
   -1    2    6      3.66      0.00
    0    2    6    -11.34      0.00
    1    2    6     19.72      0.00
    2    2    6     -5.86      0.00
    3    2    6      0.91      0.00
    4    2    6      2.61      0.00
    5    2    6     -7.35      0.00
    6    2    6      1.63      0.00
    7    2    6      2.40      0.00
    8    2    6     -0.97      0.00
    9    2    6     -1.15      0.00
   10    2    6      0.10      0.00
   11    2    6     -0.88      0.00
   12    2    6      0.20      0.00
   13    2    6     -0.47      0.00
  -11    3    6      5.76      0.00
  -10    3    6     -4.81      0.00
   -9    3    6      1.94      0.00
   -8    3    6     -0.35      0.00
   -7    3    6     -3.02      0.00
   -6    3    6     -1.06      0.00
   -5    3    6     -1.36      0.00
   -4    3    6     -0.59      0.00
   -3    3    6      2.20      0.00
   -2    3    6     -1.90      0.00
   -1    3    6     -0.44      0.00
    0    3    6      1.75      0.00
    1    3    6     -6.41      0.00
    2    3    6      2.64      0.00
    3    3    6      1.44      0.00
    4    3    6     -4.28      0.00
    5    3    6      5.48      0.00
    6    3    6     -3.46      0.00
    7    3    6      1.67      0.00
    8    3    6      0.25      0.00
    9    3    6     -0.58      0.00
   10    3    6      2.30      0.00
   11    3    6     -0.70      0.00
   12    3    6     -3.17      0.00
   13    3    6      1.50      0.00
  -11    4    6      1.65      0.00
  -10    4    6     -2.23      0.00
   -9    4    6      1.09      0.00
   -8    4    6      3.26      0.00
   -7    4    6     -0.50      0.00
   -6    4    6     -2.14      0.00
   -5    4    6      1.54      0.00
   -4    4    6     -2.58      0.00
   -3    4    6     -1.69      0.00
   -2    4    6     -0.49      0.00
   -1    4    6      4.44      0.00
    0    4    6     -8.10      0.00
    1    4    6      5.22      0.00
    2    4    6     -1.22      0.00
    3    4    6     -1.56      0.00
    4    4    6      1.73      0.00
    5    4    6      1.34      0.00
    6    4    6     -2.46      0.00
    7    4    6     -1.81      0.00
    8    4    6      1.79      0.00
    9    4    6     -3.35      0.00
   10    4    6      1.27      0.00
   11    4    6     -0.27      0.00
   12    4    6     -0.16      0.00
   13    4    6      1.40      0.00
   14    4    6     -3.83      0.00
  -10    5    6     -0.36      0.00
   -9    5    6     -3.14      0.00
   -8    5    6     -3.10      0.00
   -7    5    6      4.51      0.00
   -6    5    6     -4.31      0.00
   -5    5    6     -1.09      0.00
   -4    5    6      0.77      0.00
   -3    5    6     -2.72      0.00
   -2    5    6     -1.21      0.00
   -1    5    6      1.63      0.00
    0    5    6      1.95      0.00
    1    5    6      0.12      0.00
    2    5    6     -0.73      0.00
    3    5    6      0.53      0.00
    4    5    6      0.34      0.00
    5    5    6     -2.16      0.00
    6    5    6      1.56      0.00
    7    5    6      3.76      0.00
    8    5    6     -3.26      0.00
    9    5    6      1.74      0.00
   10    5    6      0.56      0.00
   11    5    6     -0.15      0.00
   12    5    6     -0.15      0.00
   13    5    6      0.62      0.00
   14    5    6     -0.07      0.00
  -10    6    6      4.21      0.00
   -9    6    6     -2.95      0.00
   -8    6    6      2.57      0.00
   -7    6    6     -0.60      0.00
   -6    6    6      0.66      0.00
   -5    6    6     -0.32      0.00
   -4    6    6     -0.55      0.00
   -3    6    6      1.30      0.00
   -2    6    6     -3.87      0.00
   -1    6    6      0.16      0.00
    0    6    6     -1.01      0.00
    1    6    6     -5.08      0.00
    2    6    6      2.86      0.00
    3    6    6     -0.67      0.00
    4    6    6     -2.11      0.00
    5    6    6      1.80      0.00
    6    6    6     -4.41      0.00
    7    6    6      2.33      0.00
    8    6    6     -0.44      0.00
    9    6    6     -0.35      0.00
   10    6    6     -0.51      0.00
   11    6    6      1.22      0.00
   12    6    6     -2.02      0.00
   13    6    6      0.77      0.00
   14    6    6     -0.02      0.00
   -9    7    6      0.82      0.00
   -8    7    6     -2.07      0.00
   -7    7    6     -4.12      0.00
   -6    7    6      5.68      0.00
   -5    7    6     -4.19      0.00
   -4    7    6      1.21      0.00
   -3    7    6     -2.98      0.00
   -2    7    6      0.54      0.00
   -1    7    6     -2.70      0.00
    0    7    6      1.85      0.00
    1    7    6      3.17      0.00
    2    7    6     -3.33      0.00
    3    7    6      0.21      0.00
    4    7    6      0.94      0.00
    5    7    6     -2.10      0.00
    6    7    6      1.41      0.00
    7    7    6     -1.68      0.00
    8    7    6     -0.02      0.00
    9    7    6      0.85      0.00
   10    7    6      0.17      0.00
   11    7    6     -0.70      0.00
   12    7    6     -0.55      0.00
   13    7    6      3.19      0.00
   14    7    6     -3.55      0.00
   -8    8    6      3.86      0.00
   -7    8    6     -2.88      0.00
   -6    8    6      0.54      0.00
   -5    8    6     -0.81      0.00
   -4    8    6      0.21      0.00
   -3    8    6      3.35      0.00
   -2    8    6     -2.97      0.00
   -1    8    6      0.03      0.00
    0    8    6     -1.65      0.00
    1    8    6     -2.76      0.00
    2    8    6      0.19      0.00
    3    8    6     -1.64      0.00
    4    8    6      1.10      0.00
    5    8    6     -0.66      0.00
    6    8    6     -2.06      0.00
    7    8    6      0.99      0.00
    8    8    6     -1.57      0.00
    9    8    6      0.51      0.00
   10    8    6      0.91      0.00
   11    8    6      0.85      0.00
   12    8    6      0.99      0.00
   13    8    6     -2.16      0.00
   14    8    6      0.88      0.00
   -8    9    6      0.64      0.00
   -7    9    6      2.03      0.00
   -6    9    6     -1.18      0.00
   -5    9    6      1.09      0.00
   -4    9    6     -1.17      0.00
   -3    9    6     -0.76      0.00
   -2    9    6      2.14      0.00
   -1    9    6     -4.06      0.00
    0    9    6      3.19      0.00
    1    9    6     -1.68      0.00
    2    9    6     -0.39      0.00
    3    9    6      0.74      0.00
    4    9    6     -2.66      0.00
    5    9    6     -0.54      0.00
    6    9    6      1.16      0.00
    7    9    6     -1.33      0.00
    8    9    6     -1.50      0.00
    9    9    6      0.81      0.00
   10    9    6     -0.30      0.00
   11    9    6     -1.90      0.00
   12    9    6     -0.10      0.00
   13    9    6      1.34      0.00
   14    9    6     -0.08      0.00
   -7   10    6     -2.50      0.00
   -6   10    6      3.75      0.00
   -5   10    6      0.24      0.00
   -4   10    6     -1.18      0.00
   -3   10    6     -2.54      0.00
   -2   10    6      5.76      0.00
   -1   10    6     -3.70      0.00
    0   10    6     -0.55      0.00
    1   10    6      1.60      0.00
    2   10    6     -2.01      0.00
    3   10    6     -0.18      0.00
    4   10    6     -0.23      0.00
    5   10    6     -2.19      0.00
    6   10    6      1.07      0.00
    7   10    6     -1.13      0.00
    8   10    6      0.63      0.00
    9   10    6     -1.14      0.00
   10   10    6     -2.09      0.00
   11   10    6      3.70      0.00
   12   10    6     -1.18      0.00
   13   10    6      0.89      0.00
   -6   11    6      0.44      0.00
   -5   11    6     -0.63      0.00
   -4   11    6      0.71      0.00
   -3   11    6      3.95      0.00
   -2   11    6     -5.51      0.00
   -1   11    6      2.19      0.00
    0   11    6      1.85      0.00
    1   11    6     -2.96      0.00
    2   11    6      1.73      0.00
    3   11    6     -1.64      0.00
    4   11    6      3.16      0.00
    5   11    6     -2.66      0.00
    6   11    6     -0.16      0.00
    7   11    6     -0.53      0.00
    8   11    6      0.66      0.00
    9   11    6     -2.29      0.00
   10   11    6      4.47      0.00
   11   11    6     -3.41      0.00
   12   11    6      1.64      0.00
   13   11    6     -3.86      0.00
   -5   12    6      9.66      0.00
   -4   12    6     -3.31      0.00
   -3   12    6     -3.19      0.00
   -2   12    6      6.59      0.00
   -1   12    6     -4.69      0.00
    0   12    6      2.76      0.00
    1   12    6     -1.07      0.00
    2   12    6      0.44      0.00
    3   12    6     -0.06      0.00
    4   12    6     -0.80      0.00
    5   12    6      0.96      0.00
    6   12    6     -1.75      0.00
    7   12    6     -0.64      0.00
    8   12    6      0.39      0.00
    9   12    6      0.58      0.00
   10   12    6     -4.55      0.00
   11   12    6      0.55      0.00
   12   12    6      0.88      0.00
   13   12    6      1.96      0.00
   -4   13    6      6.71      0.00
   -3   13    6     -2.45      0.00
   -2   13    6      3.36      0.00
   -1   13    6     -4.29      0.00
    0   13    6      1.96      0.00
    1   13    6     -0.70      0.00
    2   13    6      1.97      0.00
    3   13    6     -1.30      0.00
    4   13    6      0.91      0.00
    5   13    6      0.89      0.00
    6   13    6      1.09      0.00
    7   13    6     -1.34      0.00
    8   13    6      0.52      0.00
    9   13    6      0.16      0.00
   10   13    6      1.95      0.00
   11   13    6     -2.05      0.00
   12   13    6      3.06      0.00
   -2   14    6     -4.33      0.00
   -1   14    6      8.72      0.00
    0   14    6     -5.35      0.00
    1   14    6      4.02      0.00
    2   14    6     -2.48      0.00
    3   14    6      0.68      0.00
    4   14    6      0.76      0.00
    5   14    6     -0.87      0.00
    6   14    6      4.47      0.00
    7   14    6     -5.73      0.00
    8   14    6      2.50      0.00
    9   14    6     -2.10      0.00
   10   14    6      1.17      0.00
   11   14    6      0.82      0.00
   12   14    6     -6.42      0.00
   -1   15    6     -6.82      0.00
    0   15    6      3.94      0.00
    1   15    6     -3.27      0.00
    2   15    6      3.19      0.00
    3   15    6      0.94      0.00
    4   15    6     -1.33      0.00
    5   15    6      0.20      0.00
    6   15    6     -2.89      0.00
    7   15    6      9.29      0.00
    8   15    6     -6.10      0.00
    9   15    6      1.28      0.00
   10   15    6     -0.98      0.00
   11   15    6      1.22      0.00
    1   16    6     -2.65      0.00
    2   16    6      0.85      0.00
    3   16    6      1.79      0.00
    4   16    6     -0.59      0.00
    5   16    6      2.60      0.00
    6   16    6     -2.03      0.00
    7   16    6     -1.04      0.00
    8   16    6      3.14      0.00
    9   16    6     -0.05      0.00
   -9  -15    7      4.41      0.00
   -8  -15    7     -4.08      0.00
   -7  -15    7     -0.89      0.00
   -6  -15    7      2.37      0.00
   -5  -15    7     -1.93      0.00
   -4  -15    7      0.00      0.00
   -3  -15    7      3.97      0.00
   -2  -15    7     -6.41      0.00
   -1  -15    7      1.82      0.00
  -10  -14    7     -5.09      0.00
   -9  -14    7      2.53      0.00
   -8  -14    7      0.60      0.00
   -7  -14    7      2.14      0.00
   -6  -14    7     -2.91      0.00
   -5  -14    7      0.15      0.00
   -4  -14    7      4.61      0.00
   -3  -14    7    -10.94      0.00
   -2  -14    7      7.70      0.00
   -1  -14    7     -1.13      0.00
    0  -14    7     -1.38      0.00
    1  -14    7      0.85      0.00
  -11  -13    7     -8.17      0.00
  -10  -13    7      8.49      0.00
   -9  -13    7     -6.01      0.00
   -8  -13    7      0.82      0.00
   -7  -13    7     -1.81      0.00
   -6  -13    7      2.70      0.00
   -5  -13    7     -4.64      0.00
   -4  -13    7     -0.59      0.00
   -3  -13    7      4.78      0.00
   -2  -13    7     -2.48      0.00
   -1  -13    7     -0.85      0.00
    0  -13    7     -0.02      0.00
    1  -13    7      5.45      0.00
    2  -13    7     -9.50      0.00
    3  -13    7      7.40      0.00
  -12  -12    7     -0.33      0.00
  -11  -12    7      2.21      0.00
  -10  -12    7     -3.91      0.00
   -9  -12    7      3.17      0.00
   -8  -12    7     -0.81      0.00
   -7  -12    7      2.69      0.00
   -6  -12    7     -2.98      0.00
   -5  -12    7      6.33      0.00
   -4  -12    7     -3.30      0.00
   -3  -12    7     -1.97      0.00
   -2  -12    7      1.27      0.00
   -1  -12    7      0.19      0.00
    0  -12    7      0.49      0.00
    1  -12    7     -1.17      0.00
    2  -12    7      4.49      0.00
    3  -12    7     -2.22      0.00
    4  -12    7      0.54      0.00
  -12  -11    7      3.54      0.00
  -11  -11    7     -1.97      0.00
  -10  -11    7      0.25      0.00
   -9  -11    7     -0.02      0.00
   -8  -11    7     -0.45      0.00
   -7  -11    7     -1.63      0.00
   -6  -11    7     -2.13      0.00
   -5  -11    7     -1.64      0.00
   -4  -11    7      1.89      0.00
   -3  -11    7     -2.70      0.00
   -2  -11    7      1.57      0.00
   -1  -11    7     -0.86      0.00
    0  -11    7     -1.24      0.00
    1  -11    7      5.43      0.00
    2  -11    7     -4.49      0.00
    3  -11    7      5.62      0.00
    4  -11    7     -3.05      0.00
    5  -11    7      0.33      0.00
  -13  -10    7     -1.58      0.00
  -12  -10    7     -0.96      0.00
  -11  -10    7      2.13      0.00
  -10  -10    7     -1.05      0.00
   -9  -10    7     -0.18      0.00
   -8  -10    7     -2.79      0.00
   -7  -10    7      4.02      0.00
   -6  -10    7     -1.55      0.00
   -5  -10    7      1.98      0.00
   -4  -10    7      0.10      0.00
   -3  -10    7      1.66      0.00
   -2  -10    7     -1.90      0.00
   -1  -10    7      2.51      0.00
    0  -10    7     -0.50      0.00
    1  -10    7     -0.45      0.00
    2  -10    7      1.62      0.00
    3  -10    7      1.43      0.00
    4  -10    7      2.57      0.00
    5  -10    7     -1.62      0.00
    6  -10    7     -0.61      0.00
  -13   -9    7      3.20      0.00
  -12   -9    7     -0.92      0.00
  -11   -9    7     -3.31      0.00
  -10   -9    7      1.06      0.00
   -9   -9    7      1.04      0.00
   -8   -9    7     -1.31      0.00
   -7   -9    7     -0.17      0.00
   -6   -9    7     -1.15      0.00
   -5   -9    7     -2.31      0.00
   -4   -9    7     -1.80      0.00
   -3   -9    7     -0.94      0.00
   -2   -9    7      2.48      0.00
   -1   -9    7     -4.63      0.00
    0   -9    7      2.28      0.00
    1   -9    7     -0.17      0.00
    2   -9    7      1.39      0.00
    3   -9    7     -3.37      0.00
    4   -9    7      5.83      0.00
    5   -9    7     -0.97      0.00
    6   -9    7      1.16      0.00
    7   -9    7      3.11      0.00
  -13   -8    7      0.96      0.00
  -12   -8    7     -1.11      0.00
  -11   -8    7      4.49      0.00
  -10   -8    7     -2.72      0.00
   -9   -8    7     -1.38      0.00
   -8   -8    7     -0.50      0.00
   -7   -8    7      1.31      0.00
   -6   -8    7     -3.48      0.00
   -5   -8    7      4.87      0.00
   -4   -8    7     -1.74      0.00
   -3   -8    7      0.93      0.00
   -2   -8    7      0.64      0.00
   -1   -8    7      0.96      0.00
    0   -8    7     -0.60      0.00
    1   -8    7      2.45      0.00
    2   -8    7     -0.38      0.00
    3   -8    7      0.77      0.00
    4   -8    7      0.49      0.00
    5   -8    7      1.26      0.00
    6   -8    7     -2.66      0.00
    7   -8    7      2.41      0.00
    8   -8    7     -1.20      0.00
  -13   -7    7     -3.84      0.00
  -12   -7    7      3.00      0.00
  -11   -7    7     -1.68      0.00
  -10   -7    7     -0.62      0.00
   -9   -7    7      1.74      0.00
   -8   -7    7     -2.94      0.00
   -7   -7    7      0.89      0.00
   -6   -7    7      0.10      0.00
   -5   -7    7     -1.08      0.00
   -4   -7    7      1.66      0.00
   -3   -7    7     -3.39      0.00
   -2   -7    7      1.17      0.00
   -1   -7    7     -0.71      0.00
    0   -7    7     -0.24      0.00
    1   -7    7     -1.82      0.00
    2   -7    7      1.28      0.00
    3   -7    7      1.12      0.00
    4   -7    7     -1.59      0.00
    5   -7    7      2.20      0.00
    6   -7    7      2.48      0.00
    7   -7    7     -2.29      0.00
    8   -7    7      4.78      0.00
    9   -7    7     -0.95      0.00
  -13   -6    7      3.52      0.00
  -12   -6    7     -5.71      0.00
  -11   -6    7      4.79      0.00
  -10   -6    7     -1.64      0.00
   -9   -6    7      3.35      0.00
   -8   -6    7     -2.38      0.00
   -7   -6    7     -0.54      0.00
   -6   -6    7     -0.14      0.00
   -5   -6    7     -1.49      0.00
   -4   -6    7     -0.10      0.00
   -3   -6    7      2.02      0.00
   -2   -6    7     -0.54      0.00
   -1   -6    7      2.12      0.00
    0   -6    7     -1.46      0.00
    1   -6    7      1.14      0.00
    2   -6    7     -1.11      0.00
    3   -6    7     -0.64      0.00
    4   -6    7      1.52      0.00
    5   -6    7     -1.12      0.00
    6   -6    7     -0.05      0.00
    7   -6    7     -0.46      0.00
    8   -6    7     -3.13      0.00
    9   -6    7      0.94      0.00
  -13   -5    7     -2.93      0.00
  -12   -5    7      6.39      0.00
  -11   -5    7     -3.89      0.00
  -10   -5    7     -1.72      0.00
   -9   -5    7      0.52      0.00
   -8   -5    7      1.53      0.00
   -7   -5    7      0.48      0.00
   -6   -5    7     -0.75      0.00
   -5   -5    7      3.20      0.00
   -4   -5    7     -0.56      0.00
   -3   -5    7      0.58      0.00
   -2   -5    7      0.80      0.00
   -1   -5    7     -0.54      0.00
    0   -5    7      0.66      0.00
    1   -5    7      2.30      0.00
    2   -5    7     -0.78      0.00
    3   -5    7     -0.41      0.00
    4   -5    7     -0.01      0.00
    5   -5    7     -0.41      0.00
    6   -5    7      3.62      0.00
    7   -5    7     -1.78      0.00
    8   -5    7      2.45      0.00
    9   -5    7      3.38      0.00
   10   -5    7     -0.52      0.00
  -13   -4    7     -2.89      0.00
  -12   -4    7      1.41      0.00
  -11   -4    7     -0.15      0.00
  -10   -4    7      3.59      0.00
   -9   -4    7     -2.69      0.00
   -8   -4    7      1.21      0.00
   -7   -4    7     -2.36      0.00
   -6   -4    7      2.00      0.00
   -5   -4    7     -1.01      0.00
   -4   -4    7     -0.61      0.00
   -3   -4    7      2.69      0.00
   -2   -4    7      0.54      0.00
   -1   -4    7     -1.32      0.00
    0   -4    7      1.12      0.00
    1   -4    7     -0.67      0.00
    2   -4    7     -0.66      0.00
    3   -4    7      0.98      0.00
    4   -4    7     -1.65      0.00
    5   -4    7     -1.04      0.00
    6   -4    7     -2.55      0.00
    7   -4    7      3.26      0.00
    8   -4    7     -3.55      0.00
    9   -4    7     -3.90      0.00
   10   -4    7      0.16      0.00
   11   -4    7      2.23      0.00
  -13   -3    7      2.69      0.00
  -12   -3    7     -1.83      0.00
  -11   -3    7      1.10      0.00
  -10   -3    7     -0.51      0.00
   -9   -3    7      0.00      0.00
   -8   -3    7      2.84      0.00
   -7   -3    7     -0.26      0.00
   -6   -3    7      1.50      0.00
   -5   -3    7     -0.23      0.00
   -4   -3    7      2.07      0.00
   -3   -3    7     -0.94      0.00
   -2   -3    7      1.56      0.00
   -1   -3    7      3.95      0.00
    0   -3    7     -0.23      0.00
    1   -3    7     -0.76      0.00
    2   -3    7      0.05      0.00
    3   -3    7      2.28      0.00
    4   -3    7     -0.39      0.00
    5   -3    7      0.72      0.00
    6   -3    7      0.16      0.00
    7   -3    7     -0.17      0.00
    8   -3    7      1.37      0.00
    9   -3    7      4.02      0.00
   10   -3    7     -3.04      0.00
   11   -3    7      2.86      0.00
  -13   -2    7     -0.63      0.00
  -12   -2    7     -1.04      0.00
  -11   -2    7     -0.24      0.00
  -10   -2    7      0.75      0.00
   -9   -2    7     -0.59      0.00
   -8   -2    7     -0.43      0.00
   -7   -2    7     -1.40      0.00
   -6   -2    7      2.99      0.00
   -5   -2    7     -1.38      0.00
   -4   -2    7      1.24      0.00
   -3   -2    7      2.90      0.00
   -2   -2    7      1.41      0.00
   -1   -2    7     -2.02      0.00
    0   -2    7      4.00      0.00
    1   -2    7      1.28      0.00
    2   -2    7     -1.80      0.00
    3   -2    7      1.81      0.00
    4   -2    7     -1.40      0.00
    5   -2    7     -3.39      0.00
    6   -2    7      4.21      0.00
    7   -2    7     -3.90      0.00
    8   -2    7     -1.49      0.00
    9   -2    7      3.33      0.00
   10   -2    7     -2.76      0.00
   11   -2    7     -3.18      0.00
   12   -2    7      3.44      0.00
  -13   -1    7      0.23      0.00
  -12   -1    7     -0.43      0.00
  -11   -1    7      1.12      0.00
  -10   -1    7     -1.57      0.00
   -9   -1    7      1.74      0.00
   -8   -1    7      2.18      0.00
   -7   -1    7     -1.68      0.00
   -6   -1    7      3.47      0.00
   -5   -1    7     -0.21      0.00
   -4   -1    7      0.42      0.00
   -3   -1    7     -0.68      0.00
   -2   -1    7      0.19      0.00
   -1   -1    7      0.22      0.00
    0   -1    7      2.62      0.00
    1   -1    7     -0.29      0.00
    2   -1    7     -3.39      0.00
    3   -1    7      3.59      0.00
    4   -1    7     -0.18      0.00
    5   -1    7     -0.93      0.00
    6   -1    7      2.60      0.00
    7   -1    7     -0.76      0.00
    8   -1    7     -0.16      0.00
    9   -1    7      0.83      0.00
   10   -1    7     -0.88      0.00
   11   -1    7      3.65      0.00
   12   -1    7     -2.30      0.00
  -12    0    7      0.53      0.00
  -11    0    7      1.87      0.00
  -10    0    7     -5.39      0.00
   -9    0    7      2.46      0.00
   -8    0    7      0.15      0.00
   -7    0    7     -1.34      0.00
   -6    0    7      0.44      0.00
   -5    0    7      0.30      0.00
   -4    0    7      3.94      0.00
   -3    0    7     -1.42      0.00
   -2    0    7      4.27      0.00
   -1    0    7     -1.19      0.00
    0    0    7      2.66      0.00
    1    0    7      6.26      0.00
    2    0    7     -3.95      0.00
    3    0    7      2.47      0.00
    4    0    7      1.07      0.00
    5    0    7     -3.04      0.00
    6    0    7      1.11      0.00
    7    0    7      0.58      0.00
    8    0    7     -0.53      0.00
    9    0    7      0.13      0.00
   10    0    7      1.77      0.00
   11    0    7     -1.05      0.00
   12    0    7     -1.52      0.00
  -12    1    7     -0.25      0.00
  -11    1    7     -0.35      0.00
  -10    1    7      3.12      0.00
   -9    1    7     -3.38      0.00
   -8    1    7      0.78      0.00
   -7    1    7      1.29      0.00
   -6    1    7      1.65      0.00
   -5    1    7     -2.65      0.00
   -4    1    7      4.16      0.00
   -3    1    7     -2.59      0.00
   -2    1    7      6.78      0.00
   -1    1    7     -9.20      0.00
    0    1    7      1.77      0.00
    1    1    7     -1.72      0.00
    2    1    7      2.68      0.00
    3    1    7      1.28      0.00
    4    1    7     -1.76      0.00
    5    1    7      0.68      0.00
    6    1    7     -1.44      0.00
    7    1    7      2.84      0.00
    8    1    7     -0.93      0.00
    9    1    7      0.29      0.00
   10    1    7      0.64      0.00
   11    1    7     -0.91      0.00
   12    1    7      2.17      0.00
   13    1    7     -2.47      0.00
  -12    2    7     -1.01      0.00
  -11    2    7      0.88      0.00
  -10    2    7     -2.11      0.00
   -9    2    7      3.30      0.00
   -8    2    7     -0.07      0.00
   -7    2    7     -0.91      0.00
   -6    2    7      2.63      0.00
   -5    2    7     -1.60      0.00
   -4    2    7     -0.67      0.00
   -3    2    7      1.41      0.00
   -2    2    7      0.87      0.00
   -1    2    7      3.09      0.00
    0    2    7      6.06      0.00
    1    2    7     -6.86      0.00
    2    2    7      3.69      0.00
    3    2    7     -0.70      0.00
    4    2    7     -0.05      0.00
    5    2    7      3.36      0.00
    6    2    7      0.91      0.00
    7    2    7     -4.82      0.00
    8    2    7      0.13      0.00
    9    2    7      3.27      0.00
   10    2    7     -1.84      0.00
   11    2    7      0.90      0.00
   12    2    7      2.10      0.00
   13    2    7     -0.61      0.00
  -11    3    7     -7.04      0.00
  -10    3    7      3.59      0.00
   -9    3    7     -3.67      0.00
   -8    3    7     -1.59      0.00
   -7    3    7      2.69      0.00
   -6    3    7     -1.07      0.00
   -5    3    7      3.30      0.00
   -4    3    7      0.31      0.00
   -3    3    7     -1.16      0.00
   -2    3    7      0.88      0.00
   -1    3    7      0.89      0.00
    0    3    7     -4.57      0.00
    1    3    7      9.55      0.00
    2    3    7     -6.98      0.00
    3    3    7      2.27      0.00
    4    3    7      3.79      0.00
    5    3    7     -7.48      0.00
    6    3    7      4.98      0.00
    7    3    7      3.44      0.00
    8    3    7     -2.05      0.00
    9    3    7      1.19      0.00
   10    3    7     -0.68      0.00
   11    3    7     -1.74      0.00
   12    3    7      3.53      0.00
   13    3    7     -2.12      0.00
  -11    4    7      5.56      0.00
  -10    4    7     -2.91      0.00
   -9    4    7      4.67      0.00
   -8    4    7     -0.96      0.00
   -7    4    7     -1.82      0.00
   -6    4    7      3.90      0.00
   -5    4    7     -0.54      0.00
   -4    4    7      0.43      0.00
   -3    4    7      1.83      0.00
   -2    4    7     -0.16      0.00
   -1    4    7     -2.75      0.00
    0    4    7      4.68      0.00
    1    4    7     -4.60      0.00
    2    4    7      2.43      0.00
    3    4    7      1.87      0.00
    4    4    7     -3.08      0.00
    5    4    7      2.62      0.00
    6    4    7     -1.76      0.00
    7    4    7     -1.30      0.00
    8    4    7     -1.18      0.00
    9    4    7      2.20      0.00
   10    4    7      0.82      0.00
   11    4    7     -2.25      0.00
   12    4    7      1.54      0.00
   13    4    7     -2.63      0.00
  -10    5    7     -2.08      0.00
   -9    5    7      0.47      0.00
   -8    5    7      2.33      0.00
   -7    5    7     -5.65      0.00
   -6    5    7      0.55      0.00
   -5    5    7      1.26      0.00
   -4    5    7      0.56      0.00
   -3    5    7      0.46      0.00
   -2    5    7      3.03      0.00
   -1    5    7      1.31      0.00
    0    5    7     -3.58      0.00
    1    5    7      6.69      0.00
    2    5    7     -1.80      0.00
    3    5    7      0.11      0.00
    4    5    7      2.59      0.00
    5    5    7     -0.57      0.00
    6    5    7      3.60      0.00
    7    5    7     -2.92      0.00
    8    5    7      3.06      0.00
    9    5    7     -1.37      0.00
   10    5    7      0.05      0.00
   11    5    7      0.16      0.00
   12    5    7      1.84      0.00
   13    5    7     -1.29      0.00
   14    5    7     -0.33      0.00
  -10    6    7     -2.12      0.00
   -9    6    7      1.99      0.00
   -8    6    7     -1.62      0.00
   -7    6    7      7.70      0.00
   -6    6    7     -4.75      0.00
   -5    6    7      2.82      0.00
   -4    6    7      0.14      0.00
   -3    6    7     -0.51      0.00
   -2    6    7      0.99      0.00
   -1    6    7      1.41      0.00
    0    6    7     -1.65      0.00
    1    6    7      0.91      0.00
    2    6    7     -1.21      0.00
    3    6    7     -0.12      0.00
    4    6    7      1.21      0.00
    5    6    7     -0.53      0.00
    6    6    7      0.80      0.00
    7    6    7      0.20      0.00
    8    6    7     -1.55      0.00
    9    6    7      0.99      0.00
   10    6    7     -0.13      0.00
   11    6    7     -1.54      0.00
   12    6    7      3.39      0.00
   13    6    7     -3.57      0.00
   14    6    7      1.97      0.00
   -9    7    7     -2.91      0.00
   -8    7    7     -0.14      0.00
   -7    7    7      1.11      0.00
   -6    7    7     -3.16      0.00
   -5    7    7      0.32      0.00
   -4    7    7      1.30      0.00
   -3    7    7     -0.53      0.00
   -2    7    7      0.13      0.00
   -1    7    7      4.22      0.00
    0    7    7     -1.09      0.00
    1    7    7     -0.49      0.00
    2    7    7      4.27      0.00
    3    7    7      1.49      0.00
    4    7    7     -1.85      0.00
    5    7    7      2.14      0.00
    6    7    7      0.42      0.00
    7    7    7      0.51      0.00
    8    7    7      0.48      0.00
    9    7    7     -0.48      0.00
   10    7    7     -0.17      0.00
   11    7    7     -1.09      0.00
   12    7    7      0.22      0.00
   13    7    7     -0.97      0.00
   14    7    7      2.28      0.00
   -8    8    7     -3.25      0.00
   -7    8    7     -0.04      0.00
   -6    8    7      5.09      0.00
   -5    8    7     -2.19      0.00
   -4    8    7      0.75      0.00
   -3    8    7     -0.49      0.00
   -2    8    7     -0.10      0.00
   -1    8    7      0.50      0.00
    0    8    7      1.30      0.00
    1    8    7      1.27      0.00
    2    8    7     -1.46      0.00
    3    8    7      0.44      0.00
    4    8    7      1.04      0.00
    5    8    7     -0.05      0.00
    6    8    7      1.60      0.00
    7    8    7      0.14      0.00
    8    8    7      1.98      0.00
    9    8    7     -0.84      0.00
   10    8    7     -0.06      0.00
   11    8    7      0.89      0.00
   12    8    7     -1.01      0.00
   13    8    7      1.82      0.00
   14    8    7     -0.90      0.00
   -7    9    7     -2.82      0.00
   -6    9    7     -0.12      0.00
   -5    9    7     -2.25      0.00
   -4    9    7      2.51      0.00
   -3    9    7      1.24      0.00
   -2    9    7     -2.97      0.00
   -1    9    7      2.64      0.00
    0    9    7     -1.21      0.00
    1    9    7      1.10      0.00
    2    9    7      0.58      0.00
    3    9    7      1.71      0.00
    4    9    7      0.77      0.00
    5    9    7      2.35      0.00
    6    9    7     -2.92      0.00
    7    9    7      1.72      0.00
    8    9    7     -0.13      0.00
    9    9    7     -0.61      0.00
   10    9    7      1.16      0.00
   11    9    7     -1.13      0.00
   12    9    7      1.65      0.00
   13    9    7     -4.56      0.00
   14    9    7      2.24      0.00
   -7   10    7      0.05      0.00
   -6   10    7     -1.86      0.00
   -5   10    7      0.77      0.00
   -4   10    7     -1.80      0.00
   -3   10    7      2.45      0.00
   -2   10    7     -3.00      0.00
   -1   10    7      1.76      0.00
    0   10    7      1.66      0.00
    1   10    7     -2.00      0.00
    2   10    7      0.88      0.00
    3   10    7      0.61      0.00
    4   10    7     -1.11      0.00
    5   10    7      2.23      0.00
    6   10    7      0.34      0.00
    7   10    7      0.39      0.00
    8   10    7     -0.14      0.00
    9   10    7      1.68      0.00
   10   10    7      0.44      0.00
   11   10    7     -2.92      0.00
   12   10    7      1.00      0.00
   13   10    7      2.60      0.00
   -6   11    7      4.56      0.00
   -5   11    7     -4.10      0.00
   -4   11    7      0.10      0.00
   -3   11    7     -1.60      0.00
   -2   11    7      4.27      0.00
   -1   11    7     -3.39      0.00
    0   11    7     -1.67      0.00
    1   11    7      4.03      0.00
    2   11    7     -2.11      0.00
    3   11    7      1.77      0.00
    4   11    7     -2.19      0.00
    5   11    7      2.50      0.00
    6   11    7      0.33      0.00
    7   11    7      1.90      0.00
    8   11    7     -1.18      0.00
    9   11    7      0.90      0.00
   10   11    7     -1.63      0.00
   11   11    7      3.93      0.00
   12   11    7     -2.27      0.00
   13   11    7      1.03      0.00
   -5   12    7      0.37      0.00
   -4   12    7     -2.06      0.00
   -3   12    7      4.48      0.00
   -2   12    7     -9.06      0.00
   -1   12    7      8.22      0.00
    0   12    7     -3.40      0.00
    1   12    7      0.00      0.00
    2   12    7     -0.02      0.00
    3   12    7     -0.81      0.00
    4   12    7      1.80      0.00
    5   12    7     -3.01      0.00
    6   12    7      1.09      0.00
    7   12    7     -1.04      0.00
    8   12    7      1.80      0.00
    9   12    7     -4.02      0.00
   10   12    7      4.14      0.00
   11   12    7     -1.11      0.00
   12   12    7     -2.47      0.00
   13   12    7     -1.02      0.00
   -3   13    7     -0.58      0.00
   -2   13    7      3.17      0.00
   -1   13    7     -5.49      0.00
    0   13    7      3.41      0.00
    1   13    7     -2.16      0.00
    2   13    7     -0.49      0.00
    3   13    7      0.72      0.00
    4   13    7     -0.32      0.00
    5   13    7      1.12      0.00
    6   13    7     -3.49      0.00
    7   13    7      5.27      0.00
    8   13    7     -1.64      0.00
    9   13    7      2.70      0.00
   10   13    7     -2.07      0.00
   11   13    7     -0.74      0.00
   12   13    7      4.75      0.00
   -2   14    7      2.53      0.00
   -1   14    7     -2.54      0.00
    0   14    7      0.36      0.00
    1   14    7      0.16      0.00
    2   14    7      1.19      0.00
    3   14    7     -2.18      0.00
    4   14    7     -0.20      0.00
    5   14    7      0.29      0.00
    6   14    7     -1.74      0.00
    7   14    7     -1.17      0.00
    8   14    7      0.19      0.00
    9   14    7     -0.47      0.00
   10   14    7      0.57      0.00
   11   14    7     -2.54      0.00
   12   14    7      3.12      0.00
    0   15    7     -5.37      0.00
    1   15    7      2.43      0.00
    2   15    7     -3.81      0.00
    3   15    7     -0.05      0.00
    4   15    7     -0.21      0.00
    5   15    7     -0.04      0.00
    6   15    7      4.71      0.00
    7   15    7     -9.45      0.00
    8   15    7      6.88      0.00
    9   15    7     -2.61      0.00
   10   15    7      2.42      0.00
   11   15    7      0.04      0.00
    2   16    7      3.81      0.00
    3   16    7     -2.57      0.00
    4   16    7     -0.47      0.00
    5   16    7     -2.19      0.00
    6   16    7     -2.09      0.00
    7   16    7      7.62      0.00
    8   16    7     -7.54      0.00
    9   16    7      1.46      0.00
   -8  -15    8      4.97      0.00
   -7  -15    8      0.63      0.00
   -6  -15    8     -4.58      0.00
   -5  -15    8      8.14      0.00
   -4  -15    8     -7.74      0.00
   -3  -15    8      5.87      0.00
   -2  -15    8      0.81      0.00
  -10  -14    8      1.96      0.00
   -9  -14    8      2.46      0.00
   -8  -14    8     -3.09      0.00
   -7  -14    8      1.48      0.00
   -6  -14    8      0.61      0.00
   -5  -14    8      0.88      0.00
   -4  -14    8     -2.78      0.00
   -3  -14    8      7.34      0.00
   -2  -14    8     -7.36      0.00
   -1  -14    8      2.42      0.00
    0  -14    8      3.10      0.00
    1  -14    8     -3.81      0.00
  -11  -13    8      8.06      0.00
  -10  -13    8     -8.57      0.00
   -9  -13    8      2.90      0.00
   -8  -13    8     -0.12      0.00
   -7  -13    8     -2.42      0.00
   -6  -13    8     -0.81      0.00
   -5  -13    8      2.76      0.00
   -4  -13    8     -0.35      0.00
   -3  -13    8     -1.89      0.00
   -2  -13    8      3.22      0.00
   -1  -13    8      1.27      0.00
    0  -13    8     -1.63      0.00
    1  -13    8     -4.09      0.00
    2  -13    8      7.73      0.00
  -11  -12    8     -3.52      0.00
  -10  -12    8      5.17      0.00
   -9  -12    8     -2.99      0.00
   -8  -12    8      1.96      0.00
   -7  -12    8      0.14      0.00
   -6  -12    8      2.55      0.00
   -5  -12    8     -2.34      0.00
   -4  -12    8      0.17      0.00
   -3  -12    8      4.21      0.00
   -2  -12    8     -1.98      0.00
   -1  -12    8     -2.86      0.00
    0  -12    8      4.24      0.00
    1  -12    8     -1.26      0.00
    2  -12    8     -5.28      0.00
    3  -12    8      4.23      0.00
    4  -12    8     -0.50      0.00
  -12  -11    8     -3.50      0.00
  -11  -11    8      1.34      0.00
  -10  -11    8     -1.12      0.00
   -9  -11    8     -0.62      0.00
   -8  -11    8      0.27      0.00
   -7  -11    8     -1.66      0.00
   -6  -11    8     -0.80      0.00
   -5  -11    8      2.96      0.00
   -4  -11    8     -4.92      0.00
   -3  -11    8      1.44      0.00
   -2  -11    8      0.12      0.00
   -1  -11    8      0.95      0.00
    0  -11    8     -0.43      0.00
    1  -11    8     -2.52      0.00
    2  -11    8      3.33      0.00
    3  -11    8     -4.26      0.00
    4  -11    8     -0.09      0.00
    5  -11    8      2.70      0.00
  -12  -10    8      4.31      0.00
  -11  -10    8     -2.10      0.00
  -10  -10    8      0.90      0.00
   -9  -10    8     -0.17      0.00
   -8  -10    8      3.16      0.00
   -7  -10    8     -1.67      0.00
   -6  -10    8      0.50      0.00
   -5  -10    8      2.25      0.00
   -4  -10    8      0.84      0.00
   -3  -10    8      1.41      0.00
   -2  -10    8      0.06      0.00
   -1  -10    8     -0.93      0.00
    0  -10    8      1.15      0.00
    1  -10    8      0.62      0.00
    2  -10    8     -3.44      0.00
    3  -10    8      2.68      0.00
    4  -10    8     -5.48      0.00
    5  -10    8      0.61      0.00
    6  -10    8      2.05      0.00
  -13   -9    8     -4.61      0.00
  -12   -9    8      0.34      0.00
  -11   -9    8      2.25      0.00
  -10   -9    8     -0.55      0.00
   -9   -9    8     -0.93      0.00
   -8   -9    8      0.67      0.00
   -7   -9    8     -0.53      0.00
   -6   -9    8      0.82      0.00
   -5   -9    8     -0.99      0.00
   -4   -9    8     -0.91      0.00
   -3   -9    8      0.19      0.00
   -2   -9    8     -3.67      0.00
   -1   -9    8      2.87      0.00
    0   -9    8     -2.05      0.00
    1   -9    8     -1.47      0.00
    2   -9    8     -1.26      0.00
    3   -9    8      2.31      0.00
    4   -9    8     -2.00      0.00
    5   -9    8     -2.11      0.00
    6   -9    8      2.09      0.00
    7   -9    8     -2.86      0.00
  -13   -8    8      2.78      0.00
  -12   -8    8      0.65      0.00
  -11   -8    8     -4.36      0.00
  -10   -8    8      4.98      0.00
   -9   -8    8     -0.72      0.00
   -8   -8    8      2.62      0.00
   -7   -8    8     -1.64      0.00
   -6   -8    8      1.82      0.00
   -5   -8    8     -0.03      0.00
   -4   -8    8     -0.39      0.00
   -3   -8    8      3.64      0.00
   -2   -8    8      1.53      0.00
   -1   -8    8     -2.20      0.00
    0   -8    8      2.93      0.00
    1   -8    8     -0.43      0.00
    2   -8    8     -0.15      0.00
    3   -8    8     -2.70      0.00
    4   -8    8      2.06      0.00
    5   -8    8     -2.48      0.00
    6   -8    8     -0.73      0.00
    7   -8    8      0.12      0.00
    8   -8    8     -4.63      0.00
  -13   -7    8      0.11      0.00
  -12   -7    8     -1.01      0.00
  -11   -7    8      0.43      0.00
  -10   -7    8     -0.75      0.00
   -9   -7    8     -2.32      0.00
   -8   -7    8      3.11      0.00
   -7   -7    8      1.68      0.00
   -6   -7    8     -2.06      0.00
   -5   -7    8      2.83      0.00
   -4   -7    8     -2.41      0.00
   -3   -7    8     -0.24      0.00
   -2   -7    8     -0.21      0.00
   -1   -7    8     -1.38      0.00
    0   -7    8     -0.64      0.00
    1   -7    8      1.08      0.00
    2   -7    8     -1.88      0.00
    3   -7    8     -0.29      0.00
    4   -7    8     -0.95      0.00
    5   -7    8      0.90      0.00
    6   -7    8     -2.44      0.00
    7   -7    8      5.11      0.00
    8   -7    8     -1.26      0.00
  -13   -6    8     -5.67      0.00
  -12   -6    8      9.60      0.00
  -11   -6    8     -6.66      0.00
  -10   -6    8      5.72      0.00
   -9   -6    8     -1.65      0.00
   -8   -6    8     -0.92      0.00
   -7   -6    8      0.62      0.00
   -6   -6    8      1.65      0.00
   -5   -6    8     -0.99      0.00
   -4   -6    8      1.06      0.00
   -3   -6    8     -1.47      0.00
   -2   -6    8      1.69      0.00
   -1   -6    8     -1.33      0.00
    0   -6    8      2.22      0.00
    1   -6    8     -1.90      0.00
    2   -6    8      1.04      0.00
    3   -6    8      1.89      0.00
    4   -6    8     -3.32      0.00
    5   -6    8      2.05      0.00
    6   -6    8     -3.50      0.00
    7   -6    8     -1.67      0.00
    8   -6    8      1.05      0.00
    9   -6    8     -2.88      0.00
  -13   -5    8      5.29      0.00
  -12   -5    8    -11.11      0.00
  -11   -5    8      6.14      0.00
  -10   -5    8     -2.06      0.00
   -9   -5    8      1.20      0.00
   -8   -5    8     -0.58      0.00
   -7   -5    8      0.65      0.00
   -6   -5    8      1.62      0.00
   -5   -5    8     -2.04      0.00
   -4   -5    8      2.52      0.00
   -3   -5    8     -0.82      0.00
   -2   -5    8     -0.66      0.00
   -1   -5    8      1.09      0.00
    0   -5    8     -0.19      0.00
    1   -5    8     -1.38      0.00
    2   -5    8      1.31      0.00
    3   -5    8     -1.09      0.00
    4   -5    8      1.71      0.00
    5   -5    8     -0.13      0.00
    6   -5    8      0.34      0.00
    7   -5    8      1.78      0.00
    8   -5    8      0.61      0.00
    9   -5    8      1.19      0.00
   10   -5    8      2.91      0.00
  -13   -4    8     -1.42      0.00
  -12   -4    8      4.24      0.00
  -11   -4    8     -3.18      0.00
  -10   -4    8     -1.86      0.00
   -9   -4    8      3.25      0.00
   -8   -4    8     -1.53      0.00
   -7   -4    8      1.45      0.00
   -6   -4    8     -3.16      0.00
   -5   -4    8      2.04      0.00
   -4   -4    8     -1.84      0.00
   -3   -4    8     -1.46      0.00
   -2   -4    8     -0.21      0.00
   -1   -4    8     -1.73      0.00
    0   -4    8      0.13      0.00
    1   -4    8      0.26      0.00
    2   -4    8     -0.53      0.00
    3   -4    8     -0.49      0.00
    4   -4    8     -1.18      0.00
    5   -4    8      0.51      0.00
    6   -4    8      1.89      0.00
    7   -4    8     -6.14      0.00
    8   -4    8      1.43      0.00
    9   -4    8      0.69      0.00
   10   -4    8     -3.67      0.00
  -13   -3    8     -4.28      0.00
  -12   -3    8      2.99      0.00
  -11   -3    8     -0.09      0.00
  -10   -3    8      0.31      0.00
   -9   -3    8     -0.64      0.00
   -8   -3    8     -0.81      0.00
   -7   -3    8      0.78      0.00
   -6   -3    8      1.04      0.00
   -5   -3    8     -0.26      0.00
   -4   -3    8      0.05      0.00
   -3   -3    8      0.38      0.00
   -2   -3    8     -1.19      0.00
   -1   -3    8     -1.51      0.00
    0   -3    8      0.15      0.00
    1   -3    8     -0.45      0.00
    2   -3    8      3.17      0.00
    3   -3    8     -0.78      0.00
    4   -3    8     -0.22      0.00
    5   -3    8      2.37      0.00
    6   -3    8     -1.80      0.00
    7   -3    8      3.02      0.00
    8   -3    8      1.30      0.00
   10   -3    8      7.14      0.00
   11   -3    8      2.38      0.00
  -13   -2    8      0.99      0.00
  -12   -2    8     -0.75      0.00
  -11   -2    8     -0.47      0.00
  -10   -2    8     -1.80      0.00
   -9   -2    8      1.80      0.00
   -8   -2    8     -1.75      0.00
   -7   -2    8      1.63      0.00
   -6   -2    8     -3.77      0.00
   -5   -2    8      0.67      0.00
   -4   -2    8     -1.54      0.00
   -3   -2    8     -0.78      0.00
   -2   -2    8     -0.88      0.00
   -1   -2    8      1.39      0.00
    0   -2    8     -1.07      0.00
    1   -2    8     -4.16      0.00
    2   -2    8      1.62      0.00
    3   -2    8     -0.07      0.00
    4   -2    8     -2.81      0.00
    5   -2    8      3.64      0.00
    6   -2    8     -2.65      0.00
    7   -2    8     -0.31      0.00
    8   -2    8      1.74      0.00
    9   -2    8     -2.42      0.00
   10   -2    8     -3.05      0.00
   11   -2    8      2.06      0.00
  -12   -1    8      2.56      0.00
  -11   -1    8     -2.08      0.00
  -10   -1    8      4.53      0.00
   -9   -1    8     -2.01      0.00
   -8   -1    8     -1.10      0.00
   -7   -1    8      1.32      0.00
   -6   -1    8      0.69      0.00
   -5   -1    8     -0.65      0.00
   -4   -1    8     -0.17      0.00
   -3   -1    8     -1.14      0.00
   -2   -1    8     -0.73      0.00
   -1   -1    8     -3.61      0.00
    0   -1    8     -0.11      0.00
    1   -1    8     -2.39      0.00
    2   -1    8      2.46      0.00
    3   -1    8      0.36      0.00
    4   -1    8     -0.50      0.00
    5   -1    8      0.29      0.00
    6   -1    8      0.91      0.00
    7   -1    8     -1.18      0.00
    8   -1    8      0.24      0.00
    9   -1    8      1.56      0.00
   11   -1    8     -1.49      0.00
   12   -1    8      4.47      0.00
  -12    0    8     -0.07      0.00
  -11    0    8     -0.57      0.00
  -10    0    8     -0.13      0.00
   -9    0    8      1.34      0.00
   -8    0    8     -1.06      0.00
   -7    0    8     -0.72      0.00
   -6    0    8     -0.88      0.00
   -5    0    8     -0.17      0.00
   -4    0    8     -3.09      0.00
   -3    0    8      2.33      0.00
   -2    0    8     -3.17      0.00
   -1    0    8      2.73      0.00
    0    0    8      1.46      0.00
    1    0    8     -3.71      0.00
    2    0    8      0.36      0.00
    3    0    8     -0.76      0.00
    4    0    8     -1.16      0.00
    5    0    8      1.18      0.00
    6    0    8      0.85      0.00
    7    0    8     -2.46      0.00
    8    0    8      2.21      0.00
    9    0    8     -0.65      0.00
   10    0    8     -2.33      0.00
   11    0    8      2.50      0.00
   12    0    8     -2.23      0.00
  -12    1    8      0.12      0.00
  -11    1    8      1.92      0.00
  -10    1    8     -4.02      0.00
   -9    1    8      3.93      0.00
   -8    1    8     -0.60      0.00
   -7    1    8      0.01      0.00
   -6    1    8     -1.27      0.00
   -5    1    8      2.60      0.00
   -4    1    8     -1.44      0.00
   -3    1    8     -1.58      0.00
   -2    1    8     -1.87      0.00
   -1    1    8     -0.55      0.00
    0    1    8     -2.91      0.00
    1    1    8      1.36      0.00
    2    1    8     -2.71      0.00
    3    1    8     -1.53      0.00
    4    1    8      2.74      0.00
    5    1    8     -0.92      0.00
    6    1    8      0.43      0.00
    7    1    8     -0.43      0.00
    8    1    8      0.23      0.00
    9    1    8     -0.74      0.00
   10    1    8     -1.21      0.00
   11    1    8      1.32      0.00
   12    1    8     -3.18      0.00
   13    1    8      2.61      0.00
  -11    2    8      1.00      0.00
  -10    2    8      3.20      0.00
   -9    2    8     -3.63      0.00
   -8    2    8      2.06      0.00
   -7    2    8     -0.13      0.00
   -6    2    8     -0.61      0.00
   -5    2    8     -1.49      0.00
   -4    2    8      1.05      0.00
   -3    2    8     -0.57      0.00
   -2    2    8     -0.34      0.00
   -1    2    8     -3.24      0.00
    0    2    8      1.35      0.00
    1    2    8      0.04      0.00
    2    2    8      0.02      0.00
    3    2    8      1.85      0.00
    4    2    8     -3.46      0.00
    5    2    8     -0.85      0.00
    6    2    8     -1.57      0.00
    7    2    8      1.40      0.00
    8    2    8      0.93      0.00
    9    2    8     -2.27      0.00
   10    2    8      1.89      0.00
   11    2    8      0.61      0.00
   12    2    8     -2.13      0.00
   13    2    8      0.67      0.00
  -11    3    8      2.86      0.00
  -10    3    8     -2.08      0.00
   -9    3    8      2.13      0.00
   -8    3    8     -0.13      0.00
   -7    3    8     -1.95      0.00
   -6    3    8      1.27      0.00
   -5    3    8     -3.18      0.00
   -4    3    8      0.12      0.00
   -3    3    8      1.36      0.00
   -2    3    8      1.08      0.00
   -1    3    8     -2.30      0.00
    0    3    8      2.21      0.00
    1    3    8     -6.18      0.00
    2    3    8      3.34      0.00
    3    3    8     -2.82      0.00
    4    3    8     -1.29      0.00
    5    3    8      6.45      0.00
    6    3    8     -0.87      0.00
    7    3    8     -3.89      0.00
    8    3    8      2.12      0.00
    9    3    8      0.57      0.00
   10    3    8     -3.32      0.00
   11    3    8      3.47      0.00
   12    3    8     -3.04      0.00
   13    3    8      1.88      0.00
  -11    4    8     -6.13      0.00
  -10    4    8      5.33      0.00
   -9    4    8     -1.89      0.00
   -8    4    8      0.01      0.00
   -7    4    8      5.60      0.00
   -6    4    8     -2.79      0.00
   -5    4    8      1.49      0.00
   -4    4    8     -1.21      0.00
   -3    4    8     -2.55      0.00
   -2    4    8     -1.04      0.00
   -1    4    8      0.41      0.00
    0    4    8     -2.37      0.00
    1    4    8      2.26      0.00
    2    4    8     -3.99      0.00
    3    4    8      0.49      0.00
    4    4    8      0.45      0.00
    5    4    8     -5.47      0.00
    6    4    8      0.46      0.00
    7    4    8      2.30      0.00
    8    4    8     -0.68      0.00
    9    4    8     -1.89      0.00
   10    4    8     -0.86      0.00
   11    4    8      2.42      0.00
   12    4    8     -2.34      0.00
   13    4    8      2.97      0.00
  -10    5    8     -2.16      0.00
   -9    5    8      0.54      0.00
   -8    5    8     -2.20      0.00
   -7    5    8     -1.78      0.00
   -6    5    8      3.10      0.00
   -5    5    8     -2.74      0.00
   -4    5    8     -1.66      0.00
   -3    5    8      2.30      0.00
   -2    5    8     -0.77      0.00
   -1    5    8     -1.62      0.00
    0    5    8      4.27      0.00
    1    5    8     -4.39      0.00
    2    5    8      1.52      0.00
    3    5    8      1.51      0.00
    4    5    8     -3.28      0.00
    5    5    8      4.16      0.00
    6    5    8     -3.73      0.00
    7    5    8      1.83      0.00
    8    5    8     -0.99      0.00
    9    5    8      2.00      0.00
   10    5    8      0.30      0.00
   11    5    8     -0.89      0.00
   12    5    8     -2.28      0.00
   13    5    8      1.80      0.00
   -9    6    8      1.64      0.00
   -8    6    8      2.72      0.00
   -7    6    8     -6.11      0.00
   -6    6    8      5.50      0.00
   -5    6    8      0.68      0.00
   -4    6    8      0.15      0.00
   -3    6    8     -1.62      0.00
   -2    6    8      0.58      0.00
   -1    6    8     -4.37      0.00
    0    6    8      0.21      0.00
    1    6    8      0.17      0.00
    2    6    8     -2.88      0.00
    3    6    8     -0.77      0.00
    4    6    8     -0.47      0.00
    5    6    8     -3.04      0.00
    6    6    8      1.57      0.00
    7    6    8     -1.51      0.00
    8    6    8      0.72      0.00
    9    6    8     -1.34      0.00
   10    6    8      0.00      0.00
   11    6    8      2.92      0.00
   12    6    8     -2.85      0.00
   13    6    8      2.35      0.00
   14    6    8     -2.38      0.00
   -9    7    8      0.41      0.00
   -8    7    8      0.81      0.00
   -7    7    8      2.38      0.00
   -6    7    8     -5.00      0.00
   -5    7    8      1.46      0.00
   -4    7    8     -2.04      0.00
   -3    7    8      1.40      0.00
   -2    7    8      0.09      0.00
   -1    7    8     -1.47      0.00
    0    7    8      0.46      0.00
    1    7    8      1.46      0.00
    2    7    8     -2.35      0.00
    3    7    8     -0.70      0.00
    4    7    8      1.46      0.00
    5    7    8      0.11      0.00
    6    7    8     -3.01      0.00
    7    7    8      0.52      0.00
    8    7    8     -1.34      0.00
    9    7    8      1.21      0.00
   10    7    8     -1.30      0.00
   11    7    8      0.14      0.00
   12    7    8      1.67      0.00
   13    7    8     -1.92      0.00
   14    7    8      0.05      0.00
   -8    8    8      0.07      0.00
   -7    8    8      2.95      0.00
   -6    8    8     -3.04      0.00
   -5    8    8      2.28      0.00
   -4    8    8      1.07      0.00
   -3    8    8     -2.12      0.00
   -2    8    8      2.21      0.00
   -1    8    8     -0.66      0.00
    0    8    8     -1.90      0.00
    1    8    8     -2.87      0.00
    2    8    8      2.51      0.00
    3    8    8     -2.24      0.00
    4    8    8     -1.70      0.00
    5    8    8     -1.43      0.00
    6    8    8      1.57      0.00
    7    8    8     -0.53      0.00
    8    8    8     -2.19      0.00
    9    8    8      2.99      0.00
   10    8    8      0.11      0.00
   11    8    8     -0.57      0.00
   12    8    8      0.19      0.00
   13    8    8      1.81      0.00
   14    8    8     -0.50      0.00
   -7    9    8      1.54      0.00
   -6    9    8      2.98      0.00
   -5    9    8     -1.29      0.00
   -4    9    8     -0.23      0.00
   -3    9    8     -1.68      0.00
   -2    9    8      0.65      0.00
   -1    9    8      0.41      0.00
    0    9    8     -0.24      0.00
    1    9    8      0.11      0.00
    2    9    8     -0.20      0.00
    3    9    8     -1.69      0.00
    4    9    8      0.34      0.00
    5    9    8     -2.35      0.00
    6    9    8      1.15      0.00
    7    9    8     -0.83      0.00
    8    9    8     -0.28      0.00
    9    9    8     -1.47      0.00
   10    9    8     -1.79      0.00
   11    9    8      2.23      0.00
   12    9    8     -2.26      0.00
   13    9    8      1.70      0.00
   -6   10    8     -0.02      0.00
   -5   10    8     -1.72      0.00
   -4   10    8      4.78      0.00
   -3   10    8     -2.24      0.00
   -2   10    8      0.77      0.00
   -1   10    8     -0.66      0.00
    0   10    8      0.07      0.00
    1   10    8     -0.59      0.00
    2   10    8      0.65      0.00
    3   10    8     -1.61      0.00
    4   10    8      1.50      0.00
    5   10    8     -2.08      0.00
    6   10    8     -2.25      0.00
    7   10    8      1.06      0.00
    8   10    8     -1.14      0.00
    9   10    8      0.80      0.00
   10   10    8     -0.17      0.00
   11   10    8      1.83      0.00
   12   10    8      0.80      0.00
   13   10    8     -3.52      0.00
   -6   11    8     -0.51      0.00
   -5   11    8      2.08      0.00
   -4   11    8      0.52      0.00
   -3   11    8     -0.33      0.00
   -2   11    8     -0.03      0.00
   -1   11    8     -0.22      0.00
    0   11    8      3.46      0.00
    1   11    8     -5.00      0.00
    2   11    8      1.95      0.00
    3   11    8      0.13      0.00
    4   11    8      0.28      0.00
    5   11    8     -0.31      0.00
    6   11    8      1.21      0.00
    7   11    8     -2.26      0.00
    8   11    8      1.22      0.00
    9   11    8      1.46      0.00
   10   11    8      0.37      0.00
   11   11    8     -5.25      0.00
   12   11    8      3.80      0.00
   13   11    8      1.31      0.00
   -4   12    8      3.96      0.00
   -3   12    8     -2.26      0.00
   -2   12    8      5.33      0.00
   -1   12    8     -4.55      0.00
    0   12    8      0.91      0.00
    1   12    8      2.62      0.00
    2   12    8     -0.27      0.00
    3   12    8     -0.58      0.00
    4   12    8     -1.62      0.00
    5   12    8      1.57      0.00
    6   12    8     -1.59      0.00
    7   12    8      1.01      0.00
    8   12    8     -4.64      0.00
    9   12    8      2.75      0.00
   10   12    8     -3.99      0.00
   11   12    8      4.07      0.00
   12   12    8     -1.95      0.00
   13   12    8      0.67      0.00
   -3   13    8      3.26      0.00
   -2   13    8     -6.45      0.00
   -1   13    8      8.10      0.00
    0   13    8     -3.61      0.00
    1   13    8     -0.13      0.00
    2   13    8      0.83      0.00
    3   13    8      0.40      0.00
    4   13    8      0.69      0.00
    5   13    8     -1.18      0.00
    6   13    8      5.88      0.00
    7   13    8     -5.39      0.00
    8   13    8      5.74      0.00
    9   13    8     -2.87      0.00
   10   13    8      2.66      0.00
   11   13    8      3.25      0.00
   12   13    8     -6.19      0.00
   -2   14    8      2.53      0.00
   -1   14    8     -5.14      0.00
    0   14    8      6.70      0.00
    1   14    8     -2.73      0.00
    2   14    8      1.56      0.00
    3   14    8      0.30      0.00
    4   14    8      2.19      0.00
    5   14    8     -1.42      0.00
    6   14    8     -4.24      0.00
    7   14    8      8.07      0.00
    8   14    8     -6.92      0.00
    9   14    8      2.20      0.00
   10   14    8     -2.45      0.00
   11   14    8     -1.73      0.00
    0   15    8     -1.91      0.00
    1   15    8      1.31      0.00
    2   15    8      1.72      0.00
    3   15    8     -1.01      0.00
    4   15    8      1.00      0.00
    5   15    8      1.15      0.00
    6   15    8     -0.85      0.00
    7   15    8      1.93      0.00
    8   15    8      0.74      0.00
    9   15    8      1.21      0.00
   10   15    8     -0.24      0.00
    2   16    8     -2.22      0.00
    3   16    8      1.80      0.00
    4   16    8      1.64      0.00
    5   16    8      0.58      0.00
    6   16    8      4.58      0.00
    7   16    8     -9.57      0.00
    8   16    8      7.24      0.00
    9   16    8     -2.21      0.00
   -7  -15    9     -3.59      0.00
   -6  -15    9     10.20      0.00
   -5  -15    9    -11.65      0.00
   -4  -15    9     10.04      0.00
   -3  -15    9     -7.37      0.00
   -9  -14    9     -2.66      0.00
   -8  -14    9      5.15      0.00
   -7  -14    9     -1.54      0.00
   -6  -14    9     -1.49      0.00
   -5  -14    9     -0.14      0.00
   -4  -14    9     -1.25      0.00
   -3  -14    9     -3.60      0.00
   -2  -14    9      4.91      0.00
   -1  -14    9     -5.09      0.00
    0  -14    9      1.58      0.00
  -10  -13    9      4.71      0.00
   -9  -13    9     -2.02      0.00
   -8  -13    9     -3.45      0.00
   -7  -13    9      3.01      0.00
   -6  -13    9     -0.46      0.00
   -5  -13    9     -2.74      0.00
   -4  -13    9      2.73      0.00
   -3  -13    9      1.06      0.00
   -2  -13    9     -5.45      0.00
   -1  -13    9      3.91      0.00
    0  -13    9     -3.09      0.00
    1  -13    9      3.98      0.00
    2  -13    9     -3.86      0.00
  -11  -12    9      4.39      0.00
  -10  -12    9     -3.81      0.00
   -9  -12    9      5.40      0.00
   -8  -12    9     -0.37      0.00
   -7  -12    9     -1.02      0.00
   -6  -12    9      2.80      0.00
   -5  -12    9     -1.32      0.00
   -4  -12    9     -0.01      0.00
   -3  -12    9     -1.54      0.00
   -2  -12    9     -1.00      0.00
   -1  -12    9      2.78      0.00
    0  -12    9     -4.24      0.00
    1  -12    9     -0.85      0.00
    2  -12    9      7.80      0.00
    3  -12    9     -6.68      0.00
  -12  -11    9      1.57      0.00
  -11  -11    9      0.53      0.00
  -10  -11    9     -1.01      0.00
   -9  -11    9      0.42      0.00
   -8  -11    9     -0.96      0.00
   -7  -11    9     -0.03      0.00
   -6  -11    9     -0.06      0.00
   -5  -11    9     -3.93      0.00
   -4  -11    9      3.21      0.00
   -3  -11    9     -1.64      0.00
   -2  -11    9      0.33      0.00
   -1  -11    9     -1.76      0.00
    0  -11    9      2.60      0.00
    1  -11    9     -0.46      0.00
    2  -11    9     -2.30      0.00
    3  -11    9      3.71      0.00
    4  -11    9      1.19      0.00
    5  -11    9     -1.45      0.00
  -12  -10    9     -4.84      0.00
  -11  -10    9      0.17      0.00
  -10  -10    9      1.06      0.00
   -9  -10    9      0.84      0.00
   -8  -10    9     -2.29      0.00
   -7  -10    9      2.58      0.00
   -6  -10    9      2.31      0.00
   -5  -10    9     -0.38      0.00
   -4  -10    9     -0.53      0.00
   -3  -10    9      0.40      0.00
   -2  -10    9      0.00      0.00
   -1  -10    9      2.30      0.00
    0  -10    9     -2.54      0.00
    1  -10    9      0.67      0.00
    2  -10    9      3.66      0.00
    3  -10    9     -3.83      0.00
    4  -10    9      2.74      0.00
    5  -10    9      1.93      0.00
    6  -10    9     -3.85      0.00
  -12   -9    9      0.86      0.00
  -11   -9    9      0.17      0.00
  -10   -9    9     -3.34      0.00
   -9   -9    9      2.85      0.00
   -8   -9    9     -0.99      0.00
   -7   -9    9     -0.56      0.00
   -6   -9    9     -2.86      0.00
   -5   -9    9      0.26      0.00
   -4   -9    9      0.08      0.00
   -3   -9    9     -1.94      0.00
   -2   -9    9     -0.20      0.00
   -1   -9    9     -2.01      0.00
    0   -9    9      1.58      0.00
    1   -9    9     -0.34      0.00
    2   -9    9      0.27      0.00
    3   -9    9      1.25      0.00
    4   -9    9     -1.87      0.00
    5   -9    9      3.94      0.00
    6   -9    9      0.57      0.00
    7   -9    9     -0.06      0.00
  -13   -8    9     -2.11      0.00
  -12   -8    9      1.11      0.00
  -11   -8    9      3.53      0.00
  -10   -8    9     -3.02      0.00
   -9   -8    9      0.62      0.00
   -8   -8    9     -3.07      0.00
   -7   -8    9      1.08      0.00
   -6   -8    9      2.13      0.00
   -5   -8    9     -1.13      0.00
   -4   -8    9      2.01      0.00
   -3   -8    9     -0.03      0.00
   -2   -8    9     -1.47      0.00
   -1   -8    9      4.43      0.00
    0   -8    9     -1.16      0.00
    1   -8    9     -0.32      0.00
    2   -8    9      2.02      0.00
    3   -8    9      2.48      0.00
    4   -8    9     -0.49      0.00
    5   -8    9     -2.49      0.00
    6   -8    9      3.17      0.00
    7   -8    9     -4.15      0.00
  -13   -7    9      4.17      0.00
  -12   -7    9     -7.31      0.00
  -11   -7    9      1.46      0.00
  -10   -7    9     -0.41      0.00
   -9   -7    9      0.30      0.00
   -8   -7    9      0.28      0.00
   -7   -7    9     -2.36      0.00
   -6   -7    9     -0.69      0.00
   -5   -7    9     -0.63      0.00
   -4   -7    9     -1.17      0.00
   -3   -7    9      1.83      0.00
   -2   -7    9     -3.15      0.00
   -1   -7    9      0.06      0.00
    0   -7    9     -0.31      0.00
    1   -7    9     -1.35      0.00
    2   -7    9      0.76      0.00
    3   -7    9     -1.94      0.00
    4   -7    9      4.37      0.00
    5   -7    9     -1.66      0.00
    6   -7    9      4.05      0.00
    7   -7    9     -2.01      0.00
    8   -7    9     -0.10      0.00
  -13   -6    9      4.43      0.00
  -12   -6    9     -2.20      0.00
  -11   -6    9      3.92      0.00
  -10   -6    9     -2.65      0.00
   -9   -6    9     -0.98      0.00
   -8   -6    9      1.91      0.00
   -7   -6    9     -0.69      0.00
   -6   -6    9     -3.52      0.00
   -5   -6    9      2.05      0.00
   -4   -6    9     -1.62      0.00
   -3   -6    9      1.01      0.00
   -2   -6    9      0.37      0.00
   -1   -6    9      0.69      0.00
    0   -6    9     -1.02      0.00
    1   -6    9      2.91      0.00
    2   -6    9     -0.42      0.00
    3   -6    9     -0.74      0.00
    4   -6    9      1.64      0.00
    5   -6    9     -2.12      0.00
    6   -6    9      1.36      0.00
    7   -6    9      0.22      0.00
    8   -6    9     -3.38      0.00
    9   -6    9     -1.33      0.00
  -13   -5    9     -8.46      0.00
  -12   -5    9     12.24      0.00
  -11   -5    9    -10.48      0.00
  -10   -5    9      4.22      0.00
   -9   -5    9     -2.51      0.00
   -8   -5    9     -2.14      0.00
   -7   -5    9      1.63      0.00
   -6   -5    9      0.27      0.00
   -5   -5    9      0.60      0.00
   -4   -5    9     -1.43      0.00
   -3   -5    9      0.82      0.00
   -2   -5    9      0.50      0.00
   -1   -5    9     -1.07      0.00
    0   -5    9      0.60      0.00
    1   -5    9     -0.55      0.00
    2   -5    9     -0.50      0.00
    3   -5    9      2.04      0.00
    4   -5    9     -1.97      0.00
    5   -5    9      3.02      0.00
    6   -5    9     -2.24      0.00
    7   -5    9      3.02      0.00
    8   -5    9      2.62      0.00
    9   -5    9     -0.25      0.00
   10   -5    9     -0.67      0.00
  -13   -4    9      5.31      0.00
  -12   -4    9     -7.79      0.00
  -11   -4    9      5.84      0.00
  -10   -4    9      1.78      0.00
   -9   -4    9     -2.78      0.00
   -8   -4    9      1.75      0.00
   -7   -4    9     -3.26      0.00
   -6   -4    9      1.09      0.00
   -5   -4    9     -3.63      0.00
   -4   -4    9      1.93      0.00
   -3   -4    9     -0.96      0.00
   -2   -4    9     -0.79      0.00
   -1   -4    9      2.43      0.00
    0   -4    9     -1.59      0.00
    1   -4    9     -0.87      0.00
    2   -4    9      0.39      0.00
    3   -4    9     -2.01      0.00
    4   -4    9      2.61      0.00
    5   -4    9     -1.85      0.00
    6   -4    9     -1.93      0.00
    7   -4    9      2.34      0.00
    8   -4    9     -3.90      0.00
    9   -4    9     -1.95      0.00
   10   -4    9      0.50      0.00
  -13   -3    9      0.97      0.00
  -12   -3    9      3.25      0.00
  -11   -3    9     -5.43      0.00
  -10   -3    9      2.86      0.00
   -9   -3    9     -0.83      0.00
   -8   -3    9      0.22      0.00
   -7   -3    9      0.56      0.00
   -6   -3    9     -0.97      0.00
   -5   -3    9      1.94      0.00
   -4   -3    9      0.05      0.00
   -3   -3    9      0.30      0.00
   -2   -3    9      1.69      0.00
   -1   -3    9     -0.87      0.00
    0   -3    9      1.91      0.00
    1   -3    9      1.38      0.00
    2   -3    9     -1.38      0.00
    3   -3    9      0.24      0.00
    4   -3    9      0.99      0.00
    5   -3    9     -0.82      0.00
    6   -3    9      2.31      0.00
    7   -3    9     -1.97      0.00
    8   -3    9      1.75      0.00
    9   -3    9      5.32      0.00
   10   -3    9     -3.19      0.00
   11   -3    9     -1.43      0.00
  -12   -2    9     -0.60      0.00
  -11   -2    9      1.51      0.00
  -10   -2    9     -0.10      0.00
   -9   -2    9     -2.35      0.00
   -8   -2    9      1.72      0.00
   -7   -2    9     -2.62      0.00
   -6   -2    9      1.97      0.00
   -5   -2    9     -2.44      0.00
   -4   -2    9      0.70      0.00
   -3   -2    9      0.41      0.00
   -2   -2    9     -0.88      0.00
   -1   -2    9      1.78      0.00
    0   -2    9     -2.40      0.00
    1   -2    9      2.65      0.00
    2   -2    9      0.14      0.00
    3   -2    9     -3.67      0.00
    4   -2    9      1.36      0.00
    5   -2    9     -0.46      0.00
    6   -2    9     -2.06      0.00
    7   -2    9      2.09      0.00
    8   -2    9     -1.99      0.00
    9   -2    9     -3.34      0.00
   10   -2    9      4.58      0.00
   11   -2    9     -2.62      0.00
  -12   -1    9     -0.36      0.00
  -11   -1    9      0.00      0.00
  -10   -1    9     -1.02      0.00
   -9   -1    9      2.45      0.00
   -8   -1    9     -0.26      0.00
   -7   -1    9      1.26      0.00
   -6   -1    9     -1.38      0.00
   -5   -1    9      1.01      0.00
   -4   -1    9      0.25      0.00
   -3   -1    9      2.03      0.00
   -2   -1    9     -1.19      0.00
   -1   -1    9      2.44      0.00
    0   -1    9      0.89      0.00
    1   -1    9     -1.67      0.00
    2   -1    9      1.60      0.00
    3   -1    9      0.53      0.00
    4   -1    9     -1.35      0.00
    5   -1    9      2.26      0.00
    6   -1    9     -1.17      0.00
    7   -1    9      0.37      0.00
    8   -1    9      0.76      0.00
    9   -1    9     -0.87      0.00
   10   -1    9      0.03      0.00
   11   -1    9      2.45      0.00
   12   -1    9     -0.64      0.00
  -12    0    9      1.67      0.00
  -11    0    9     -4.03      0.00
  -10    0    9      3.52      0.00
   -9    0    9     -5.23      0.00
   -8    0    9      0.54      0.00
   -7    0    9     -0.28      0.00
   -6    0    9      1.51      0.00
   -5    0    9     -1.60      0.00
   -4    0    9      1.61      0.00
   -3    0    9     -2.13      0.00
   -2    0    9      4.32      0.00
   -1    0    9     -2.36      0.00
    0    0    9      1.22      0.00
    1    0    9      1.55      0.00
    2    0    9      0.18      0.00
    3    0    9      0.90      0.00
    4    0    9     -0.85      0.00
    5    0    9     -2.20      0.00
    6    0    9     -0.42      0.00
    7    0    9      2.58      0.00
    8    0    9     -1.77      0.00
    9    0    9      0.93      0.00
   10    0    9      2.16      0.00
   11    0    9     -3.17      0.00
   12    0    9      2.44      0.00
  -12    1    9      0.12      0.00
  -11    1    9     -0.49      0.00
  -10    1    9      0.92      0.00
   -9    1    9      0.99      0.00
   -8    1    9     -1.12      0.00
   -7    1    9      0.10      0.00
   -6    1    9      1.15      0.00
   -5    1    9     -1.87      0.00
   -4    1    9      1.79      0.00
   -3    1    9      1.45      0.00
   -2    1    9     -1.50      0.00
   -1    1    9      2.27      0.00
    0    1    9      1.64      0.00
    1    1    9     -2.93      0.00
    2    1    9      1.82      0.00
    3    1    9      0.44      0.00
    4    1    9     -0.72      0.00
    5    1    9      1.93      0.00
    6    1    9      0.47      0.00
    7    1    9     -1.88      0.00
    8    1    9      1.13      0.00
    9    1    9     -0.91      0.00
   10    1    9     -0.50      0.00
   11    1    9     -0.11      0.00
   12    1    9      1.87      0.00
  -11    2    9     -0.78      0.00
  -10    2    9     -4.19      0.00
   -9    2    9      3.88      0.00
   -8    2    9     -3.13      0.00
   -7    2    9      1.61      0.00
   -6    2    9     -1.71      0.00
   -5    2    9      2.15      0.00
   -4    2    9     -0.94      0.00
   -3    2    9     -1.52      0.00
   -2    2    9      1.91      0.00
   -1    2    9      1.44      0.00
    0    2    9     -0.99      0.00
    1    2    9      2.22      0.00
    2    2    9      0.84      0.00
    3    2    9     -2.91      0.00
    4    2    9      2.53      0.00
    5    2    9     -1.08      0.00
    6    2    9     -1.13      0.00
    7    2    9      0.88      0.00
    8    2    9     -0.58      0.00
    9    2    9      1.85      0.00
   10    2    9      0.13      0.00
   11    2    9     -0.47      0.00
   12    2    9      1.37      0.00
   13    2    9     -0.81      0.00
  -11    3    9     -1.20      0.00
  -10    3    9     -0.29      0.00
   -9    3    9     -3.18      0.00
   -8    3    9      1.29      0.00
   -7    3    9     -1.67      0.00
   -6    3    9      0.35      0.00
   -5    3    9      0.41      0.00
   -4    3    9      1.48      0.00
   -3    3    9     -0.41      0.00
   -2    3    9     -1.30      0.00
   -1    3    9      2.23      0.00
    0    3    9      1.81      0.00
    1    3    9     -0.97      0.00
    2    3    9      1.63      0.00
    3    3    9      2.60      0.00
    4    3    9      0.14      0.00
    5    3    9     -1.93      0.00
    6    3    9      1.23      0.00
    7    3    9      1.80      0.00
    8    3    9     -0.43      0.00
    9    3    9     -1.43      0.00
   10    3    9      3.04      0.00
   11    3    9     -3.30      0.00
   12    3    9      1.33      0.00
   13    3    9     -0.83      0.00
  -10    4    9     -0.92      0.00
   -9    4    9      0.60      0.00
   -8    4    9      0.25      0.00
   -7    4    9     -1.75      0.00
   -6    4    9      0.82      0.00
   -5    4    9     -1.72      0.00
   -4    4    9      1.96      0.00
   -3    4    9      1.31      0.00
   -2    4    9     -0.27      0.00
   -1    4    9     -1.63      0.00
    0    4    9      0.74      0.00
    1    4    9     -1.59      0.00
    2    4    9      3.36      0.00
    3    4    9     -3.41      0.00
    4    4    9      0.30      0.00
    5    4    9      2.54      0.00
    6    4    9      0.50      0.00
    7    4    9     -4.35      0.00
    8    4    9      0.32      0.00
    9    4    9      2.34      0.00
   10    4    9     -0.88      0.00
   11    4    9     -0.24      0.00
   12    4    9      2.95      0.00
   13    4    9     -3.06      0.00
  -10    5    9      0.81      0.00
   -9    5    9     -0.99      0.00
   -8    5    9     -3.02      0.00
   -7    5    9      5.13      0.00
   -6    5    9     -6.74      0.00
   -5    5    9      2.03      0.00
   -4    5    9     -0.01      0.00
   -3    5    9     -1.12      0.00
   -2    5    9      0.23      0.00
   -1    5    9      3.81      0.00
    0    5    9     -0.76      0.00
    1    5    9      2.31      0.00
    2    5    9      0.90      0.00
    3    5    9      0.87      0.00
    4    5    9      2.55      0.00
    5    5    9     -2.11      0.00
    6    5    9      2.68      0.00
    7    5    9      0.81      0.00
    8    5    9      0.92      0.00
    9    5    9     -2.01      0.00
   10    5    9     -0.97      0.00
   11    5    9      1.13      0.00
   12    5    9      0.56      0.00
   13    5    9      0.16      0.00
   -9    6    9     -0.18      0.00
   -8    6    9     -0.85      0.00
   -7    6    9      2.07      0.00
   -6    6    9      1.33      0.00
   -5    6    9     -3.00      0.00
   -4    6    9      0.25      0.00
   -3    6    9      2.84      0.00
   -2    6    9     -2.42      0.00
   -1    6    9      2.24      0.00
    0    6    9     -1.19      0.00
    1    6    9     -2.26      0.00
    2    6    9      2.60      0.00
    3    6    9     -0.20      0.00
    4    6    9     -1.09      0.00
    5    6    9      2.87      0.00
    6    6    9     -1.58      0.00
    7    6    9     -0.34      0.00
    8    6    9      0.51      0.00
    9    6    9      1.59      0.00
   10    6    9      0.70      0.00
   11    6    9     -2.30      0.00
   12    6    9      0.49      0.00
   13    6    9     -0.09      0.00
   -9    7    9      0.57      0.00
   -8    7    9     -3.00      0.00
   -7    7    9     -4.45      0.00
   -6    7    9      4.26      0.00
   -5    7    9      0.35      0.00
   -4    7    9     -2.20      0.00
   -3    7    9     -1.26      0.00
   -2    7    9      0.55      0.00
   -1    7    9      0.46      0.00
    0    7    9      1.30      0.00
    1    7    9      1.83      0.00
    2    7    9      0.24      0.00
    3    7    9      2.64      0.00
    4    7    9     -0.25      0.00
    5    7    9     -0.89      0.00
    6    7    9      3.67      0.00
    7    7    9     -0.95      0.00
    8    7    9      1.33      0.00
    9    7    9     -3.48      0.00
   10    7    9      0.48      0.00
   11    7    9      1.10      0.00
   12    7    9     -2.77      0.00
   13    7    9      1.36      0.00
   -8    8    9      2.91      0.00
   -7    8    9     -0.72      0.00
   -6    8    9     -3.68      0.00
   -5    8    9      1.78      0.00
   -4    8    9     -0.82      0.00
   -3    8    9      2.58      0.00
   -2    8    9     -1.76      0.00
   -1    8    9     -0.26      0.00
    0    8    9      0.24      0.00
    1    8    9      2.65      0.00
    2    8    9     -3.45      0.00
    3    8    9      1.55      0.00
    4    8    9      1.80      0.00
    5    8    9      2.26      0.00
    6    8    9     -2.43      0.00
    7    8    9      0.10      0.00
    8    8    9      3.81      0.00
    9    8    9     -0.81      0.00
   10    8    9     -0.18      0.00
   11    8    9      1.41      0.00
   12    8    9      1.77      0.00
   13    8    9     -3.35      0.00
   -7    9    9      1.62      0.00
   -6    9    9     -3.89      0.00
   -5    9    9      3.06      0.00
   -4    9    9     -3.33      0.00
   -3    9    9      1.75      0.00
   -2    9    9      0.09      0.00
   -1    9    9     -0.98      0.00
    0    9    9     -0.45      0.00
    1    9    9      0.65      0.00
    2    9    9      0.56      0.00
    3    9    9      1.87      0.00
    4    9    9     -0.32      0.00
    5    9    9      0.81      0.00
    6    9    9      2.27      0.00
    7    9    9     -1.33      0.00
    8    9    9     -0.91      0.00
    9    9    9      1.43      0.00
   10    9    9      0.56      0.00
   11    9    9     -4.04      0.00
   12    9    9     -0.23      0.00
   13    9    9      2.14      0.00
   -6   10    9     -1.56      0.00
   -5   10    9      1.88      0.00
   -4   10    9     -4.50      0.00
   -3   10    9      0.86      0.00
   -2   10    9     -0.56      0.00
   -1   10    9      2.97      0.00
    0   10    9     -3.30      0.00
    1   10    9      3.20      0.00
    2   10    9     -1.37      0.00
    3   10    9      0.34      0.00
    4   10    9     -1.34      0.00
    5   10    9      1.54      0.00
    6   10    9      1.09      0.00
    7   10    9     -0.27      0.00
    8   10    9      1.68      0.00
    9   10    9     -2.46      0.00
   10   10    9      0.40      0.00
   11   10    9      2.37      0.00
   12   10    9     -0.90      0.00
   13   10    9      0.34      0.00
   -5   11    9     -1.01      0.00
   -4   11    9      0.99      0.00
   -3   11    9      0.82      0.00
   -2   11    9     -3.25      0.00
   -1   11    9      1.86      0.00
    0   11    9     -3.58      0.00
    1   11    9      3.49      0.00
    2   11    9     -1.38      0.00
    3   11    9     -0.49      0.00
    4   11    9      2.31      0.00
    5   11    9     -0.15      0.00
    6   11    9     -1.40      0.00
    7   11    9      4.06      0.00
    8   11    9     -0.71      0.00
    9   11    9     -0.15      0.00
   10   11    9     -0.27      0.00
   11   11    9      3.66      0.00
   12   11    9     -3.63      0.00
   13   11    9     -1.93      0.00
   -4   12    9     -1.44      0.00
   -3   12    9     -1.93      0.00
   -2   12    9      1.28      0.00
   -1   12    9     -0.96      0.00
    0   12    9      2.29      0.00
    1   12    9     -3.51      0.00
    2   12    9      0.54      0.00
    3   12    9      1.03      0.00
    4   12    9     -0.63      0.00
    5   12    9     -1.04      0.00
    6   12    9     -0.65      0.00
    7   12    9     -2.56      0.00
    8   12    9      2.09      0.00
    9   12    9     -2.04      0.00
   10   12    9      2.44      0.00
   11   12    9     -8.68      0.00
   12   12    9      6.84      0.00
   -3   13    9     -2.96      0.00
   -2   13    9      2.06      0.00
   -1   13    9     -2.45      0.00
    0   13    9     -2.83      0.00
    1   13    9      3.94      0.00
    2   13    9     -2.78      0.00
    3   13    9     -0.30      0.00
    4   13    9     -0.22      0.00
    5   13    9      1.73      0.00
    6   13    9     -2.24      0.00
    7   13    9      5.54      0.00
    8   13    9     -4.46      0.00
    9   13    9      4.35      0.00
   10   13    9     -1.52      0.00
   11   13    9      2.88      0.00
   12   13    9     -1.00      0.00
   -2   14    9     -3.04      0.00
   -1   14    9      6.91      0.00
    0   14    9     -5.20      0.00
    1   14    9      1.30      0.00
    2   14    9     -1.34      0.00
    3   14    9      1.12      0.00
    4   14    9     -3.39      0.00
    5   14    9      0.17      0.00
    6   14    9      4.86      0.00
    7   14    9    -12.08      0.00
    8   14    9      6.97      0.00
    9   14    9     -4.64      0.00
   10   14    9     -0.24      0.00
   11   14    9      2.59      0.00
    0   15    9      6.56      0.00
    1   15    9     -3.91      0.00
    2   15    9     -0.99      0.00
    3   15    9     -0.07      0.00
    4   15    9      0.53      0.00
    5   15    9     -1.86      0.00
    6   15    9     -3.68      0.00
    7   15    9      9.68      0.00
    8   15    9     -7.54      0.00
    9   15    9      2.81      0.00
   10   15    9      0.57      0.00
    3   16    9     -0.45      0.00
    4   16    9     -2.30      0.00
    5   16    9      0.85      0.00
    6   16    9     -2.95      0.00
    7   16    9      1.01      0.00
    8   16    9      0.23      0.00
   -5  -15   10      9.62      0.00
   -8  -14   10     -0.95      0.00
   -7  -14   10     -1.67      0.00
   -6  -14   10      5.27      0.00
   -5  -14   10     -3.64      0.00
   -4  -14   10      1.06      0.00
   -3  -14   10      1.23      0.00
   -2  -14   10     -3.34      0.00
   -1  -14   10      7.31      0.00
  -10  -13   10     -0.92      0.00
   -9  -13   10     -1.75      0.00
   -8  -13   10      2.19      0.00
   -7  -13   10     -1.51      0.00
   -6  -13   10     -2.75      0.00
   -5  -13   10      4.16      0.00
   -4  -13   10      0.52      0.00
   -3  -13   10     -3.49      0.00
   -2  -13   10     10.76      0.00
   -1  -13   10     -9.22      0.00
    0  -13   10      9.09      0.00
    1  -13   10     -4.40      0.00
  -11  -12   10     -2.53      0.00
  -10  -12   10      2.43      0.00
   -9  -12   10     -3.96      0.00
   -8  -12   10      0.44      0.00
   -7  -12   10      3.52      0.00
   -6  -12   10     -1.90      0.00
   -5  -12   10      0.64      0.00
   -4  -12   10      1.73      0.00
   -3  -12   10     -0.57      0.00
   -2  -12   10     -1.96      0.00
   -1  -12   10      2.25      0.00
    0  -12   10     -3.11      0.00
    1  -12   10      6.99      0.00
    2  -12   10     -8.52      0.00
    3  -12   10      5.32      0.00
  -11  -11   10     -2.71      0.00
  -10  -11   10      3.78      0.00
   -9  -11   10     -1.91      0.00
   -8  -11   10     -0.96      0.00
   -7  -11   10     -1.72      0.00
   -6  -11   10     -0.26      0.00
   -5  -11   10      0.19      0.00
   -4  -11   10     -1.12      0.00
   -3  -11   10      2.21      0.00
   -2  -11   10      0.08      0.00
   -1  -11   10      1.00      0.00
    0  -11   10     -0.42      0.00
    1  -11   10     -0.86      0.00
    2  -11   10      4.67      0.00
    3  -11   10     -5.42      0.00
    4  -11   10      2.22      0.00
  -12  -10   10      3.47      0.00
  -11  -10   10      2.57      0.00
  -10  -10   10     -4.74      0.00
   -9  -10   10      0.62      0.00
   -8  -10   10      2.61      0.00
   -7  -10   10     -2.34      0.00
   -6  -10   10      0.83      0.00
   -5  -10   10      0.43      0.00
   -4  -10   10      2.41      0.00
   -3  -10   10     -1.32      0.00
   -2  -10   10      2.33      0.00
   -1  -10   10     -1.95      0.00
    0  -10   10      1.19      0.00
    1  -10   10     -0.02      0.00
    2  -10   10     -2.92      0.00
    3  -10   10      2.61      0.00
    4  -10   10     -1.09      0.00
    5  -10   10     -1.57      0.00
  -12   -9   10     -4.86      0.00
  -11   -9   10     -3.47      0.00
  -10   -9   10      7.65      0.00
   -9   -9   10     -4.56      0.00
   -8   -9   10     -0.07      0.00
   -7   -9   10      0.90      0.00
   -6   -9   10      0.84      0.00
   -5   -9   10     -2.64      0.00
   -4   -9   10     -1.85      0.00
   -3   -9   10      0.37      0.00
   -2   -9   10     -0.31      0.00
   -1   -9   10      1.60      0.00
    0   -9   10     -3.53      0.00
    1   -9   10      1.53      0.00
    2   -9   10     -0.54      0.00
    3   -9   10     -2.13      0.00
    4   -9   10      1.62      0.00
    5   -9   10      0.28      0.00
    6   -9   10     -3.02      0.00
  -12   -8   10      4.54      0.00
  -11   -8   10      0.05      0.00
  -10   -8   10     -3.01      0.00
   -9   -8   10      3.40      0.00
   -8   -8   10      1.72      0.00
   -7   -8   10     -2.36      0.00
   -6   -8   10     -0.55      0.00
   -5   -8   10      1.97      0.00
   -4   -8   10      2.07      0.00
   -3   -8   10     -1.20      0.00
   -2   -8   10      3.49      0.00
   -1   -8   10     -1.92      0.00
    0   -8   10      1.67      0.00
    1   -8   10      1.33      0.00
    2   -8   10     -1.68      0.00
    3   -8   10     -0.01      0.00
    4   -8   10     -3.72      0.00
    5   -8   10      5.03      0.00
    6   -8   10     -4.74      0.00
    7   -8   10      1.10      0.00
  -13   -7   10     -5.45      0.00
  -12   -7   10      4.18      0.00
  -11   -7   10     -2.44      0.00
  -10   -7   10     -0.53      0.00
   -9   -7   10      0.95      0.00
   -8   -7   10     -2.52      0.00
   -7   -7   10      2.91      0.00
   -6   -7   10      3.20      0.00
   -5   -7   10     -2.53      0.00
   -4   -7   10     -0.21      0.00
   -3   -7   10     -2.26      0.00
   -2   -7   10      0.55      0.00
   -1   -7   10     -1.00      0.00
    0   -7   10     -0.51      0.00
    1   -7   10     -1.59      0.00
    2   -7   10     -0.45      0.00
    3   -7   10      2.01      0.00
    4   -7   10     -4.29      0.00
    5   -7   10      1.13      0.00
    6   -7   10      0.04      0.00
    7   -7   10      1.32      0.00
    8   -7   10      3.05      0.00
  -13   -6   10      5.06      0.00
  -12   -6   10     -6.79      0.00
  -11   -6   10      6.49      0.00
  -10   -6   10      0.10      0.00
   -9   -6   10      2.14      0.00
   -8   -6   10      0.94      0.00
   -7   -6   10     -2.17      0.00
   -6   -6   10      0.93      0.00
   -5   -6   10      0.07      0.00
   -4   -6   10      1.21      0.00
   -3   -6   10      1.58      0.00
   -2   -6   10     -2.07      0.00
   -1   -6   10      2.92      0.00
    0   -6   10      0.56      0.00
    1   -6   10     -1.52      0.00
    2   -6   10      1.51      0.00
    3   -6   10     -1.22      0.00
    4   -6   10      1.27      0.00
    5   -6   10     -0.97      0.00
    6   -6   10     -1.61      0.00
    7   -6   10     -2.84      0.00
    8   -6   10     -0.03      0.00
    9   -6   10      2.05      0.00
  -13   -5   10      7.69      0.00
  -12   -5   10    -11.03      0.00
  -11   -5   10      7.12      0.00
  -10   -5   10     -5.59      0.00
   -9   -5   10      0.83      0.00
   -8   -5   10      3.43      0.00
   -7   -5   10      0.05      0.00
   -6   -5   10     -0.56      0.00
   -5   -5   10      2.82      0.00
   -4   -5   10     -0.47      0.00
   -3   -5   10      0.64      0.00
   -2   -5   10     -0.16      0.00
   -1   -5   10     -0.79      0.00
    0   -5   10     -0.53      0.00
    1   -5   10      1.46      0.00
    2   -5   10     -0.89      0.00
    3   -5   10     -1.66      0.00
    4   -5   10      1.11      0.00
    5   -5   10     -2.55      0.00
    6   -5   10      5.42      0.00
    7   -5   10     -1.19      0.00
    8   -5   10     -0.48      0.00
    9   -5   10      2.62      0.00
  -13   -4   10     -4.70      0.00
  -12   -4   10      7.37      0.00
  -11   -4   10     -3.84      0.00
  -10   -4   10      0.00      0.00
   -9   -4   10      3.12      0.00
   -8   -4   10     -2.27      0.00
   -7   -4   10      3.69      0.00
   -6   -4   10     -1.31      0.00
   -5   -4   10      1.02      0.00
   -4   -4   10     -2.45      0.00
   -3   -4   10      1.00      0.00
   -2   -4   10     -0.19      0.00
   -1   -4   10     -0.98      0.00
    0   -4   10      0.20      0.00
    1   -4   10      0.21      0.00
    2   -4   10     -0.30      0.00
    3   -4   10      2.06      0.00
    4   -4   10     -2.55      0.00
    5   -4   10      0.89      0.00
    6   -4   10     -2.31      0.00
    7   -4   10     -0.47      0.00
    8   -4   10      0.46      0.00
    9   -4   10     -3.08      0.00
   10   -4   10     -1.78      0.00
  -12   -3   10     -7.76      0.00
  -11   -3   10      8.33      0.00
  -10   -3   10     -4.19      0.00
   -9   -3   10      0.84      0.00
   -8   -3   10      0.75      0.00
   -7   -3   10     -0.17      0.00
   -6   -3   10      1.47      0.00
   -5   -3   10      1.46      0.00
   -4   -3   10      1.01      0.00
   -3   -3   10      0.49      0.00
   -2   -3   10     -0.39      0.00
   -1   -3   10      2.67      0.00
    0   -3   10     -1.57      0.00
    1   -3   10      0.16      0.00
    2   -3   10      0.66      0.00
    3   -3   10      0.19      0.00
    4   -3   10      1.63      0.00
    5   -3   10     -1.09      0.00
    6   -3   10      0.21      0.00
    7   -3   10      2.81      0.00
    8   -3   10     -0.99      0.00
    9   -3   10      0.79      0.00
   10   -3   10      2.93      0.00
   11   -3   10      1.91      0.00
  -12   -2   10      2.63      0.00
  -11   -2   10     -6.07      0.00
  -10   -2   10      3.75      0.00
   -9   -2   10     -1.28      0.00
   -8   -2   10     -0.20      0.00
   -7   -2   10      2.25      0.00
   -6   -2   10     -2.71      0.00
   -5   -2   10      1.75      0.00
   -4   -2   10     -0.38      0.00
   -3   -2   10     -2.42      0.00
   -2   -2   10      1.83      0.00
   -1   -2   10     -3.63      0.00
    0   -2   10      2.07      0.00
    1   -2   10     -0.59      0.00
    2   -2   10     -2.04      0.00
    3   -2   10      1.27      0.00
    4   -2   10      0.63      0.00
    5   -2   10     -1.65      0.00
    6   -2   10      1.71      0.00
    7   -2   10     -2.51      0.00
    8   -2   10      0.87      0.00
   10   -2   10     -5.02      0.00
   11   -2   10     -1.75      0.00
  -12   -1   10     -2.75      0.00
  -11   -1   10      6.59      0.00
  -10   -1   10     -1.66      0.00
   -9   -1   10     -0.44      0.00
   -8   -1   10      1.78      0.00
   -7   -1   10     -0.25      0.00
   -6   -1   10      0.93      0.00
   -5   -1   10      1.71      0.00
   -4   -1   10     -0.93      0.00
   -3   -1   10      1.93      0.00
   -2   -1   10     -2.20      0.00
   -1   -1   10      3.17      0.00
    0   -1   10     -4.53      0.00
    1   -1   10      4.39      0.00
    2   -1   10      0.22      0.00
    3   -1   10     -1.76      0.00
    4   -1   10      2.21      0.00
    5   -1   10      0.66      0.00
    6   -1   10     -1.52      0.00
    7   -1   10      0.64      0.00
    8   -1   10     -0.19      0.00
    9   -1   10     -0.16      0.00
   10   -1   10      2.98      0.00
   11   -1   10      0.00      0.00
   12   -1   10     -3.38      0.00
  -12    0   10     -2.03      0.00
  -11    0   10     -0.65      0.00
  -10    0   10     -0.94      0.00
   -9    0   10      2.04      0.00
   -8    0   10     -1.24      0.00
   -7    0   10      1.11      0.00
   -6    0   10     -3.04      0.00
   -5    0   10      1.74      0.00
   -4    0   10     -1.13      0.00
   -3    0   10      1.81      0.00
   -2    0   10     -3.34      0.00
   -1    0   10      2.01      0.00
    0    0   10     -0.58      0.00
    1    0   10     -2.26      0.00
    2    0   10      1.22      0.00
    3    0   10     -1.26      0.00
    4    0   10     -0.79      0.00
    5    0   10      2.63      0.00
    6    0   10      0.18      0.00
    7    0   10     -1.29      0.00
    8    0   10      1.41      0.00
    9    0   10     -1.00      0.00
   11    0   10      0.88      0.00
   12    0   10     -0.19      0.00
  -11    1   10     -2.74      0.00
  -10    1   10      4.99      0.00
   -9    1   10     -4.64      0.00
   -8    1   10      4.22      0.00
   -7    1   10      0.19      0.00
   -6    1   10      0.36      0.00
   -5    1   10      2.65      0.00
   -4    1   10     -3.23      0.00
   -3    1   10      1.00      0.00
   -2    1   10      1.50      0.00
   -1    1   10     -2.33      0.00
    0    1   10     -1.50      0.00
    1    1   10      3.33      0.00
    2    1   10     -2.27      0.00
    3    1   10      2.48      0.00
    4    1   10      0.86      0.00
    5    1   10     -2.12      0.00
    6    1   10     -0.14      0.00
    7    1   10      2.35      0.00
    8    1   10     -2.41      0.00
    9    1   10     -0.63      0.00
   10    1   10      1.17      0.00
   11    1   10     -0.47      0.00
   12    1   10     -2.49      0.00
  -11    2   10      1.41      0.00
  -10    2   10      3.57      0.00
   -9    2   10     -2.08      0.00
   -8    2   10      0.63      0.00
   -7    2   10     -0.62      0.00
   -6    2   10      0.72      0.00
   -5    2   10     -1.34      0.00
   -4    2   10      1.17      0.00
   -3    2   10      0.65      0.00
   -2    2   10     -2.02      0.00
   -1    2   10      1.16      0.00
    0    2   10     -1.24      0.00
    1    2   10     -0.55      0.00
    2    2   10     -1.35      0.00
    3    2   10      0.10      0.00
    4    2   10     -1.16      0.00
    5    2   10      1.32      0.00
    6    2   10      0.19      0.00
    7    2   10     -1.06      0.00
    8    2   10      2.16      0.00
    9    2   10     -1.83      0.00
   10    2   10      0.62      0.00
   11    2   10      0.77      0.00
   12    2   10      0.68      0.00
   13    2   10     -0.21      0.00
  -11    3   10     -1.13      0.00
  -10    3   10     -0.23      0.00
   -9    3   10      3.37      0.00
   -8    3   10     -1.75      0.00
   -7    3   10      3.09      0.00
   -6    3   10     -2.02      0.00
   -5    3   10      2.25      0.00
   -4    3   10     -1.77      0.00
   -3    3   10      0.18      0.00
   -2    3   10      2.10      0.00
   -1    3   10     -0.67      0.00
    0    3   10     -3.16      0.00
    1    3   10      4.78      0.00
    2    3   10     -2.08      0.00
    3    3   10     -0.95      0.00
    4    3   10      1.37      0.00
    5    3   10      2.27      0.00
    6    3   10     -1.88      0.00
    7    3   10      0.84      0.00
    8    3   10      0.41      0.00
    9    3   10     -0.82      0.00
   10    3   10     -1.88      0.00
   11    3   10      1.53      0.00
   12    3   10     -2.30      0.00
   13    3   10      0.81      0.00
  -10    4   10      0.61      0.00
   -9    4   10     -0.04      0.00
   -8    4   10      4.09      0.00
   -7    4   10     -2.41      0.00
   -6    4   10      3.07      0.00
   -5    4   10      0.95      0.00
   -4    4   10     -0.79      0.00
   -3    4   10     -2.17      0.00
   -2    4   10      0.75      0.00
   -1    4   10      0.75      0.00
    0    4   10     -1.40      0.00
    1    4   10     -1.28      0.00
    2    4   10     -2.26      0.00
    3    4   10      1.79      0.00
    4    4   10     -1.64      0.00
    5    4   10     -1.70      0.00
    6    4   10     -2.29      0.00
    7    4   10      3.03      0.00
    8    4   10      0.56      0.00
    9    4   10     -2.12      0.00
   10    4   10      2.65      0.00
   11    4   10     -0.37      0.00
   12    4   10     -1.92      0.00
   13    4   10      2.04      0.00
  -10    5   10      2.30      0.00
   -9    5   10     -3.72      0.00
   -8    5   10      3.29      0.00
   -7    5   10     -4.03      0.00
   -6    5   10      3.43      0.00
   -5    5   10     -1.85      0.00
   -4    5   10      2.80      0.00
   -3    5   10     -0.61      0.00
   -2    5   10      0.99      0.00
   -1    5   10     -2.58      0.00
    0    5   10      1.73      0.00
    1    5   10     -0.02      0.00
    2    5   10      1.32      0.00
    3    5   10     -2.06      0.00
    4    5   10      0.72      0.00
    5    5   10      1.39      0.00
    6    5   10      0.73      0.00
    7    5   10     -1.93      0.00
    8    5   10     -0.54      0.00
    9    5   10      0.90      0.00
   10    5   10      0.59      0.00
   11    5   10     -1.62      0.00
   13    5   10     -1.28      0.00
   -9    6   10      2.00      0.00
   -8    6   10      0.86      0.00
   -7    6   10      3.37      0.00
   -6    6   10     -3.61      0.00
   -5    6   10      4.09      0.00
   -4    6   10      0.16      0.00
   -3    6   10     -1.53      0.00
   -2    6   10      1.67      0.00
   -1    6   10     -1.66      0.00
    0    6   10      0.18      0.00
    1    6   10      0.18      0.00
    2    6   10     -4.02      0.00
    3    6   10      0.44      0.00
    4    6   10     -0.78      0.00
    5    6   10     -1.46      0.00
    6    6   10     -1.31      0.00
    7    6   10      2.42      0.00
    8    6   10     -0.77      0.00
    9    6   10     -0.34      0.00
   10    6   10     -0.21      0.00
   11    6   10      2.03      0.00
   12    6   10      0.57      0.00
   13    6   10      0.10      0.00
   -8    7   10      2.71      0.00
   -7    7   10      0.95      0.00
   -6    7   10      1.19      0.00
   -5    7   10     -5.58      0.00
   -4    7   10      4.54      0.00
   -3    7   10      1.09      0.00
   -2    7   10     -1.47      0.00
   -1    7   10      1.02      0.00
    0    7   10     -0.23      0.00
    1    7   10     -2.80      0.00
    2    7   10      3.79      0.00
    3    7   10     -2.67      0.00
    4    7   10      0.13      0.00
    5    7   10      0.90      0.00
    6    7   10     -2.43      0.00
    7    7   10     -0.21      0.00
    8    7   10     -1.80      0.00
    9    7   10      1.89      0.00
   10    7   10      0.15      0.00
   11    7   10     -2.87      0.00
   12    7   10      0.15      0.00
   13    7   10      1.56      0.00
   -8    8   10     -2.28      0.00
   -7    8   10     -1.05      0.00
   -6    8   10      6.97      0.00
   -5    8   10     -0.77      0.00
   -4    8   10     -1.41      0.00
   -3    8   10     -0.67      0.00
   -2    8   10      1.83      0.00
   -1    8   10      0.26      0.00
    0    8   10      0.49      0.00
    1    8   10     -1.38      0.00
    2    8   10     -0.44      0.00
    3    8   10      0.27      0.00
    4    8   10     -3.29      0.00
    5    8   10     -1.25      0.00
    6    8   10      1.38      0.00
    7    8   10      1.88      0.00
    8    8   10     -1.87      0.00
    9    8   10     -0.61      0.00
   10    8   10      2.01      0.00
   11    8   10      1.40      0.00
   12    8   10     -0.99      0.00
   13    8   10      2.46      0.00
   -7    9   10     -2.63      0.00
   -6    9   10      0.83      0.00
   -5    9   10     -0.87      0.00
   -4    9   10      5.30      0.00
   -3    9   10     -2.74      0.00
   -2    9   10      0.55      0.00
   -1    9   10     -0.88      0.00
    0    9   10      1.25      0.00
    1    9   10     -0.97      0.00
    2    9   10      0.27      0.00
    3    9   10     -1.55      0.00
    4    9   10      1.54      0.00
    5    9   10     -0.28      0.00
    6    9   10     -3.12      0.00
    7    9   10     -0.27      0.00
    8    9   10      1.32      0.00
    9    9   10     -1.41      0.00
   10    9   10     -2.50      0.00
   11    9   10      2.88      0.00
   12    9   10     -0.84      0.00
   13    9   10     -2.50      0.00
   -6   10   10      0.72      0.00
   -5   10   10     -0.97      0.00
   -4   10   10      0.56      0.00
   -3   10   10      2.18      0.00
   -2   10   10      0.39      0.00
   -1   10   10     -2.81      0.00
    0   10   10      4.81      0.00
    1   10   10     -3.13      0.00
    2   10   10     -0.22      0.00
    3   10   10      1.61      0.00
    4   10   10     -0.85      0.00
    5   10   10     -3.05      0.00
    6   10   10      2.06      0.00
    7   10   10     -2.97      0.00
    8   10   10     -0.77      0.00
    9   10   10      2.79      0.00
   10   10   10      1.63      0.00
   11   10   10     -4.60      0.00
   12   10   10      2.24      0.00
   13   10   10      4.13      0.00
   -5   11   10      5.44      0.00
   -4   11   10     -2.99      0.00
   -3   11   10     -0.26      0.00
   -2   11   10      3.39      0.00
   -1   11   10     -0.39      0.00
    0   11   10     -0.70      0.00
    1   11   10     -0.14      0.00
    2   11   10      0.47      0.00
    3   11   10      0.13      0.00
    4   11   10     -1.47      0.00
    5   11   10      1.91      0.00
    6   11   10      2.26      0.00
    7   11   10     -1.92      0.00
    8   11   10      1.50      0.00
    9   11   10     -0.65      0.00
   10   11   10     -0.97      0.00
   11   11   10      2.22      0.00
   12   11   10     -0.41      0.00
   13   11   10     -0.72      0.00
   -4   12   10     -0.65      0.00
   -3   12   10      3.77      0.00
   -2   12   10     -4.25      0.00
   -1   12   10      2.95      0.00
    0   12   10     -0.75      0.00
    1   12   10      2.98      0.00
    2   12   10     -0.83      0.00
    3   12   10     -0.70      0.00
    4   12   10      0.52      0.00
    5   12   10     -1.80      0.00
    6   12   10     -0.53      0.00
    7   12   10     -0.25      0.00
    8   12   10     -1.75      0.00
    9   12   10     -0.70      0.00
   10   12   10     -2.02      0.00
   11   12   10      5.72      0.00
   12   12   10     -5.48      0.00
   -3   13   10     -0.28      0.00
   -2   13   10      4.11      0.00
   -1   13   10     -4.55      0.00
    0   13   10      5.28      0.00
    1   13   10     -4.84      0.00
    2   13   10      2.49      0.00
    3   13   10      0.55      0.00
    4   13   10      0.62      0.00
    5   13   10      1.59      0.00
    6   13   10      0.44      0.00
    7   13   10      0.26      0.00
    8   13   10      4.56      0.00
    9   13   10     -0.63      0.00
   10   13   10      3.73      0.00
   11   13   10     -7.32      0.00
   12   13   10      9.26      0.00
   -1   14   10     -0.09      0.00
    0   14   10     -1.06      0.00
    1   14   10      3.74      0.00
    2   14   10     -0.27      0.00
    3   14   10      0.26      0.00
    4   14   10      1.15      0.00
    5   14   10     -1.22      0.00
    6   14   10     -2.62      0.00
    7   14   10      5.01      0.00
    8   14   10     -6.16      0.00
    9   14   10      1.30      0.00
   10   14   10     -0.99      0.00
   11   14   10     -0.35      0.00
    0   15   10     -5.01      0.00
    1   15   10      1.10      0.00
    2   15   10      0.33      0.00
    3   15   10      0.53      0.00
    4   15   10     -0.67      0.00
    5   15   10      2.84      0.00
    6   15   10      5.31      0.00
    7   15   10     -9.29      0.00
    8   15   10      8.96      0.00
    9   15   10      0.46      0.00
   10   15   10     -0.58      0.00
    3   16   10      1.40      0.00
    4   16   10      1.17      0.00
    5   16   10     -0.22      0.00
    6   16   10     -2.66      0.00
    7   16   10      8.69      0.00
    8   16   10     -9.33      0.00
   -8  -14   11     -2.92      0.00
   -7  -14   11      4.93      0.00
   -6  -14   11     -7.94      0.00
   -5  -14   11      3.65      0.00
   -4  -14   11     -1.91      0.00
   -3  -14   11     -0.71      0.00
   -2  -14   11     -1.33      0.00
   -9  -13   11      2.07      0.00
   -8  -13   11      0.03      0.00
   -7  -13   11     -3.43      0.00
   -6  -13   11      5.87      0.00
   -5  -13   11     -3.99      0.00
   -4  -13   11     -2.11      0.00
   -3  -13   11      6.46      0.00
   -2  -13   11     -8.30      0.00
   -1  -13   11      8.63      0.00
    0  -13   11     -9.12      0.00
    1  -13   11      1.72      0.00
  -10  -12   11      1.39      0.00
   -9  -12   11      1.85      0.00
   -8  -12   11      1.43      0.00
   -7  -12   11     -0.21      0.00
   -6  -12   11     -3.13      0.00
   -5  -12   11      3.73      0.00
   -4  -12   11     -2.87      0.00
   -3  -12   11     -4.42      0.00
   -2  -12   11      5.68      0.00
   -1  -12   11     -8.23      0.00
    0  -12   11      7.91      0.00
    1  -12   11     -9.57      0.00
    2  -12   11      2.82      0.00
  -11  -11   11      4.51      0.00
  -10  -11   11     -6.36      0.00
   -9  -11   11      3.38      0.00
   -8  -11   11     -1.29      0.00
   -7  -11   11      3.23      0.00
   -6  -11   11     -0.95      0.00
   -5  -11   11     -1.32      0.00
   -4  -11   11      1.29      0.00
   -3  -11   11     -1.43      0.00
   -2  -11   11     -1.32      0.00
   -1  -11   11      1.99      0.00
    0  -11   11     -2.20      0.00
    1  -11   11      5.32      0.00
    2  -11   11     -6.84      0.00
    3  -11   11      5.11      0.00
    4  -11   11     -2.99      0.00
  -11  -10   11     -4.25      0.00
  -10  -10   11      9.42      0.00
   -9  -10   11     -4.26      0.00
   -8  -10   11     -0.28      0.00
   -7  -10   11      2.82      0.00
   -6  -10   11     -1.58      0.00
   -5  -10   11      2.20      0.00
   -4  -10   11     -0.93      0.00
   -3  -10   11      1.35      0.00
   -2  -10   11     -1.57      0.00
   -1  -10   11     -1.78      0.00
    0  -10   11      2.50      0.00
    1  -10   11     -3.05      0.00
    2  -10   11      3.63      0.00
    3  -10   11     -3.82      0.00
    4  -10   11      2.96      0.00
    5  -10   11     -3.87      0.00
  -12   -9   11      4.40      0.00
  -11   -9   11      4.11      0.00
  -10   -9   11    -10.53      0.00
   -9   -9   11      7.82      0.00
   -8   -9   11     -1.89      0.00
   -7   -9   11      0.60      0.00
   -6   -9   11     -0.90      0.00
   -5   -9   11      0.60      0.00
   -4   -9   11      0.08      0.00
   -3   -9   11     -1.65      0.00
   -2   -9   11      0.38      0.00
   -1   -9   11     -2.33      0.00
    0   -9   11      1.13      0.00
    1   -9   11     -0.41      0.00
    2   -9   11      0.66      0.00
    3   -9   11      0.07      0.00
    4   -9   11      1.66      0.00
    5   -9   11     -1.40      0.00
    6   -9   11      1.39      0.00
  -12   -8   11     -7.20      0.00
  -11   -8   11     -1.87      0.00
  -10   -8   11     11.12      0.00
   -9   -8   11     -8.36      0.00
   -8   -8   11     -0.01      0.00
   -7   -8   11      3.57      0.00
   -6   -8   11     -0.62      0.00
   -5   -8   11     -0.13      0.00
   -4   -8   11     -0.85      0.00
   -3   -8   11      3.73      0.00
   -2   -8   11     -1.53      0.00
   -1   -8   11      2.92      0.00
    0   -8   11     -0.93      0.00
    1   -8   11      0.08      0.00
    2   -8   11      1.48      0.00
    3   -8   11     -0.56      0.00
    4   -8   11      3.35      0.00
    5   -8   11     -3.89      0.00
    6   -8   11      0.64      0.00
    7   -8   11      1.87      0.00
  -12   -7   11      4.69      0.00
  -11   -7   11     -3.14      0.00
  -10   -7   11     -3.68      0.00
   -9   -7   11      2.52      0.00
   -8   -7   11      1.50      0.00
   -7   -7   11     -2.88      0.00
   -6   -7   11     -1.56      0.00
   -5   -7   11      1.45      0.00
   -4   -7   11      1.44      0.00
   -3   -7   11     -3.01      0.00
   -2   -7   11      0.30      0.00
   -1   -7   11     -0.98      0.00
    0   -7   11     -2.42      0.00
    1   -7   11      2.83      0.00
    2   -7   11     -1.65      0.00
    3   -7   11     -1.85      0.00
    4   -7   11      2.82      0.00
    5   -7   11      2.22      0.00
    6   -7   11     -1.40      0.00
    7   -7   11      0.76      0.00
    8   -7   11     -0.21      0.00
  -12   -6   11     10.51      0.00
  -11   -6   11     -6.00      0.00
  -10   -6   11      2.17      0.00
   -9   -6   11     -0.10      0.00
   -8   -6   11     -3.97      0.00
   -7   -6   11      3.06      0.00
   -6   -6   11      1.20      0.00
   -5   -6   11     -3.26      0.00
   -4   -6   11     -0.12      0.00
   -3   -6   11     -0.68      0.00
   -2   -6   11      4.00      0.00
   -1   -6   11     -2.13      0.00
    0   -6   11      1.99      0.00
    1   -6   11      1.11      0.00
    2   -6   11      0.01      0.00
    3   -6   11      3.12      0.00
    4   -6   11     -3.64      0.00
    5   -6   11      1.29      0.00
    6   -6   11     -0.13      0.00
    7   -6   11     -0.07      0.00
    8   -6   11     -0.29      0.00
  -12   -5   11      3.14      0.00
  -11   -5   11     -2.86      0.00
  -10   -5   11      0.78      0.00
   -9   -5   11     -0.98      0.00
   -8   -5   11     -1.48      0.00
   -7   -5   11     -2.60      0.00
   -6   -5   11      1.19      0.00
   -5   -5   11     -0.30      0.00
   -4   -5   11      1.74      0.00
   -3   -5   11     -1.12      0.00
   -2   -5   11     -1.83      0.00
   -1   -5   11      2.78      0.00
    0   -5   11     -2.26      0.00
    1   -5   11     -1.55      0.00
    2   -5   11      0.77      0.00
    3   -5   11      0.04      0.00
    4   -5   11      1.29      0.00
    5   -5   11      1.71      0.00
    6   -5   11     -2.90      0.00
    7   -5   11      2.63      0.00
    8   -5   11      1.48      0.00
    9   -5   11      2.23      0.00
  -12   -4   11     -4.84      0.00
  -11   -4   11      4.04      0.00
  -10   -4   11     -0.56      0.00
   -9   -4   11     -1.00      0.00
   -8   -4   11      1.74      0.00
   -7   -4   11     -3.08      0.00
   -6   -4   11     -0.90      0.00
   -5   -4   11     -1.35      0.00
   -4   -4   11     -0.68      0.00
   -3   -4   11     -0.55      0.00
   -2   -4   11     -0.02      0.00
   -1   -4   11     -1.56      0.00
    0   -4   11      1.64      0.00
    1   -4   11      0.44      0.00
    2   -4   11     -0.34      0.00
    3   -4   11     -0.82      0.00
    4   -4   11      0.29      0.00
    5   -4   11     -0.41      0.00
    6   -4   11      3.13      0.00
    7   -4   11     -4.71      0.00
    8   -4   11     -1.50      0.00
    9   -4   11      0.28      0.00
   10   -4   11      0.32      0.00
  -12   -3   11      5.60      0.00
  -11   -3   11     -4.81      0.00
  -10   -3   11      0.54      0.00
   -9   -3   11      0.41      0.00
   -8   -3   11     -1.27      0.00
   -7   -3   11     -0.69      0.00
   -6   -3   11      1.00      0.00
   -5   -3   11     -1.63      0.00
   -4   -3   11      0.05      0.00
   -3   -3   11      1.99      0.00
   -2   -3   11     -0.51      0.00
   -1   -3   11      0.25      0.00
    0   -3   11     -0.35      0.00
    1   -3   11      0.63      0.00
    2   -3   11     -0.01      0.00
    3   -3   11      0.98      0.00
    4   -3   11     -1.71      0.00
    5   -3   11      1.11      0.00
    6   -3   11     -0.30      0.00
    7   -3   11      1.45      0.00
    8   -3   11      1.23      0.00
    9   -3   11     -0.15      0.00
   10   -3   11      0.89      0.00
  -12   -2   11     -5.36      0.00
  -11   -2   11      7.35      0.00
  -10   -2   11     -6.94      0.00
   -9   -2   11      3.22      0.00
   -8   -2   11     -1.06      0.00
   -7   -2   11     -3.16      0.00
   -6   -2   11      1.23      0.00
   -5   -2   11     -2.06      0.00
   -4   -2   11     -1.74      0.00
   -3   -2   11     -0.65      0.00
   -2   -2   11     -0.58      0.00
   -1   -2   11      0.34      0.00
    0   -2   11     -1.08      0.00
    1   -2   11     -1.75      0.00
    2   -2   11      0.46      0.00
    3   -2   11     -0.56      0.00
    4   -2   11     -0.05      0.00
    5   -2   11     -0.18      0.00
    6   -2   11     -0.45      0.00
    7   -2   11      1.65      0.00
    8   -2   11     -3.15      0.00
    9   -2   11     -0.56      0.00
   10   -2   11      0.14      0.00
   11   -2   11     -0.46      0.00
  -12   -1   11      5.94      0.00
  -11   -1   11     -6.46      0.00
  -10   -1   11      4.24      0.00
   -9   -1   11     -1.08      0.00
   -8   -1   11      0.83      0.00
   -7   -1   11     -0.74      0.00
   -6   -1   11      0.46      0.00
   -5   -1   11     -1.64      0.00
   -4   -1   11      2.82      0.00
   -3   -1   11     -3.61      0.00
   -2   -1   11      4.39      0.00
   -1   -1   11     -3.76      0.00
    0   -1   11      4.07      0.00
    1   -1   11     -0.63      0.00
    2   -1   11     -1.94      0.00
    3   -1   11      1.38      0.00
    4   -1   11      1.23      0.00
    5   -1   11     -3.32      0.00
    6   -1   11      1.58      0.00
    7   -1   11      0.14      0.00
    8   -1   11     -0.09      0.00
    9   -1   11      1.01      0.00
   10   -1   11     -1.44      0.00
   11   -1   11     -0.91      0.00
  -12    0   11     -5.23      0.00
  -11    0   11      8.14      0.00
  -10    0   11     -6.89      0.00
   -9    0   11     -0.17      0.00
   -8    0   11     -0.08      0.00
   -7    0   11     -2.35      0.00
   -6    0   11      1.35      0.00
   -5    0   11     -1.97      0.00
   -4    0   11     -0.84      0.00
   -3    0   11     -0.01      0.00
   -2    0   11     -1.70      0.00
   -1    0   11      1.31      0.00
    0    0   11     -2.68      0.00
    1    0   11      1.34      0.00
    2    0   11     -0.45      0.00
    3    0   11     -2.01      0.00
    4    0   11      0.41      0.00
    5    0   11     -0.23      0.00
    6    0   11     -1.25      0.00
    7    0   11      1.72      0.00
    8    0   11     -0.38      0.00
    9    0   11      1.80      0.00
   10    0   11     -0.14      0.00
   11    0   11     -0.97      0.00
   12    0   11     -2.32      0.00
  -11    1   11      2.88      0.00
  -10    1   11     -2.51      0.00
   -9    1   11      4.54      0.00
   -8    1   11     -2.32      0.00
   -7    1   11     -0.05      0.00
   -6    1   11     -0.12      0.00
   -5    1   11     -2.08      0.00
   -4    1   11      3.24      0.00
   -3    1   11     -1.49      0.00
   -2    1   11     -0.30      0.00
   -1    1   11      0.27      0.00
    0    1   11      2.39      0.00
    1    1   11     -2.98      0.00
    2    1   11      2.35      0.00
    3    1   11     -1.36      0.00
    4    1   11     -0.49      0.00
    5    1   11      1.12      0.00
    6    1   11      0.62      0.00
    7    1   11     -2.33      0.00
    8    1   11     -1.02      0.00
    9    1   11      1.16      0.00
   10    1   11     -0.79      0.00
   11    1   11     -1.57      0.00
   12    1   11      4.52      0.00
  -11    2   11     -3.24      0.00
  -10    2   11     -1.98      0.00
   -9    2   11     -1.85      0.00
   -8    2   11      2.15      0.00
   -7    2   11     -2.33      0.00
   -6    2   11      0.37      0.00
   -5    2   11      0.18      0.00
   -4    2   11     -3.32      0.00
   -3    2   11      1.25      0.00
   -2    2   11      0.28      0.00
   -1    2   11     -2.43      0.00
    0    2   11      1.77      0.00
    1    2   11     -0.99      0.00
    2    2   11     -1.19      0.00
    3    2   11      1.15      0.00
    4    2   11     -0.45      0.00
    5    2   11     -3.61      0.00
    6    2   11      0.47      0.00
    7    2   11      2.67      0.00
    8    2   11     -2.40      0.00
    9    2   11      3.13      0.00
   10    2   11      0.93      0.00
   11    2   11     -0.24      0.00
   12    2   11     -2.09      0.00
  -10    3   11      0.81      0.00
   -9    3   11     -3.54      0.00
   -8    3   11     -0.26      0.00
   -7    3   11     -1.35      0.00
   -6    3   11      1.16      0.00
   -5    3   11     -1.89      0.00
   -4    3   11      0.67      0.00
   -3    3   11      0.72      0.00
   -2    3   11     -1.54      0.00
   -1    3   11      0.30      0.00
    0    3   11      2.83      0.00
    1    3   11     -2.91      0.00
    2    3   11      2.08      0.00
    3    3   11      0.20      0.00
    4    3   11      0.71      0.00
    5    3   11     -1.27      0.00
    6    3   11      2.11      0.00
    7    3   11     -1.04      0.00
    8    3   11     -1.90      0.00
    9    3   11      0.00      0.00
   10    3   11      0.68      0.00
   11    3   11     -2.30      0.00
   12    3   11      3.72      0.00
   13    3   11     -2.51      0.00
  -10    4   11     -1.96      0.00
   -9    4   11      3.60      0.00
   -8    4   11     -5.42      0.00
   -7    4   11      3.95      0.00
   -6    4   11     -4.25      0.00
   -5    4   11      1.03      0.00
   -4    4   11     -1.30      0.00
   -3    4   11      1.87      0.00
   -2    4   11     -1.70      0.00
   -1    4   11     -0.85      0.00
    0    4   11     -0.89      0.00
    1    4   11      2.28      0.00
    2    4   11     -1.73      0.00
    3    4   11     -1.45      0.00
    4    4   11     -0.31      0.00
    5    4   11      0.48      0.00
    6    4   11     -0.25      0.00
    7    4   11     -0.64      0.00
    8    4   11     -0.29      0.00
    9    4   11      1.63      0.00
   10    4   11     -0.89      0.00
   11    4   11      0.81      0.00
   12    4   11      0.13      0.00
   13    4   11      0.03      0.00
   -9    5   11      2.44      0.00
   -8    5   11     -1.08      0.00
   -7    5   11     -2.24      0.00
   -6    5   11      0.03      0.00
   -5    5   11      0.29      0.00
   -4    5   11     -4.26      0.00
   -3    5   11      0.90      0.00
   -2    5   11      0.14      0.00
   -1    5   11      2.32      0.00
    0    5   11     -1.61      0.00
    1    5   11      0.87      0.00
    2    5   11      0.21      0.00
    3    5   11      2.60      0.00
    4    5   11      0.49      0.00
    5    5   11     -0.62      0.00
    6    5   11     -1.49      0.00
    7    5   11      1.90      0.00
    8    5   11      0.41      0.00
    9    5   11     -1.57      0.00
   10    5   11     -0.73      0.00
   11    5   11      0.55      0.00
   12    5   11     -0.91      0.00
   13    5   11     -0.47      0.00
   -9    6   11     -3.64      0.00
   -8    6   11      0.76      0.00
   -7    6   11     -2.17      0.00
   -6    6   11      1.51      0.00
   -5    6   11     -1.18      0.00
   -4    6   11      1.11      0.00
   -3    6   11     -1.91      0.00
   -2    6   11      0.05      0.00
   -1    6   11     -0.24      0.00
    0    6   11     -0.37      0.00
    1    6   11     -1.19      0.00
    2    6   11      3.43      0.00
    3    6   11     -3.29      0.00
    4    6   11      0.80      0.00
    5    6   11     -0.04      0.00
    6    6   11      2.91      0.00
    7    6   11     -3.13      0.00
    8    6   11      1.24      0.00
    9    6   11      0.65      0.00
   10    6   11      1.31      0.00
   11    6   11     -1.68      0.00
   12    6   11      1.22      0.00
   13    6   11     -0.88      0.00
   -8    7   11     -2.65      0.00
   -7    7   11     -0.29      0.00
   -6    7   11     -4.63      0.00
   -5    7   11      5.08      0.00
   -4    7   11     -4.41      0.00
   -3    7   11     -1.34      0.00
   -2    7   11      1.41      0.00
   -1    7   11     -2.06      0.00
    0    7   11      1.26      0.00
    1    7   11      2.48      0.00
    2    7   11     -3.29      0.00
    3    7   11      2.99      0.00
    4    7   11      1.35      0.00
    5    7   11     -0.63      0.00
    6    7   11      0.22      0.00
    7    7   11      0.29      0.00
    8    7   11      0.13      0.00
    9    7   11     -1.52      0.00
   10    7   11     -2.18      0.00
   11    7   11      0.87      0.00
   12    7   11      1.40      0.00
   13    7   11     -3.74      0.00
   -7    8   11      0.14      0.00
   -6    8   11     -3.47      0.00
   -5    8   11     -3.09      0.00
   -4    8   11      3.25      0.00
   -3    8   11      0.54      0.00
   -2    8   11     -2.10      0.00
   -1    8   11      0.39      0.00
    0    8   11     -0.51      0.00
    1    8   11     -0.79      0.00
    2    8   11      2.57      0.00
    3    8   11     -1.71      0.00
    4    8   11      1.68      0.00
    5    8   11      1.19      0.00
    6    8   11     -0.16      0.00
    7    8   11     -0.58      0.00
    8    8   11      1.16      0.00
    9    8   11      2.56      0.00
   10    8   11      1.39      0.00
   11    8   11     -2.80      0.00
   12    8   11      1.30      0.00
   13    8   11      0.26      0.00
   -7    9   11     -0.37      0.00
   -6    9   11      3.46      0.00
   -5    9   11     -0.62      0.00
   -4    9   11     -5.91      0.00
   -3    9   11      1.86      0.00
   -2    9   11     -0.41      0.00
   -1    9   11      0.30      0.00
    0    9   11     -1.45      0.00
    1    9   11      0.79      0.00
    2    9   11     -0.81      0.00
    3    9   11      2.13      0.00
    4    9   11     -1.99      0.00
    5    9   11      2.59      0.00
    6    9   11      0.13      0.00
    7    9   11      2.48      0.00
    8    9   11     -1.95      0.00
    9    9   11     -2.31      0.00
   10    9   11      1.22      0.00
   11    9   11     -1.86      0.00
   12    9   11      0.34      0.00
   13    9   11     -1.25      0.00
   -6   10   11      1.57      0.00
   -5   10   11     -1.58      0.00
   -4   10   11      2.53      0.00
   -3   10   11     -4.81      0.00
   -2   10   11      1.34      0.00
   -1   10   11      0.52      0.00
    0   10   11     -2.35      0.00
    1   10   11      2.32      0.00
    2   10   11      1.33      0.00
    3   10   11     -2.69      0.00
    4   10   11      0.28      0.00
    5   10   11      2.82      0.00
    6   10   11     -4.42      0.00
    7   10   11      2.87      0.00
    8   10   11      0.58      0.00
    9   10   11     -0.59      0.00
   10   10   11     -1.65      0.00
   11   10   11      5.49      0.00
   12   10   11     -2.48      0.00
   13   10   11     -1.89      0.00
   -5   11   11     -7.02      0.00
   -4   11   11      3.33      0.00
   -3   11   11      1.70      0.00
   -2   11   11     -3.97      0.00
   -1   11   11     -1.18      0.00
    0   11   11      3.26      0.00
    1   11   11     -4.21      0.00
    2   11   11      0.13      0.00
    3   11   11      2.05      0.00
    4   11   11      1.29      0.00
    5   11   11     -1.03      0.00
    6   11   11      1.43      0.00
    7   11   11      0.98      0.00
    8   11   11      0.48      0.00
    9   11   11      1.29      0.00
   10   11   11      2.74      0.00
   11   11   11     -7.17      0.00
   12   11   11      3.13      0.00
   -4   12   11     -1.75      0.00
   -3   12   11     -2.30      0.00
   -2   12   11      3.26      0.00
   -1   12   11     -1.05      0.00
    0   12   11     -1.29      0.00
    1   12   11      0.05      0.00
    2   12   11      0.49      0.00
    3   12   11     -0.20      0.00
    4   12   11     -1.98      0.00
    5   12   11      0.50      0.00
    6   12   11     -1.54      0.00
    7   12   11     -1.21      0.00
    8   12   11     -1.67      0.00
    9   12   11     -0.60      0.00
   10   12   11     -2.16      0.00
   11   12   11      2.47      0.00
   12   12   11     -2.12      0.00
   -2   13   11     -6.55      0.00
   -1   13   11      4.19      0.00
    0   13   11     -1.95      0.00
    1   13   11      0.22      0.00
    2   13   11     -1.32      0.00
    3   13   11     -0.58      0.00
    4   13   11      0.95      0.00
    5   13   11     -0.97      0.00
    6   13   11      3.68      0.00
    7   13   11     -0.18      0.00
    8   13   11      0.44      0.00
    9   13   11      2.01      0.00
   10   13   11     -1.43      0.00
   11   13   11      6.92      0.00
   -1   14   11     -5.13      0.00
    0   14   11      5.12      0.00
    1   14   11     -3.77      0.00
    2   14   11      1.07      0.00
    3   14   11     -0.63      0.00
    4   14   11     -1.10      0.00
    5   14   11      1.06      0.00
    6   14   11     -4.21      0.00
    7   14   11     -1.69      0.00
    8   14   11      0.41      0.00
    9   14   11     -2.90      0.00
   10   14   11     -0.78      0.00
    1   15   11      1.24      0.00
    2   15   11     -0.51      0.00
    3   15   11     -0.78      0.00
    4   15   11      0.12      0.00
    5   15   11     -3.60      0.00
    6   15   11      2.36      0.00
    7   15   11      2.58      0.00
    8   15   11     -0.87      0.00
    9   15   11     -0.98      0.00
    4   16   11      1.45      0.00
    5   16   11     -1.37      0.00
    6   16   11      2.89      0.00
    7   16   11    -10.66      0.00
   -6  -14   12      4.48      0.00
   -5  -14   12     -2.75      0.00
   -4  -14   12      0.83      0.00
   -3  -14   12     -4.13      0.00
   -8  -13   12     -3.86      0.00
   -7  -13   12      5.58      0.00
   -6  -13   12     -4.64      0.00
   -5  -13   12      4.68      0.00
   -4  -13   12      2.26      0.00
   -3  -13   12      0.25      0.00
   -2  -13   12      0.49      0.00
   -1  -13   12     -0.74      0.00
    0  -13   12      4.85      0.00
  -10  -12   12     -1.91      0.00
   -9  -12   12     -0.63      0.00
   -8  -12   12      1.23      0.00
   -7  -12   12     -4.38      0.00
   -6  -12   12      6.66      0.00
   -5  -12   12     -5.44      0.00
   -4  -12   12     -0.09      0.00
   -3  -12   12      5.67      0.00
   -2  -12   12     -6.34      0.00
   -1  -12   12      4.94      0.00
    0  -12   12     -6.23      0.00
    1  -12   12      3.61      0.00
    2  -12   12      6.94      0.00
  -10  -11   12      4.84      0.00
   -9  -11   12     -3.58      0.00
   -8  -11   12      2.71      0.00
   -7  -11   12     -4.37      0.00
   -6  -11   12     -1.55      0.00
   -5  -11   12      5.49      0.00
   -4  -11   12     -3.08      0.00
   -3  -11   12      1.49      0.00
   -2  -11   12      3.68      0.00
   -1  -11   12      0.43      0.00
    0  -11   12      1.92      0.00
    1  -11   12     -4.33      0.00
    2  -11   12      2.62      0.00
    3  -11   12      3.40      0.00
  -11  -10   12      4.21      0.00
  -10  -10   12    -10.77      0.00
   -9  -10   12      4.60      0.00
   -8  -10   12     -1.11      0.00
   -7  -10   12     -0.49      0.00
   -6  -10   12      1.47      0.00
   -5  -10   12     -2.78      0.00
   -4  -10   12      1.02      0.00
   -3  -10   12      0.08      0.00
   -2  -10   12     -0.85      0.00
   -1  -10   12      2.43      0.00
    0  -10   12     -2.06      0.00
    1  -10   12      3.32      0.00
    2  -10   12     -4.99      0.00
    3  -10   12      3.90      0.00
    4  -10   12     -3.95      0.00
    5  -10   12      5.56      0.00
  -11   -9   12     -3.11      0.00
  -10   -9   12     11.25      0.00
   -9   -9   12    -11.14      0.00
   -8   -9   12      5.80      0.00
   -7   -9   12     -4.04      0.00
   -6   -9   12     -0.61      0.00
   -5   -9   12      1.06      0.00
   -4   -9   12     -0.88      0.00
   -3   -9   12     -0.46      0.00
   -2   -9   12     -0.08      0.00
   -1   -9   12     -0.41      0.00
    0   -9   12      2.25      0.00
    1   -9   12     -1.88      0.00
    2   -9   12      0.11      0.00
    3   -9   12      0.83      0.00
    4   -9   12     -0.50      0.00
    5   -9   12     -2.13      0.00
    6   -9   12      4.84      0.00
  -12   -8   12      7.71      0.00
  -11   -8   12      3.40      0.00
  -10   -8   12    -13.37      0.00
   -9   -8   12     10.79      0.00
   -8   -8   12     -4.27      0.00
   -7   -8   12     -0.36      0.00
   -6   -8   12     -0.42      0.00
   -5   -8   12      0.53      0.00
   -4   -8   12      0.48      0.00
   -3   -8   12     -0.52      0.00
   -2   -8   12      2.42      0.00
   -1   -8   12     -2.44      0.00
    0   -8   12      2.08      0.00
    1   -8   12      1.18      0.00
    2   -8   12     -0.66      0.00
    3   -8   12     -0.80      0.00
    4   -8   12     -0.19      0.00
    5   -8   12     -0.41      0.00
    6   -8   12      0.43      0.00
    7   -8   12     -2.09      0.00
  -12   -7   12    -14.37      0.00
  -11   -7   12      2.88      0.00
  -10   -7   12      8.64      0.00
   -9   -7   12     -9.03      0.00
   -8   -7   12      1.81      0.00
   -7   -7   12      2.24      0.00
   -6   -7   12     -0.44      0.00
   -5   -7   12     -0.77      0.00
   -4   -7   12     -3.42      0.00
   -3   -7   12      3.10      0.00
   -2   -7   12     -3.13      0.00
   -1   -7   12     -0.62      0.00
    0   -7   12      1.55      0.00
    1   -7   12     -5.17      0.00
    2   -7   12      1.03      0.00
    3   -7   12      1.97      0.00
    4   -7   12     -1.96      0.00
    5   -7   12     -1.23      0.00
    6   -7   12      1.69      0.00
    7   -7   12      1.93      0.00
  -12   -6   12      1.59      0.00
  -11   -6   12      1.04      0.00
  -10   -6   12     -0.83      0.00
   -9   -6   12      2.59      0.00
   -8   -6   12      2.52      0.00
   -7   -6   12     -3.46      0.00
   -6   -6   12     -1.55      0.00
   -5   -6   12      2.27      0.00
   -4   -6   12      1.14      0.00
   -3   -6   12     -0.70      0.00
   -2   -6   12     -0.13      0.00
   -1   -6   12      1.50      0.00
    0   -6   12     -0.74      0.00
    1   -6   12      2.89      0.00
    2   -6   12     -1.14      0.00
    3   -6   12     -2.95      0.00
    4   -6   12      4.27      0.00
    5   -6   12     -2.01      0.00
    6   -6   12     -1.82      0.00
    7   -6   12     -0.45      0.00
    8   -6   12     -0.52      0.00
  -12   -5   12     -0.82      0.00
  -11   -5   12     -2.49      0.00
  -10   -5   12      0.50      0.00
   -9   -5   12     -0.58      0.00
   -8   -5   12     -0.66      0.00
   -7   -5   12      4.22      0.00
   -6   -5   12      1.83      0.00
   -5   -5   12     -2.70      0.00
   -4   -5   12      0.05      0.00
   -3   -5   12      0.15      0.00
   -2   -5   12      2.63      0.00
   -1   -5   12     -5.14      0.00
    0   -5   12      2.22      0.00
    1   -5   12     -0.96      0.00
    2   -5   12     -1.30      0.00
    3   -5   12      0.44      0.00
    4   -5   12     -3.13      0.00
    5   -5   12      1.26      0.00
    6   -5   12      2.55      0.00
    7   -5   12      0.07      0.00
    8   -5   12      1.76      0.00
    9   -5   12     -2.07      0.00
  -12   -4   12      6.24      0.00
  -11   -4   12     -3.32      0.00
  -10   -4   12      2.78      0.00
   -9   -4   12      1.37      0.00
   -8   -4   12     -0.63      0.00
   -7   -4   12      0.71      0.00
   -6   -4   12     -0.13      0.00
   -5   -4   12      1.14      0.00
   -4   -4   12      0.39      0.00
   -3   -4   12     -2.31      0.00
   -2   -4   12      0.30      0.00
   -1   -4   12      2.47      0.00
    0   -4   12     -2.21      0.00
    1   -4   12      0.01      0.00
    2   -4   12      0.95      0.00
    3   -4   12      0.40      0.00
    4   -4   12      0.93      0.00
    5   -4   12     -1.36      0.00
    6   -4   12     -4.17      0.00
    7   -4   12      3.42      0.00
    8   -4   12     -2.38      0.00
    9   -4   12      1.20      0.00
  -12   -3   12     -1.50      0.00
  -11   -3   12      0.96      0.00
  -10   -3   12      1.14      0.00
   -9   -3   12     -1.41      0.00
   -8   -3   12      0.27      0.00
   -7   -3   12      2.94      0.00
   -6   -3   12     -0.42      0.00
   -5   -3   12      2.01      0.00
   -4   -3   12      2.07      0.00
   -3   -3   12     -0.41      0.00
   -2   -3   12      1.85      0.00
   -1   -3   12     -1.99      0.00
    0   -3   12      3.20      0.00
    1   -3   12     -0.75      0.00
    2   -3   12     -0.90      0.00
    3   -3   12     -0.67      0.00
    4   -3   12     -0.17      0.00
    5   -3   12      0.95      0.00
    6   -3   12      1.98      0.00
    7   -3   12     -3.40      0.00
    8   -3   12      3.67      0.00
    9   -3   12      1.42      0.00
   10   -3   12      1.30      0.00
  -12   -2   12      2.36      0.00
  -11   -2   12     -5.83      0.00
  -10   -2   12      4.10      0.00
   -9   -2   12     -0.65      0.00
   -8   -2   12     -0.24      0.00
   -7   -2   12      1.48      0.00
   -6   -2   12      0.26      0.00
   -5   -2   12     -0.40      0.00
   -4   -2   12     -0.43      0.00
   -3   -2   12      2.10      0.00
   -2   -2   12     -3.18      0.00
   -1   -2   12      0.88      0.00
    0   -2   12     -1.47      0.00
    1   -2   12      1.72      0.00
    2   -2   12     -0.85      0.00
    3   -2   12      1.90      0.00
    4   -2   12     -1.77      0.00
    5   -2   12     -0.35      0.00
    6   -2   12      1.34      0.00
    7   -2   12     -1.63      0.00
    8   -2   12     -0.38      0.00
    9   -2   12      0.62      0.00
   10   -2   12     -2.03      0.00
   11   -2   12      1.80      0.00
  -12   -1   12     -1.81      0.00
  -11   -1   12      5.27      0.00
  -10   -1   12     -3.28      0.00
   -9   -1   12      3.70      0.00
   -8   -1   12     -1.17      0.00
   -7   -1   12      1.43      0.00
   -6   -1   12      0.92      0.00
   -5   -1   12      2.08      0.00
   -4   -1   12     -0.09      0.00
   -3   -1   12      1.64      0.00
   -2   -1   12      2.22      0.00
   -1   -1   12      0.24      0.00
    0   -1   12      0.83      0.00
    1   -1   12     -0.80      0.00
    2   -1   12      2.00      0.00
    3   -1   12      0.63      0.00
    4   -1   12     -1.42      0.00
    5   -1   12      1.42      0.00
    6   -1   12     -0.21      0.00
    7   -1   12     -0.87      0.00
    8   -1   12     -0.40      0.00
    9   -1   12      1.01      0.00
   10   -1   12      0.14      0.00
   11   -1   12      2.92      0.00
  -11    0   12    -13.10      0.00
  -10    0   12      5.68      0.00
   -9    0   12     -0.97      0.00
   -8    0   12     -0.85      0.00
   -7    0   12      1.21      0.00
   -6    0   12     -0.66      0.00
   -5    0   12      1.05      0.00
   -4    0   12      0.65      0.00
   -3    0   12     -1.63      0.00
   -2    0   12      1.59      0.00
   -1    0   12     -1.58      0.00
    0    0   12      0.95      0.00
    1    0   12      0.55      0.00
    2    0   12     -2.55      0.00
    3    0   12      2.35      0.00
    4    0   12      1.02      0.00
    5    0   12     -1.76      0.00
    6    0   12      2.57      0.00
    7    0   12     -0.91      0.00
    8    0   12      1.24      0.00
    9    0   12     -0.94      0.00
   10    0   12     -1.46      0.00
   11    0   12      1.98      0.00
  -11    1   12      6.35      0.00
  -10    1   12     -2.39      0.00
   -9    1   12      0.48      0.00
   -8    1   12      1.32      0.00
   -7    1   12      1.46      0.00
   -6    1   12      0.61      0.00
   -5    1   12      1.54      0.00
   -4    1   12     -0.59      0.00
   -3    1   12      1.83      0.00
   -2    1   12     -0.43      0.00
   -1    1   12      2.85      0.00
    0    1   12     -1.74      0.00
    1    1   12      2.08      0.00
    2    1   12      1.86      0.00
    3    1   12     -0.20      0.00
    4    1   12      0.02      0.00
    5    1   12      1.34      0.00
    6    1   12     -1.84      0.00
    7    1   12     -0.42      0.00
    8    1   12      1.26      0.00
    9    1   12     -1.20      0.00
   10    1   12     -1.67      0.00
   11    1   12      1.19      0.00
   12    1   12     -2.64      0.00
  -11    2   12      1.26      0.00
  -10    2   12      1.02      0.00
   -9    2   12      1.27      0.00
   -8    2   12     -3.19      0.00
   -7    2   12      1.59      0.00
   -6    2   12     -0.37      0.00
   -5    2   12     -0.44      0.00
   -4    2   12      3.80      0.00
   -3    2   12     -1.56      0.00
   -2    2   12     -0.31      0.00
   -1    2   12      1.67      0.00
    0    2   12     -1.52      0.00
    1    2   12      0.37      0.00
    2    2   12      0.40      0.00
    3    2   12     -0.85      0.00
    4    2   12     -0.38      0.00
    5    2   12      2.62      0.00
    6    2   12      1.63      0.00
    7    2   12     -2.61      0.00
    8    2   12      1.80      0.00
    9    2   12      0.84      0.00
   10    2   12     -1.22      0.00
   11    2   12      0.96      0.00
   12    2   12      2.61      0.00
  -10    3   12     -1.21      0.00
   -9    3   12      3.36      0.00
   -8    3   12      3.24      0.00
   -7    3   12     -0.89      0.00
   -6    3   12      0.67      0.00
   -5    3   12      0.52      0.00
   -4    3   12      0.26      0.00
   -3    3   12     -0.31      0.00
   -2    3   12      1.51      0.00
   -1    3   12      0.39      0.00
    0    3   12      0.17      0.00
    1    3   12      1.54      0.00
    2    3   12     -0.20      0.00
    3    3   12      2.50      0.00
    4    3   12      0.26      0.00
    5    3   12     -0.24      0.00
    6    3   12     -0.70      0.00
    7    3   12      0.61      0.00
    8    3   12      0.01      0.00
    9    3   12      0.43      0.00
   10    3   12     -2.18      0.00
   11    3   12      0.63      0.00
   12    3   12     -2.96      0.00
  -10    4   12      5.81      0.00
   -9    4   12     -6.89      0.00
   -8    4   12      4.56      0.00
   -7    4   12     -1.90      0.00
   -6    4   12      4.31      0.00
   -5    4   12     -1.78      0.00
   -4    4   12      1.60      0.00
   -3    4   12      0.65      0.00
   -2    4   12      0.46      0.00
   -1    4   12     -0.28      0.00
    0    4   12      1.56      0.00
    1    4   12     -3.39      0.00
    2    4   12      1.58      0.00
    3    4   12     -0.27      0.00
    4    4   12     -0.08      0.00
    5    4   12     -0.86      0.00
    6    4   12      2.33      0.00
    7    4   12     -0.14      0.00
    8    4   12     -0.93      0.00
    9    4   12      1.24      0.00
   10    4   12      0.37      0.00
   11    4   12      0.65      0.00
   12    4   12      0.73      0.00
   13    4   12     -0.82      0.00
   -9    5   12      3.29      0.00
   -8    5   12     -3.68      0.00
   -7    5   12      4.29      0.00
   -6    5   12     -1.51      0.00
   -5    5   12      0.68      0.00
   -4    5   12      2.10      0.00
   -3    5   12      0.19      0.00
   -2    5   12     -1.03      0.00
   -1    5   12     -0.83      0.00
    0    5   12      2.20      0.00
    1    5   12      1.66      0.00
    2    5   12     -1.68      0.00
    3    5   12      0.90      0.00
    4    5   12     -0.09      0.00
    5    5   12      1.33      0.00
    6    5   12      0.12      0.00
    7    5   12      0.12      0.00
    8    5   12     -1.94      0.00
    9    5   12      1.01      0.00
   10    5   12     -0.24      0.00
   11    5   12     -1.19      0.00
   12    5   12     -0.18      0.00
   13    5   12      1.90      0.00
   -9    6   12      4.14      0.00
   -8    6   12      1.65      0.00
   -7    6   12     -1.01      0.00
   -6    6   12      3.06      0.00
   -5    6   12     -1.08      0.00
   -4    6   12     -1.09      0.00
   -3    6   12      5.41      0.00
   -2    6   12     -1.81      0.00
   -1    6   12      2.08      0.00
    0    6   12     -1.73      0.00
    1    6   12      1.34      0.00
    2    6   12     -3.34      0.00
    3    6   12      2.29      0.00
    4    6   12     -0.44      0.00
    5    6   12     -0.61      0.00
    6    6   12     -2.49      0.00
    7    6   12      3.59      0.00
    8    6   12      0.54      0.00
    9    6   12      0.03      0.00
   10    6   12     -0.59      0.00
   11    6   12      3.40      0.00
   12    6   12     -2.09      0.00
   13    6   12     -0.09      0.00
   -8    7   12     -0.38      0.00
   -7    7   12      2.80      0.00
   -6    7   12      1.87      0.00
   -5    7   12     -0.82      0.00
   -4    7   12      1.92      0.00
   -3    7   12     -0.80      0.00
   -2    7   12      0.02      0.00
   -1    7   12      1.42      0.00
    0    7   12     -1.09      0.00
    1    7   12     -1.31      0.00
    2    7   12      3.75      0.00
    3    7   12     -2.67      0.00
    4    7   12     -1.14      0.00
    5    7   12      0.95      0.00
    6    7   12      0.39      0.00
    7    7   12     -1.51      0.00
    8    7   12     -1.65      0.00
    9    7   12      0.44      0.00
   10    7   12     -0.16      0.00
   11    7   12     -0.70      0.00
   12    7   12     -1.46      0.00
   13    7   12      3.60      0.00
   -7    8   12      0.58      0.00
   -6    8   12      1.35      0.00
   -5    8   12      2.57      0.00
   -4    8   12     -0.72      0.00
   -3    8   12     -0.32      0.00
   -2    8   12      2.10      0.00
   -1    8   12      0.44      0.00
    0    8   12      1.35      0.00
    1    8   12      0.16      0.00
    2    8   12     -1.54      0.00
    3    8   12     -0.70      0.00
    4    8   12      1.68      0.00
    5    8   12     -3.29      0.00
    6    8   12      1.18      0.00
    7    8   12      0.29      0.00
    8    8   12      1.30      0.00
    9    8   12     -0.24      0.00
   10    8   12     -0.91      0.00
   11    8   12      4.00      0.00
   12    8   12      0.53      0.00
   13    8   12     -1.50      0.00
   -6    9   12     -4.41      0.00
   -5    9   12      1.06      0.00
   -4    9   12      4.95      0.00
   -3    9   12      0.88      0.00
   -2    9   12     -2.16      0.00
   -1    9   12     -0.34      0.00
    0    9   12      1.42      0.00
    1    9   12     -2.09      0.00
    2    9   12      1.53      0.00
    3    9   12     -1.35      0.00
    4    9   12      2.12      0.00
    5    9   12     -3.12      0.00
    6    9   12      1.87      0.00
    7    9   12     -3.09      0.00
    8    9   12     -1.00      0.00
    9    9   12      2.52      0.00
   10    9   12     -0.68      0.00
   11    9   12     -3.62      0.00
   12    9   12      0.52      0.00
   13    9   12      1.47      0.00
   -5   10   12      0.97      0.00
   -4   10   12     -2.94      0.00
   -3   10   12      3.02      0.00
   -2   10   12      0.14      0.00
   -1   10   12      2.38      0.00
    0   10   12      0.27      0.00
    1   10   12     -0.41      0.00
    2   10   12     -0.29      0.00
    3   10   12     -0.15      0.00
    4   10   12     -0.06      0.00
    5   10   12     -2.07      0.00
    6   10   12      0.30      0.00
    7   10   12     -0.35      0.00
    8   10   12     -0.17      0.00
    9   10   12     -2.18      0.00
   10   10   12      2.65      0.00
   11   10   12     -1.40      0.00
   12   10   12      3.31      0.00
   -4   11   12      0.52      0.00
   -3   11   12     -3.62      0.00
   -2   11   12      4.85      0.00
   -1   11   12     -0.97      0.00
    0   11   12     -3.33      0.00
    1   11   12      4.21      0.00
    2   11   12      0.32      0.00
    3   11   12     -2.80      0.00
    4   11   12      0.04      0.00
    5   11   12      3.37      0.00
    6   11   12     -0.52      0.00
    7   11   12      0.64      0.00
    8   11   12      0.57      0.00
    9   11   12      0.11      0.00
   10   11   12     -1.86      0.00
   11   11   12      4.73      0.00
   12   11   12     -3.23      0.00
   -3   12   12     -0.11      0.00
   -2   12   12     -2.55      0.00
   -1   12   12      2.57      0.00
    0   12   12      1.76      0.00
    1   12   12     -1.83      0.00
    2   12   12      1.63      0.00
    3   12   12     -0.39      0.00
    4   12   12      0.59      0.00
    5   12   12     -2.12      0.00
    6   12   12     -2.06      0.00
    7   12   12     -1.04      0.00
    8   12   12      0.17      0.00
    9   12   12     -2.46      0.00
   10   12   12      4.04      0.00
   11   12   12     -9.38      0.00
   12   12   12      7.34      0.00
   -2   13   12      4.44      0.00
   -1   13   12     -1.46      0.00
    0   13   12     -2.82      0.00
    1   13   12      2.18      0.00
    2   13   12      0.26      0.00
    3   13   12      0.25      0.00
    4   13   12      0.31      0.00
    5   13   12      2.05      0.00
    6   13   12      0.43      0.00
    7   13   12      2.84      0.00
    8   13   12      2.23      0.00
    9   13   12     -0.57      0.00
   10   13   12      2.69      0.00
   11   13   12      0.65      0.00
    0   14   12     -1.75      0.00
    1   14   12      0.65      0.00
    2   14   12      0.61      0.00
    3   14   12     -0.19      0.00
    4   14   12      0.61      0.00
    5   14   12     -1.75      0.00
    6   14   12      1.46      0.00
    7   14   12     -2.32      0.00
    8   14   12     -2.35      0.00
    9   14   12      0.11      0.00
   10   14   12     -1.27      0.00
    2   15   12     -1.28      0.00
    3   15   12      1.39      0.00
    4   15   12     -0.71      0.00
    5   15   12      6.12      0.00
    6   15   12     -5.75      0.00
    7   15   12      5.60      0.00
    8   15   12      1.37      0.00
    9   15   12      1.48      0.00
   -8  -13   13      4.77      0.00
   -7  -13   13     -4.20      0.00
   -6  -13   13      2.42      0.00
   -5  -13   13     -1.55      0.00
   -4  -13   13      1.07      0.00
   -3  -13   13     -4.61      0.00
   -2  -13   13      8.75      0.00
   -1  -13   13     -3.60      0.00
   -9  -12   13      3.20      0.00
   -8  -12   13     -5.33      0.00
   -7  -12   13      6.85      0.00
   -6  -12   13     -4.77      0.00
   -5  -12   13      0.29      0.00
   -4  -12   13      0.31      0.00
   -3  -12   13     -5.03      0.00
   -2  -12   13     -1.37      0.00
   -1  -12   13     -0.79      0.00
    0  -12   13      1.33      0.00
    1  -12   13      2.32      0.00
  -10  -11   13      2.35      0.00
   -9  -11   13      0.14      0.00
   -8  -11   13      0.18      0.00
   -7  -11   13      0.26      0.00
   -6  -11   13      4.62      0.00
   -5  -11   13     -5.90      0.00
   -4  -11   13      3.96      0.00
   -3  -11   13      1.14      0.00
   -2  -11   13     -1.89      0.00
   -1  -11   13     -2.12      0.00
    0  -11   13      1.89      0.00
    1  -11   13     -0.75      0.00
    2  -11   13      8.34      0.00
    3  -11   13    -13.87      0.00
  -10  -10   13      2.84      0.00
   -9  -10   13      1.59      0.00
   -8  -10   13     -1.08      0.00
   -7  -10   13     -1.29      0.00
   -6  -10   13      0.55      0.00
   -5  -10   13      2.94      0.00
   -4  -10   13     -2.65      0.00
   -3  -10   13     -0.60      0.00
   -2  -10   13      0.18      0.00
   -1  -10   13      0.64      0.00
    0  -10   13     -5.07      0.00
    1  -10   13     -0.05      0.00
    2  -10   13      0.74      0.00
    3  -10   13      2.26      0.00
    4  -10   13     -2.36      0.00
  -11   -9   13     -0.33      0.00
  -10   -9   13     -6.02      0.00
   -9   -9   13      8.02      0.00
   -8   -9   13     -2.10      0.00
   -7   -9   13      3.97      0.00
   -6   -9   13      1.10      0.00
   -5   -9   13     -2.67      0.00
   -4   -9   13      0.13      0.00
   -3   -9   13      2.17      0.00
   -2   -9   13     -2.93      0.00
   -1   -9   13      2.13      0.00
    0   -9   13     -0.97      0.00
    1   -9   13      0.07      0.00
    2   -9   13     -0.81      0.00
    3   -9   13      0.87      0.00
    4   -9   13     -2.02      0.00
    5   -9   13      5.94      0.00
  -11   -8   13      0.95      0.00
  -10   -8   13      9.15      0.00
   -9   -8   13     -9.61      0.00
   -8   -8   13      6.02      0.00
   -7   -8   13     -3.56      0.00
   -6   -8   13      1.75      0.00
   -5   -8   13      1.53      0.00
   -4   -8   13      1.80      0.00
   -3   -8   13     -1.36      0.00
   -2   -8   13      0.20      0.00
   -1   -8   13      3.00      0.00
    0   -8   13     -0.76      0.00
    1   -8   13     -1.57      0.00
    2   -8   13      1.68      0.00
    3   -8   13      0.48      0.00
    4   -8   13     -0.99      0.00
    5   -8   13     -0.72      0.00
    6   -8   13      2.42      0.00
  -11   -7   13     -4.07      0.00
  -10   -7   13     -9.77      0.00
   -9   -7   13      9.71      0.00
   -8   -7   13     -2.33      0.00
   -7   -7   13      1.68      0.00
   -6   -7   13     -0.11      0.00
   -5   -7   13      0.52      0.00
   -4   -7   13      1.37      0.00
   -3   -7   13     -1.72      0.00
   -2   -7   13     -0.28      0.00
   -1   -7   13     -1.04      0.00
    0   -7   13     -1.40      0.00
    1   -7   13      2.88      0.00
    2   -7   13     -1.03      0.00
    3   -7   13     -2.83      0.00
    4   -7   13      2.91      0.00
    5   -7   13     -0.82      0.00
    6   -7   13      1.54      0.00
    7   -7   13     -2.23      0.00
  -12   -6   13     -9.65      0.00
  -11   -6   13      6.78      0.00
  -10   -6   13      3.91      0.00
   -9   -6   13     -5.35      0.00
   -8   -6   13     -0.24      0.00
   -7   -6   13      2.71      0.00
   -6   -6   13     -1.07      0.00
   -5   -6   13      0.68      0.00
   -4   -6   13     -1.94      0.00
   -3   -6   13      3.94      0.00
   -2   -6   13     -0.89      0.00
   -1   -6   13      2.64      0.00
    0   -6   13      1.91      0.00
    1   -6   13     -3.39      0.00
    2   -6   13      3.74      0.00
    3   -6   13      3.48      0.00
    4   -6   13     -4.11      0.00
    5   -6   13      0.39      0.00
    6   -6   13      0.54      0.00
    7   -6   13     -0.49      0.00
    8   -6   13     -2.16      0.00
  -12   -5   13      2.00      0.00
  -11   -5   13     -1.76      0.00
  -10   -5   13     -2.09      0.00
   -9   -5   13      0.41      0.00
   -8   -5   13      0.87      0.00
   -7   -5   13     -3.15      0.00
   -6   -5   13     -0.64      0.00
   -5   -5   13      3.69      0.00
   -4   -5   13      0.37      0.00
   -3   -5   13      0.38      0.00
   -2   -5   13     -3.34      0.00
   -1   -5   13      2.53      0.00
    0   -5   13     -2.04      0.00
    1   -5   13      0.61      0.00
    2   -5   13     -0.83      0.00
    3   -5   13     -1.68      0.00
    4   -5   13      4.52      0.00
    5   -5   13     -1.93      0.00
    6   -5   13      0.30      0.00
    7   -5   13      0.04      0.00
    8   -5   13      1.45      0.00
    9   -5   13      0.87      0.00
  -12   -4   13     -6.82      0.00
  -11   -4   13      3.98      0.00
  -10   -4   13      0.10      0.00
   -9   -4   13     -1.80      0.00
   -8   -4   13      1.73      0.00
   -7   -4   13     -0.77      0.00
   -6   -4   13      0.41      0.00
   -5   -4   13     -3.97      0.00
   -4   -4   13     -0.95      0.00
   -3   -4   13      2.50      0.00
   -2   -4   13     -0.12      0.00
   -1   -4   13     -1.61      0.00
    0   -4   13      2.54      0.00
    1   -4   13      0.89      0.00
    2   -4   13      0.37      0.00
    3   -4   13      0.37      0.00
    4   -4   13     -1.06      0.00
    5   -4   13      1.45      0.00
    6   -4   13      1.55      0.00
    7   -4   13     -4.06      0.00
    8   -4   13      0.75      0.00
    9   -4   13     -4.98      0.00
  -12   -3   13      3.99      0.00
  -11   -3   13     -3.11      0.00
  -10   -3   13      0.16      0.00
   -9   -3   13     -0.32      0.00
   -8   -3   13     -0.38      0.00
   -7   -3   13     -2.03      0.00
   -6   -3   13      0.03      0.00
   -5   -3   13      1.53      0.00
   -4   -3   13     -0.17      0.00
   -3   -3   13     -0.31      0.00
   -2   -3   13      0.45      0.00
   -1   -3   13      2.81      0.00
    0   -3   13     -3.16      0.00
    1   -3   13     -0.72      0.00
    2   -3   13      2.34      0.00
    3   -3   13     -0.60      0.00
    4   -3   13      0.20      0.00
    5   -3   13     -0.16      0.00
    6   -3   13     -1.79      0.00
    7   -3   13      4.51      0.00
    8   -3   13     -1.21      0.00
    9   -3   13      0.84      0.00
   10   -3   13     -1.19      0.00
  -11   -2   13      1.68      0.00
  -10   -2   13     -0.89      0.00
   -9   -2   13     -2.46      0.00
   -8   -2   13      0.53      0.00
   -7   -2   13      0.23      0.00
   -6   -2   13     -2.18      0.00
   -5   -2   13     -1.36      0.00
   -4   -2   13     -0.37      0.00
   -3   -2   13     -2.80      0.00
   -2   -2   13      0.13      0.00
   -1   -2   13     -1.33      0.00
    0   -2   13      1.75      0.00
    1   -2   13     -1.84      0.00
    2   -2   13      0.57      0.00
    3   -2   13     -1.69      0.00
    4   -2   13      1.50      0.00
    5   -2   13      2.74      0.00
    6   -2   13     -2.30      0.00
    7   -2   13     -1.61      0.00
    8   -2   13      3.88      0.00
    9   -2   13     -6.08      0.00
   10   -2   13      2.45      0.00
  -11   -1   13     -1.44      0.00
  -10   -1   13      4.67      0.00
   -9   -1   13     -1.57      0.00
   -8   -1   13     -0.28      0.00
   -7   -1   13     -0.59      0.00
   -6   -1   13      0.60      0.00
   -5   -1   13     -1.59      0.00
   -4   -1   13      0.20      0.00
   -3   -1   13      2.75      0.00
   -2   -1   13     -3.87      0.00
   -1   -1   13      2.71      0.00
    0   -1   13     -1.07      0.00
    1   -1   13      1.42      0.00
    2   -1   13     -0.37      0.00
    3   -1   13     -0.14      0.00
    4   -1   13     -1.15      0.00
    5   -1   13     -0.38      0.00
    6   -1   13      0.18      0.00
    7   -1   13     -0.07      0.00
    8   -1   13      0.43      0.00
    9   -1   13      0.32      0.00
   10   -1   13      0.88      0.00
   11   -1   13     -0.94      0.00
  -11    0   13      6.86      0.00
  -10    0   13     -4.32      0.00
   -9    0   13     -1.54      0.00
   -8    0   13      0.47      0.00
   -7    0   13     -1.99      0.00
   -6    0   13     -0.15      0.00
   -5    0   13     -1.97      0.00
   -4    0   13     -0.26      0.00
   -3    0   13     -2.35      0.00
   -2    0   13      1.81      0.00
   -1    0   13     -3.55      0.00
    0    0   13     -0.41      0.00
    1    0   13     -1.63      0.00
    2    0   13      0.77      0.00
    3    0   13     -1.41      0.00
    4    0   13     -0.21      0.00
    5    0   13      1.52      0.00
    6    0   13     -0.68      0.00
    7    0   13      1.50      0.00
    8    0   13     -0.42      0.00
    9    0   13     -0.30      0.00
   10    0   13      1.86      0.00
   11    0   13     -1.46      0.00
  -11    1   13    -10.28      0.00
  -10    1   13      6.61      0.00
   -9    1   13      1.87      0.00
   -8    1   13     -0.90      0.00
   -7    1   13      0.17      0.00
   -6    1   13     -0.27      0.00
   -5    1   13     -0.58      0.00
   -4    1   13     -0.47      0.00
   -3    1   13     -1.16      0.00
   -2    1   13      0.72      0.00
   -1    1   13     -0.87      0.00
    0    1   13      0.86      0.00
    1    1   13      0.47      0.00
    2    1   13     -2.75      0.00
    3    1   13      1.06      0.00
    4    1   13      0.64      0.00
    5    1   13     -2.22      0.00
    6    1   13     -0.17      0.00
    7    1   13     -0.48      0.00
    8    1   13     -0.20      0.00
    9    1   13     -1.51      0.00
   10    1   13      0.28      0.00
   11    1   13      2.31      0.00
   12    1   13     -1.96      0.00
  -10    2   13     -6.40      0.00
   -9    2   13     -0.27      0.00
   -8    2   13     -0.25      0.00
   -7    2   13     -0.79      0.00
   -6    2   13     -0.54      0.00
   -5    2   13      0.10      0.00
   -4    2   13     -2.50      0.00
   -3    2   13      0.30      0.00
   -2    2   13     -0.32      0.00
   -1    2   13     -1.28      0.00
    0    2   13     -0.88      0.00
    1    2   13     -1.56      0.00
    2    2   13      0.46      0.00
    3    2   13     -1.88      0.00
    4    2   13     -0.99      0.00
    5    2   13      0.54      0.00
    6    2   13     -1.39      0.00
    7    2   13      1.87      0.00
    8    2   13      2.40      0.00
    9    2   13     -1.48      0.00
   10    2   13      1.39      0.00
   11    2   13     -0.03      0.00
   12    2   13     -0.82      0.00
  -10    3   13      2.14      0.00
   -9    3   13     -0.85      0.00
   -8    3   13     -3.25      0.00
   -7    3   13      2.41      0.00
   -6    3   13     -0.92      0.00
   -5    3   13     -0.69      0.00
   -4    3   13      0.39      0.00
   -3    3   13     -1.13      0.00
   -2    3   13     -1.83      0.00
   -1    3   13      0.88      0.00
    0    3   13     -1.24      0.00
    1    3   13      0.34      0.00
    2    3   13      0.53      0.00
    3    3   13     -1.74      0.00
    4    3   13     -0.68      0.00
    5    3   13      1.16      0.00
    6    3   13      0.02      0.00
    7    3   13     -2.71      0.00
    8    3   13      0.11      0.00
    9    3   13     -1.44      0.00
   10    3   13      0.47      0.00
   11    3   13      1.04      0.00
   12    3   13     -0.84      0.00
   -9    4   13      7.84      0.00
   -8    4   13     -3.39      0.00
   -7    4   13      0.29      0.00
   -6    4   13     -4.58      0.00
   -5    4   13      2.03      0.00
   -4    4   13      0.29      0.00
   -3    4   13     -2.20      0.00
   -2    4   13      0.42      0.00
   -1    4   13      0.91      0.00
    0    4   13     -2.50      0.00
    1    4   13      0.77      0.00
    2    4   13     -1.71      0.00
    3    4   13     -0.47      0.00
    4    4   13     -0.21      0.00
    5    4   13     -1.25      0.00
    6    4   13     -1.00      0.00
    7    4   13     -0.50      0.00
    8    4   13      4.09      0.00
    9    4   13     -1.07      0.00
   10    4   13      0.34      0.00
   11    4   13     -1.16      0.00
   12    4   13      1.88      0.00
   -9    5   13    -10.13      0.00
   -8    5   13      5.45      0.00
   -7    5   13     -2.11      0.00
   -6    5   13      1.15      0.00
   -5    5   13     -2.77      0.00
   -4    5   13     -0.13      0.00
   -3    5   13     -1.75      0.00
   -2    5   13      0.50      0.00
   -1    5   13     -0.57      0.00
    0    5   13     -0.88      0.00
    1    5   13     -2.38      0.00
    2    5   13      3.41      0.00
    3    5   13     -1.01      0.00
    4    5   13     -0.76      0.00
    5    5   13     -0.66      0.00
    6    5   13      1.82      0.00
    7    5   13     -2.89      0.00
    8    5   13     -0.43      0.00
    9    5   13     -0.12      0.00
   10    5   13     -1.42      0.00
   11    5   13      2.40      0.00
   12    5   13     -2.30      0.00
   -8    6   13     -5.57      0.00
   -7    6   13      2.89      0.00
   -6    6   13     -4.37      0.00
   -5    6   13      2.81      0.00
   -4    6   13      0.19      0.00
   -3    6   13     -4.35      0.00
   -2    6   13      2.50      0.00
   -1    6   13     -1.74      0.00
    0    6   13      2.04      0.00
    1    6   13     -0.70      0.00
    2    6   13     -0.44      0.00
    3    6   13     -0.87      0.00
    4    6   13     -0.08      0.00
    5    6   13     -0.12      0.00
    6    6   13      2.10      0.00
    7    6   13     -1.54      0.00
    8    6   13      0.34      0.00
    9    6   13      0.87      0.00
   10    6   13      2.10      0.00
   11    6   13     -4.12      0.00
   12    6   13      3.68      0.00
   -8    7   13      3.92      0.00
   -7    7   13     -5.16      0.00
   -6    7   13      0.63      0.00
   -5    7   13     -2.51      0.00
   -4    7   13     -0.18      0.00
   -3    7   13      1.95      0.00
   -2    7   13     -3.80      0.00
   -1    7   13      0.24      0.00
    0    7   13     -2.12      0.00
    1    7   13      2.92      0.00
    2    7   13     -4.70      0.00
    3    7   13      4.03      0.00
    4    7   13      0.26      0.00
    5    7   13     -1.33      0.00
    6    7   13     -1.17      0.00
    7    7   13      0.36      0.00
    8    7   13      0.63      0.00
    9    7   13     -2.49      0.00
   10    7   13     -0.66      0.00
   11    7   13      1.00      0.00
   12    7   13     -1.80      0.00
   -7    8   13      1.80      0.00
   -6    8   13     -3.92      0.00
   -5    8   13      1.58      0.00
   -4    8   13     -3.63      0.00
   -3    8   13      0.34      0.00
   -2    8   13      0.82      0.00
   -1    8   13     -0.06      0.00
    0    8   13     -1.48      0.00
    1    8   13      1.94      0.00
    2    8   13     -0.22      0.00
    3    8   13      1.41      0.00
    4    8   13     -3.44      0.00
    5    8   13      4.37      0.00
    6    8   13     -0.75      0.00
    7    8   13      0.84      0.00
    8    8   13     -0.25      0.00
    9    8   13      2.23      0.00
   10    8   13      0.14      0.00
   11    8   13     -0.02      0.00
   12    8   13     -0.28      0.00
   -6    9   13      4.85      0.00
   -5    9   13     -1.41      0.00
   -4    9   13     -1.33      0.00
   -3    9   13     -3.16      0.00
   -2    9   13      1.50      0.00
   -1    9   13      0.31      0.00
    0    9   13     -3.90      0.00
    1    9   13      2.68      0.00
    2    9   13     -1.97      0.00
    3    9   13      0.80      0.00
    4    9   13      0.16      0.00
    5    9   13      1.29      0.00
    6    9   13     -0.48      0.00
    7    9   13      1.01      0.00
    8    9   13      0.80      0.00
    9    9   13     -2.77      0.00
   10    9   13     -2.11      0.00
   11    9   13      3.80      0.00
   12    9   13     -3.29      0.00
   -5   10   13      1.03      0.00
   -4   10   13     -1.14      0.00
   -3   10   13      1.80      0.00
   -2   10   13     -2.86      0.00
   -1   10   13     -2.49      0.00
    0   10   13      3.87      0.00
    1   10   13     -0.86      0.00
    2   10   13     -0.68      0.00
    3   10   13      1.93      0.00
    4   10   13     -0.33      0.00
    5   10   13     -2.31      0.00
    6   10   13      2.58      0.00
    7   10   13     -1.87      0.00
    8   10   13     -1.33      0.00
    9   10   13      5.76      0.00
   10   10   13     -1.87      0.00
   11   10   13     -1.06      0.00
   12   10   13      0.36      0.00
   -4   11   13     -2.30      0.00
   -3   11   13      2.83      0.00
   -2   11   13     -2.67      0.00
   -1   11   13      1.14      0.00
    0   11   13     -0.98      0.00
    1   11   13     -1.62      0.00
    2   11   13     -1.90      0.00
    3   11   13      2.46      0.00
    4   11   13      2.43      0.00
    5   11   13     -1.06      0.00
    6   11   13      0.04      0.00
    7   11   13      4.38      0.00
    8   11   13     -0.41      0.00
    9   11   13     -0.70      0.00
   10   11   13      0.12      0.00
   11   11   13      0.73      0.00
   12   11   13     -0.22      0.00
   -3   12   13     -0.31      0.00
   -2   12   13      3.91      0.00
   -1   12   13     -5.71      0.00
    0   12   13      2.34      0.00
    1   12   13      2.75      0.00
    2   12   13     -2.06      0.00
    3   12   13     -0.48      0.00
    4   12   13     -1.63      0.00
    5   12   13     -0.55      0.00
    6   12   13      1.34      0.00
    7   12   13     -3.39      0.00
    8   12   13     -3.46      0.00
    9   12   13      3.99      0.00
   10   12   13     -6.24      0.00
   11   12   13      7.01      0.00
   -2   13   13     -2.47      0.00
   -1   13   13      1.44      0.00
    0   13   13      0.80      0.00
    1   13   13     -2.66      0.00
    2   13   13     -0.19      0.00
    3   13   13      0.87      0.00
    4   13   13      0.39      0.00
    5   13   13      1.67      0.00
    6   13   13     -0.75      0.00
    7   13   13      3.50      0.00
    8   13   13     -0.16      0.00
    9   13   13      3.66      0.00
   10   13   13      0.35      0.00
   11   13   13     -3.47      0.00
    0   14   13     -0.53      0.00
    1   14   13      1.84      0.00
    2   14   13      0.78      0.00
    3   14   13     -1.23      0.00
    4   14   13      0.16      0.00
    5   14   13     -3.29      0.00
    6   14   13      0.14      0.00
    7   14   13     -2.27      0.00
    8   14   13     -1.67      0.00
    9   14   13     -2.66      0.00
   10   14   13     -1.62      0.00
    2   15   13      1.85      0.00
    3   15   13     -1.58      0.00
    4   15   13      1.19      0.00
    5   15   13     -2.12      0.00
    6   15   13      4.01      0.00
    7   15   13     -0.68      0.00
    8   15   13     -1.30      0.00
   -6  -13   14      0.56      0.00
   -5  -13   14      0.23      0.00
   -4  -13   14      2.89      0.00
   -3  -13   14      5.80      0.00
   -2  -13   14     -8.31      0.00
   -8  -12   14      6.08      0.00
   -7  -12   14     -6.48      0.00
   -6  -12   14     -0.03      0.00
   -5  -12   14      1.76      0.00
   -4  -12   14     -3.04      0.00
   -3  -12   14      0.29      0.00
   -2  -12   14      4.47      0.00
   -1  -12   14     -2.32      0.00
    0  -12   14     -3.02      0.00
   -9  -11   14      4.42      0.00
   -8  -11   14     -4.87      0.00
   -7  -11   14      6.86      0.00
   -6  -11   14     -4.39      0.00
   -5  -11   14      2.63      0.00
   -4  -11   14      1.42      0.00
   -3  -11   14     -1.78      0.00
   -2  -11   14      3.55      0.00
   -1  -11   14      2.57      0.00
    0  -11   14      1.05      0.00
    1  -11   14      3.88      0.00
    2  -11   14    -13.39      0.00
  -10  -10   14      6.98      0.00
   -9  -10   14    -10.10      0.00
   -8  -10   14      2.73      0.00
   -7  -10   14     -1.42      0.00
   -6  -10   14     -0.49      0.00
   -5  -10   14     -3.16      0.00
   -4  -10   14      2.86      0.00
   -3  -10   14     -0.75      0.00
   -2  -10   14     -1.32      0.00
   -1  -10   14     -3.41      0.00
    0  -10   14      6.65      0.00
    1  -10   14     -4.01      0.00
    2  -10   14      7.23      0.00
    3  -10   14    -12.76      0.00
    4  -10   14      9.20      0.00
  -10   -9   14     -4.43      0.00
   -9   -9   14      5.32      0.00
   -8   -9   14     -5.66      0.00
   -7   -9   14     -0.38      0.00
   -6   -9   14      0.42      0.00
   -5   -9   14      1.22      0.00
   -4   -9   14     -0.42      0.00
   -3   -9   14     -2.43      0.00
   -2   -9   14      4.75      0.00
   -1   -9   14     -1.24      0.00
    0   -9   14     -4.16      0.00
    1   -9   14      5.27      0.00
    2   -9   14     -0.67      0.00
    3   -9   14      0.89      0.00
    4   -9   14      0.73      0.00
    5   -9   14     -4.21      0.00
  -11   -8   14     -4.68      0.00
  -10   -8   14     -1.33      0.00
   -9   -8   14      1.26      0.00
   -8   -8   14     -1.30      0.00
   -7   -8   14     -0.94      0.00
   -6   -8   14     -0.48      0.00
   -5   -8   14     -3.19      0.00
   -4   -8   14     -1.12      0.00
   -3   -8   14      3.50      0.00
   -2   -8   14     -1.54      0.00
   -1   -8   14      0.50      0.00
    0   -8   14      0.58      0.00
    1   -8   14      1.29      0.00
    2   -8   14     -2.92      0.00
    3   -8   14      3.12      0.00
    4   -8   14     -3.01      0.00
    5   -8   14      5.46      0.00
    6   -8   14     -7.09      0.00
  -11   -7   14      5.44      0.00
  -10   -7   14      1.54      0.00
   -9   -7   14     -3.77      0.00
   -8   -7   14      0.37      0.00
   -7   -7   14     -2.80      0.00
   -6   -7   14      1.52      0.00
   -5   -7   14     -0.28      0.00
   -4   -7   14     -0.62      0.00
   -3   -7   14     -3.85      0.00
   -2   -7   14      1.69      0.00
   -1   -7   14     -0.85      0.00
    0   -7   14     -1.77      0.00
    1   -7   14     -1.90      0.00
    2   -7   14      0.38      0.00
    3   -7   14      1.35      0.00
    4   -7   14     -2.09      0.00
    5   -7   14      1.98      0.00
    6   -7   14     -0.19      0.00
    7   -7   14     -0.16      0.00
  -11   -6   14     -6.96      0.00
  -10   -6   14     -2.22      0.00
   -9   -6   14      4.44      0.00
   -8   -6   14      0.99      0.00
   -7   -6   14     -3.18      0.00
   -6   -6   14      0.18      0.00
   -5   -6   14     -3.15      0.00
   -4   -6   14      3.06      0.00
   -3   -6   14     -3.15      0.00
   -2   -6   14      2.16      0.00
   -1   -6   14     -1.22      0.00
    0   -6   14      0.84      0.00
    1   -6   14      4.35      0.00
    2   -6   14     -2.85      0.00
    3   -6   14     -1.93      0.00
    4   -6   14      1.75      0.00
    5   -6   14      0.53      0.00
    6   -6   14     -1.10      0.00
    7   -6   14     -0.16      0.00
  -11   -5   14      5.63      0.00
  -10   -5   14     -1.27      0.00
   -9   -5   14     -1.07      0.00
   -8   -5   14     -2.77      0.00
   -7   -5   14      4.57      0.00
   -6   -5   14     -1.83      0.00
   -5   -5   14      0.48      0.00
   -4   -5   14     -2.28      0.00
   -3   -5   14     -0.25      0.00
   -2   -5   14      0.32      0.00
   -1   -5   14     -1.11      0.00
    0   -5   14     -2.42      0.00
    1   -5   14     -2.67      0.00
    2   -5   14      0.85      0.00
    3   -5   14      1.70      0.00
    4   -5   14     -5.04      0.00
    5   -5   14      2.43      0.00
    6   -5   14      0.25      0.00
    7   -5   14      2.70      0.00
    8   -5   14     -1.55      0.00
  -11   -4   14     -2.01      0.00
  -10   -4   14     -0.99      0.00
   -9   -4   14      3.47      0.00
   -8   -4   14     -1.35      0.00
   -7   -4   14     -0.28      0.00
   -6   -4   14     -1.09      0.00
   -5   -4   14      1.39      0.00
   -4   -4   14      0.60      0.00
   -3   -4   14     -3.15      0.00
   -2   -4   14     -0.42      0.00
   -1   -4   14      0.90      0.00
    0   -4   14      0.70      0.00
    1   -4   14     -0.21      0.00
    2   -4   14      0.00      0.00
    3   -4   14     -0.26      0.00
    4   -4   14      2.04      0.00
    5   -4   14     -1.97      0.00
    6   -4   14     -2.26      0.00
    7   -4   14      1.50      0.00
    8   -4   14     -0.73      0.00
    9   -4   14      1.08      0.00
  -11   -3   14      6.43      0.00
  -10   -3   14     -1.39      0.00
   -9   -3   14     -0.59      0.00
   -8   -3   14      1.56      0.00
   -7   -3   14      0.11      0.00
   -6   -3   14      1.61      0.00
   -5   -3   14     -1.04      0.00
   -4   -3   14      0.28      0.00
   -3   -3   14      2.64      0.00
   -2   -3   14     -0.38      0.00
   -1   -3   14     -2.38      0.00
    0   -3   14      0.77      0.00
    1   -3   14      1.72      0.00
    2   -3   14     -4.59      0.00
    3   -3   14      0.35      0.00
    4   -3   14      0.29      0.00
    5   -3   14     -1.12      0.00
    6   -3   14      2.01      0.00
    7   -3   14      0.14      0.00
    8   -3   14     -1.04      0.00
    9   -3   14      2.45      0.00
  -11   -2   14     -3.70      0.00
  -10   -2   14      0.74      0.00
   -9   -2   14      0.74      0.00
   -8   -2   14      0.13      0.00
   -7   -2   14      0.48      0.00
   -6   -2   14     -1.93      0.00
   -5   -2   14      2.71      0.00
   -4   -2   14     -1.25      0.00
   -3   -2   14     -1.76      0.00
   -2   -2   14      1.11      0.00
   -1   -2   14     -0.50      0.00
    0   -2   14     -1.92      0.00
    1   -2   14      0.08      0.00
    2   -2   14      1.92      0.00
    3   -2   14      0.32      0.00
    4   -2   14     -0.82      0.00
    5   -2   14     -1.07      0.00
    6   -2   14      0.23      0.00
    7   -2   14      2.17      0.00
    8   -2   14     -4.76      0.00
    9   -2   14      4.09      0.00
   10   -2   14     -3.54      0.00
  -11   -1   14      2.62      0.00
  -10   -1   14     -2.63      0.00
   -9   -1   14      0.74      0.00
   -8   -1   14      2.23      0.00
   -7   -1   14      1.48      0.00
   -6   -1   14     -0.75      0.00
   -5   -1   14      2.39      0.00
   -4   -1   14      0.01      0.00
   -3   -1   14      0.72      0.00
   -2   -1   14      1.65      0.00
   -1   -1   14      0.76      0.00
    0   -1   14      1.84      0.00
    1   -1   14     -1.28      0.00
    2   -1   14     -0.81      0.00
    3   -1   14      0.40      0.00
    4   -1   14      0.02      0.00
    5   -1   14      0.43      0.00
    6   -1   14     -1.77      0.00
    7   -1   14     -0.17      0.00
    8   -1   14      1.83      0.00
    9   -1   14     -2.36      0.00
   10   -1   14      2.59      0.00
  -11    0   14     -5.02      0.00
  -10    0   14      2.34      0.00
   -9    0   14     -1.69      0.00
   -8    0   14     -2.16      0.00
   -7    0   14      1.27      0.00
   -6    0   14     -0.02      0.00
   -5    0   14      1.10      0.00
   -4    0   14     -1.03      0.00
   -3    0   14      2.59      0.00
   -2    0   14     -4.10      0.00
   -1    0   14      1.50      0.00
    0    0   14      0.53      0.00
    1    0   14     -0.21      0.00
    2    0   14      0.39      0.00
    3    0   14      0.76      0.00
    4    0   14     -0.66      0.00
    5    0   14      0.33      0.00
    6    0   14      1.24      0.00
    7    0   14     -0.26      0.00
    8    0   14      0.34      0.00
    9    0   14      0.90      0.00
   10    0   14     -0.44      0.00
   11    0   14     -1.94      0.00
  -10    1   14     -1.06      0.00
   -9    1   14     -2.88      0.00
   -8    1   14      4.22      0.00
   -7    1   14     -0.14      0.00
   -6    1   14      0.28      0.00
   -5    1   14      0.50      0.00
   -4    1   14      1.69      0.00
   -3    1   14      0.13      0.00
   -2    1   14      2.58      0.00
   -1    1   14     -0.62      0.00
    0    1   14      0.64      0.00
    1    1   14      1.49      0.00
    2    1   14      1.37      0.00
    3    1   14      0.02      0.00
    4    1   14     -0.11      0.00
    5    1   14     -0.25      0.00
    6    1   14     -0.47      0.00
    7    1   14      0.20      0.00
    8    1   14     -2.79      0.00
    9    1   14      0.09      0.00
   10    1   14      2.49      0.00
   11    1   14     -4.54      0.00
  -10    2   14      7.80      0.00
   -9    2   14     -2.56      0.00
   -8    2   14     -0.80      0.00
   -7    2   14     -0.53      0.00
   -6    2   14     -0.28      0.00
   -5    2   14      0.60      0.00
   -4    2   14      1.29      0.00
   -3    2   14     -0.58      0.00
   -2    2   14      1.68      0.00
   -1    2   14     -0.51      0.00
    0    2   14      1.10      0.00
    1    2   14      0.51      0.00
    2    2   14     -1.85      0.00
    3    2   14      2.04      0.00
    4    2   14      2.08      0.00
    5    2   14     -0.79      0.00
    6    2   14      0.43      0.00
    7    2   14      1.22      0.00
    8    2   14     -0.25      0.00
    9    2   14      0.57      0.00
   10    2   14      0.68      0.00
   11    2   14      0.79      0.00
  -10    3   14     -1.95      0.00
   -9    3   14      1.09      0.00
   -8    3   14      3.57      0.00
   -7    3   14     -1.29      0.00
   -6    3   14      1.43      0.00
   -5    3   14      0.86      0.00
   -4    3   14     -1.98      0.00
   -3    3   14      1.27      0.00
   -2    3   14      1.98      0.00
   -1    3   14     -1.23      0.00
    0    3   14      1.46      0.00
    1    3   14      1.41      0.00
    2    3   14      0.53      0.00
    3    3   14      1.38      0.00
    4    3   14      0.04      0.00
    5    3   14      0.73      0.00
    6    3   14     -1.64      0.00
    7    3   14      1.67      0.00
    8    3   14     -1.38      0.00
    9    3   14     -0.90      0.00
   10    3   14     -0.79      0.00
   11    3   14     -1.73      0.00
   12    3   14      2.27      0.00
   -9    4   14     -6.15      0.00
   -8    4   14      0.96      0.00
   -7    4   14     -1.32      0.00
   -6    4   14      3.91      0.00
   -5    4   14     -1.09      0.00
   -4    4   14     -0.08      0.00
   -3    4   14      2.04      0.00
   -2    4   14      1.07      0.00
   -1    4   14     -1.09      0.00
    0    4   14      2.19      0.00
    1    4   14     -0.12      0.00
    2    4   14      0.86      0.00
    3    4   14     -0.22      0.00
    4    4   14     -0.64      0.00
    5    4   14      3.67      0.00
    6    4   14     -0.88      0.00
    7    4   14      2.06      0.00
    8    4   14     -2.16      0.00
    9    4   14      0.86      0.00
   10    4   14      1.56      0.00
   11    4   14      1.61      0.00
   12    4   14     -4.06      0.00
   -9    5   14     11.15      0.00
   -8    5   14     -3.25      0.00
   -7    5   14      0.56      0.00
   -6    5   14     -2.28      0.00
   -5    5   14      4.15      0.00
   -4    5   14     -1.22      0.00
   -3    5   14      0.45      0.00
   -2    5   14     -1.09      0.00
   -1    5   14      1.02      0.00
    0    5   14     -0.30      0.00
    1    5   14      2.10      0.00
    2    5   14     -1.49      0.00
    3    5   14      1.07      0.00
    4    5   14      2.09      0.00
    5    5   14     -0.59      0.00
    6    5   14     -2.26      0.00
    7    5   14      1.01      0.00
    8    5   14      2.68      0.00
    9    5   14     -3.23      0.00
   10    5   14      0.49      0.00
   11    5   14     -3.34      0.00
   12    5   14      4.92      0.00
   -8    6   14      6.93      0.00
   -7    6   14     -1.86      0.00
   -6    6   14      3.32      0.00
   -5    6   14     -4.02      0.00
   -4    6   14      2.23      0.00
   -3    6   14      2.57      0.00
   -2    6   14      0.87      0.00
   -1    6   14      0.17      0.00
    0    6   14      1.00      0.00
    1    6   14     -1.71      0.00
    2    6   14      3.31      0.00
    3    6   14     -0.10      0.00
    4    6   14     -2.05      0.00
    5    6   14      2.96      0.00
    6    6   14     -0.38      0.00
    7    6   14      1.02      0.00
    8    6   14     -0.49      0.00
    9    6   14      2.22      0.00
   10    6   14     -1.90      0.00
   11    6   14      5.73      0.00
   12    6   14     -6.32      0.00
   -7    7   14      4.37      0.00
   -6    7   14      0.66      0.00
   -5    7   14      3.42      0.00
   -4    7   14     -1.67      0.00
   -3    7   14     -2.91      0.00
   -2    7   14      4.04      0.00
   -1    7   14     -2.85      0.00
    0    7   14      3.05      0.00
    1    7   14     -4.11      0.00
    2    7   14      4.02      0.00
    3    7   14     -3.79      0.00
    4    7   14      1.38      0.00
    5    7   14     -0.21      0.00
    6    7   14      0.42      0.00
    7    7   14     -1.51      0.00
    8    7   14     -0.76      0.00
    9    7   14     -0.63      0.00
   10    7   14      0.99      0.00
   11    7   14     -4.26      0.00
   12    7   14      4.35      0.00
   -7    8   14     -4.13      0.00
   -6    8   14      3.64      0.00
   -5    8   14     -4.41      0.00
   -4    8   14      6.59      0.00
   -3    8   14      0.29      0.00
   -2    8   14     -2.29      0.00
   -1    8   14      2.22      0.00
    0    8   14      2.31      0.00
    1    8   14     -1.11      0.00
    2    8   14      0.04      0.00
    3    8   14      0.66      0.00
    4    8   14      1.18      0.00
    5    8   14     -2.51      0.00
    6    8   14      0.71      0.00
    7    8   14      0.56      0.00
    8    8   14      1.51      0.00
    9    8   14     -0.83      0.00
   10    8   14      2.56      0.00
   11    8   14      0.44      0.00
   12    8   14     -0.72      0.00
   -6    9   14     -4.09      0.00
   -5    9   14      3.56      0.00
   -4    9   14     -1.94      0.00
   -3    9   14      3.42      0.00
   -2    9   14     -0.18      0.00
   -1    9   14     -2.47      0.00
    0    9   14      2.70      0.00
    1    9   14     -3.20      0.00
    2    9   14      1.18      0.00
    3    9   14     -0.52      0.00
    4    9   14     -0.87      0.00
    5    9   14      1.11      0.00
    6    9   14     -1.09      0.00
    7    9   14     -1.10      0.00
    8    9   14     -0.40      0.00
    9    9   14     -0.52      0.00
   10    9   14     -0.53      0.00
   11    9   14     -1.98      0.00
   12    9   14      1.50      0.00
   -5   10   14     -4.06      0.00
   -4   10   14      4.09      0.00
   -3   10   14     -4.53      0.00
   -2   10   14      3.15      0.00
   -1   10   14      5.13      0.00
    0   10   14     -5.50      0.00
    1   10   14      3.68      0.00
    2   10   14      0.76      0.00
    3   10   14     -1.51      0.00
    4   10   14     -2.76      0.00
    5   10   14      2.92      0.00
    6   10   14     -3.31      0.00
    7   10   14      0.25      0.00
    8   10   14      1.66      0.00
    9   10   14     -4.64      0.00
   10   10   14      2.69      0.00
   11   10   14      2.72      0.00
   12   10   14     -2.04      0.00
   -4   11   14      0.76      0.00
   -3   11   14      2.12      0.00
   -2   11   14     -2.80      0.00
   -1   11   14     -0.84      0.00
    0   11   14      3.38      0.00
    1   11   14     -3.44      0.00
    2   11   14      1.99      0.00
    3   11   14     -0.28      0.00
    4   11   14     -0.86      0.00
    5   11   14     -0.02      0.00
    6   11   14      4.91      0.00
    7   11   14     -5.49      0.00
    8   11   14      2.99      0.00
    9   11   14      1.58      0.00
   10   11   14     -0.09      0.00
   11   11   14     -3.68      0.00
   -3   12   14      1.06      0.00
   -2   12   14     -3.11      0.00
   -1   12   14      7.40      0.00
    0   12   14     -5.10      0.00
    1   12   14      1.06      0.00
    2   12   14      0.78      0.00
    3   12   14     -0.02      0.00
    4   12   14      0.67      0.00
    5   12   14     -1.77      0.00
    6   12   14     -5.85      0.00
    7   12   14      3.00      0.00
    8   12   14      0.68      0.00
    9   12   14     -8.03      0.00
   10   12   14      4.02      0.00
   11   12   14     -0.86      0.00
   -1   13   14     -4.86      0.00
    0   13   14      2.50      0.00
    1   13   14      1.05      0.00
    2   13   14     -1.89      0.00
    3   13   14     -0.25      0.00
    4   13   14      0.90      0.00
    5   13   14     -0.15      0.00
    6   13   14      6.79      0.00
    7   13   14     -4.05      0.00
    8   13   14      3.54      0.00
    9   13   14      2.29      0.00
   10   13   14     -1.21      0.00
    1   14   14      0.57      0.00
    2   14   14     -2.15      0.00
    3   14   14      2.50      0.00
    4   14   14     -1.87      0.00
    5   14   14      2.06      0.00
    6   14   14     -5.30      0.00
    7   14   14      0.60      0.00
    8   14   14     -1.22      0.00
    9   14   14     -1.69      0.00
    3   15   14     -1.44      0.00
    4   15   14      2.04      0.00
    5   15   14     -2.48      0.00
    6   15   14      5.16      0.00
    7   15   14     -0.91      0.00
   -7  -12   15      3.05      0.00
   -6  -12   15     -1.31      0.00
   -5  -12   15     -2.56      0.00
   -4  -12   15      1.69      0.00
   -3  -12   15     -1.78      0.00
   -2  -12   15     -7.43      0.00
   -1  -12   15      1.02      0.00
   -8  -11   15      7.38      0.00
   -7  -11   15     -8.01      0.00
   -6  -11   15      4.10      0.00
   -5  -11   15      2.72      0.00
   -4  -11   15     -2.85      0.00
   -3  -11   15      5.00      0.00
   -2  -11   15     -0.97      0.00
   -1  -11   15      0.92      0.00
    0  -11   15     -5.79      0.00
    1  -11   15      2.01      0.00
   -9  -10   15      8.29      0.00
   -8  -10   15     -4.16      0.00
   -7  -10   15      5.70      0.00
   -6  -10   15     -4.36      0.00
   -5  -10   15      1.07      0.00
   -4  -10   15     -2.16      0.00
   -3  -10   15     -2.21      0.00
   -2  -10   15      2.43      0.00
   -1  -10   15     -1.54      0.00
    0  -10   15     -1.44      0.00
    1  -10   15      1.21      0.00
    2  -10   15    -11.67      0.00
    3  -10   15     15.74      0.00
  -10   -9   15     13.61      0.00
   -9   -9   15    -11.55      0.00
   -8   -9   15      8.71      0.00
   -7   -9   15      1.04      0.00
   -6   -9   15     -0.44      0.00
   -5   -9   15      0.99      0.00
   -4   -9   15      1.70      0.00
   -3   -9   15      1.13      0.00
   -2   -9   15     -4.24      0.00
   -1   -9   15      0.81      0.00
    0   -9   15      6.95      0.00
    1   -9   15     -7.62      0.00
    2   -9   15      5.33      0.00
    3   -9   15     -7.28      0.00
    4   -9   15      4.28      0.00
  -10   -8   15     -6.04      0.00
   -9   -8   15      8.67      0.00
   -8   -8   15     -8.84      0.00
   -7   -8   15      6.33      0.00
   -6   -8   15     -1.76      0.00
   -5   -8   15      2.89      0.00
   -4   -8   15      0.11      0.00
   -3   -8   15     -1.15      0.00
   -2   -8   15      3.74      0.00
   -1   -8   15     -3.42      0.00
    0   -8   15      0.12      0.00
    1   -8   15      1.24      0.00
    2   -8   15      3.36      0.00
    3   -8   15     -6.13      0.00
    4   -8   15      6.48      0.00
    5   -8   15     -8.96      0.00
  -11   -7   15     -7.40      0.00
  -10   -7   15      5.27      0.00
   -9   -7   15     -2.40      0.00
   -8   -7   15      5.41      0.00
   -7   -7   15      0.22      0.00
   -6   -7   15      1.38      0.00
   -5   -7   15     -0.58      0.00
   -4   -7   15     -0.24      0.00
   -3   -7   15      3.84      0.00
   -2   -7   15     -3.83      0.00
   -1   -7   15      0.98      0.00
    0   -7   15     -0.28      0.00
    1   -7   15     -0.22      0.00
    2   -7   15     -1.67      0.00
    3   -7   15      1.37      0.00
    4   -7   15     -0.89      0.00
    5   -7   15      1.82      0.00
    6   -7   15     -3.94      0.00
  -11   -6   15      7.89      0.00
  -10   -6   15     -1.15      0.00
   -9   -6   15      0.99      0.00
   -8   -6   15     -3.37      0.00
   -7   -6   15      1.85      0.00
   -6   -6   15      1.02      0.00
   -5   -6   15      3.82      0.00
   -4   -6   15     -2.60      0.00
   -3   -6   15      2.75      0.00
   -2   -6   15      1.96      0.00
   -1   -6   15      1.52      0.00
    0   -6   15      0.69      0.00
    1   -6   15     -0.96      0.00
    2   -6   15      3.74      0.00
    3   -6   15     -0.64      0.00
    4   -6   15      1.90      0.00
    5   -6   15     -3.13      0.00
    6   -6   15      1.29      0.00
    7   -6   15     -2.76      0.00
  -11   -5   15     -9.08      0.00
  -10   -5   15      2.19      0.00
   -9   -5   15     -0.71      0.00
   -8   -5   15      5.23      0.00
   -7   -5   15     -4.32      0.00
   -6   -5   15      3.32      0.00
   -5   -5   15     -1.56      0.00
   -4   -5   15      4.38      0.00
   -3   -5   15     -1.88      0.00
   -2   -5   15      0.72      0.00
   -1   -5   15     -2.36      0.00
    0   -5   15      1.85      0.00
    1   -5   15      1.04      0.00
    2   -5   15     -2.85      0.00
    3   -5   15     -2.19      0.00
    4   -5   15      3.30      0.00
    5   -5   15      0.20      0.00
    6   -5   15      0.20      0.00
    7   -5   15     -0.47      0.00
    8   -5   15     -0.31      0.00
  -11   -4   15      3.28      0.00
  -10   -4   15      0.88      0.00
   -9   -4   15     -1.23      0.00
   -8   -4   15     -0.53      0.00
   -7   -4   15      2.18      0.00
   -6   -4   15     -1.20      0.00
   -5   -4   15      1.11      0.00
   -4   -4   15     -2.95      0.00
   -3   -4   15      4.00      0.00
   -2   -4   15      0.21      0.00
   -1   -4   15      2.92      0.00
    0   -4   15     -1.81      0.00
    1   -4   15      1.76      0.00
    2   -4   15      3.29      0.00
    3   -4   15      1.27      0.00
    4   -4   15     -2.64      0.00
    5   -4   15      0.59      0.00
    6   -4   15      1.91      0.00
    7   -4   15     -2.76      0.00
    8   -4   15     -1.45      0.00
  -11   -3   15     -4.63      0.00
  -10   -3   15     -2.06      0.00
   -9   -3   15      2.70      0.00
   -8   -3   15     -1.74      0.00
   -7   -3   15     -0.32      0.00
   -6   -3   15      1.39      0.00
   -5   -3   15      0.74      0.00
   -4   -3   15      2.75      0.00
   -3   -3   15     -2.40      0.00
   -2   -3   15      1.37      0.00
   -1   -3   15      0.92      0.00
    0   -3   15      1.49      0.00
    1   -3   15     -4.01      0.00
    2   -3   15      3.61      0.00
    3   -3   15     -2.28      0.00
    4   -3   15      0.78      0.00
    5   -3   15      0.65      0.00
    6   -3   15     -1.03      0.00
    7   -3   15     -0.35      0.00
    8   -3   15      4.95      0.00
    9   -3   15     -3.43      0.00
  -11   -2   15      6.17      0.00
  -10   -2   15     -2.94      0.00
   -9   -2   15      0.76      0.00
   -8   -2   15     -0.33      0.00
   -7   -2   15     -3.50      0.00
   -6   -2   15      4.88      0.00
   -5   -2   15     -5.36      0.00
   -4   -2   15      0.52      0.00
   -3   -2   15      1.41      0.00
   -2   -2   15     -1.59      0.00
   -1   -2   15     -0.25      0.00
    0   -2   15      0.66      0.00
    1   -2   15      2.78      0.00
    2   -2   15     -2.33      0.00
    3   -2   15      1.23      0.00
    4   -2   15      2.78      0.00
    5   -2   15     -1.50      0.00
    6   -2   15      1.05      0.00
    7   -2   15     -0.62      0.00
    8   -2   15     -2.16      0.00
    9   -2   15      0.14      0.00
   10   -2   15      0.14      0.00
  -10   -1   15      3.60      0.00
   -9   -1   15      0.09      0.00
   -8   -1   15     -0.25      0.00
   -7   -1   15      0.84      0.00
   -6   -1   15     -2.63      0.00
   -5   -1   15      2.40      0.00
   -4   -1   15      1.41      0.00
   -3   -1   15     -1.79      0.00
   -2   -1   15      2.87      0.00
   -1   -1   15     -0.35      0.00
    0   -1   15     -1.02      0.00
    1   -1   15      0.45      0.00
    2   -1   15      2.95      0.00
    3   -1   15     -3.35      0.00
    4   -1   15      0.42      0.00
    5   -1   15     -0.05      0.00
    6   -1   15     -0.57      0.00
    7   -1   15      1.12      0.00
    8   -1   15     -1.72      0.00
    9   -1   15      3.20      0.00
   10   -1   15     -2.95      0.00
  -10    0   15     -6.77      0.00
   -9    0   15      2.65      0.00
   -8    0   15      0.07      0.00
   -7    0   15     -1.35      0.00
   -6    0   15     -0.21      0.00
   -5    0   15     -1.36      0.00
   -4    0   15     -1.12      0.00
   -3    0   15     -0.52      0.00
   -2    0   15     -0.58      0.00
   -1    0   15      0.58      0.00
    0    0   15     -1.27      0.00
    1    0   15     -1.63      0.00
    2    0   15     -0.44      0.00
    3    0   15      1.58      0.00
    4    0   15      0.15      0.00
    5    0   15      1.62      0.00
    6    0   15     -0.38      0.00
    7    0   15      0.97      0.00
    8    0   15     -0.47      0.00
    9    0   15     -0.01      0.00
   10    0   15     -1.02      0.00
  -10    1   15      1.14      0.00
   -9    1   15      3.83      0.00
   -8    1   15     -1.46      0.00
   -7    1   15      0.71      0.00
   -6    1   15      0.79      0.00
   -5    1   15      0.96      0.00
   -4    1   15     -2.77      0.00
   -3    1   15      2.40      0.00
   -2    1   15     -2.92      0.00
   -1    1   15      0.78      0.00
    0    1   15      2.42      0.00
    1    1   15     -1.77      0.00
    2    1   15      0.36      0.00
    3    1   15     -1.01      0.00
    4    1   15     -0.88      0.00
    5    1   15     -0.47      0.00
    6    1   15     -0.38      0.00
    7    1   15     -0.78      0.00
    8    1   15      0.62      0.00
    9    1   15      0.80      0.00
   10    1   15     -3.37      0.00
   11    1   15      2.32      0.00
  -10    2   15     -7.31      0.00
   -9    2   15     -0.92      0.00
   -8    2   15     -0.19      0.00
   -7    2   15      0.24      0.00
   -6    2   15     -0.88      0.00
   -5    2   15     -0.61      0.00
   -4    2   15      0.14      0.00
   -3    2   15      0.96      0.00
   -2    2   15     -2.13      0.00
   -1    2   15      0.02      0.00
    0    2   15     -2.00      0.00
    1    2   15     -0.78      0.00
    2    2   15      1.10      0.00
    3    2   15     -1.99      0.00
    4    2   15     -0.81      0.00
    5    2   15      0.90      0.00
    6    2   15      1.28      0.00
    7    2   15      1.37      0.00
    8    2   15     -1.57      0.00
    9    2   15      2.12      0.00
   10    2   15      1.41      0.00
   11    2   15     -2.54      0.00
   -9    3   15      0.16      0.00
   -8    3   15     -0.36      0.00
   -7    3   15      1.90      0.00
   -6    3   15     -1.12      0.00
   -5    3   15     -0.41      0.00
   -4    3   15      0.78      0.00
   -3    3   15     -1.10      0.00
   -2    3   15     -2.05      0.00
   -1    3   15      0.75      0.00
    0    3   15      0.01      0.00
    1    3   15     -1.65      0.00
    2    3   15     -0.81      0.00
    3    3   15      0.12      0.00
    4    3   15      1.42      0.00
    5    3   15     -4.09      0.00
    6    3   15      0.70      0.00
    7    3   15     -1.45      0.00
    8    3   15      0.51      0.00
    9    3   15     -0.91      0.00
   10    3   15      1.10      0.00
   11    3   15     -0.13      0.00
   -9    4   15      1.69      0.00
   -8    4   15     -0.97      0.00
   -7    4   15      0.40      0.00
   -6    4   15     -1.73      0.00
   -5    4   15     -0.08      0.00
   -4    4   15      0.40      0.00
   -3    4   15      0.43      0.00
   -2    4   15     -0.23      0.00
   -1    4   15      0.88      0.00
    0    4   15     -1.83      0.00
    1    4   15      0.37      0.00
    2    4   15     -1.74      0.00
    3    4   15     -0.81      0.00
    4    4   15      0.83      0.00
    5    4   15     -2.35      0.00
    6    4   15      1.14      0.00
    7    4   15      1.14      0.00
    8    4   15     -0.27      0.00
    9    4   15      1.83      0.00
   10    4   15     -1.27      0.00
   11    4   15     -0.16      0.00
   12    4   15      3.71      0.00
   -8    5   15      1.45      0.00
   -7    5   15     -0.03      0.00
   -6    5   15      4.35      0.00
   -5    5   15     -3.53      0.00
   -4    5   15     -0.57      0.00
   -3    5   15     -0.63      0.00
   -2    5   15     -0.50      0.00
   -1    5   15     -1.67      0.00
    0    5   15     -0.63      0.00
    1    5   15     -0.57      0.00
    2    5   15      0.12      0.00
    3    5   15     -0.99      0.00
    4    5   15     -2.09      0.00
    5    5   15      1.54      0.00
    6    5   15     -1.04      0.00
    7    5   15     -0.13      0.00
    8    5   15     -3.96      0.00
    9    5   15      1.31      0.00
   10    5   15      1.47      0.00
   11    5   15      0.08      0.00
   12    5   15     -3.59      0.00
   -8    6   15     -4.04      0.00
   -7    6   15     -0.96      0.00
   -6    6   15     -4.16      0.00
   -5    6   15      5.20      0.00
   -4    6   15     -1.79      0.00
   -3    6   15      0.14      0.00
   -2    6   15     -1.21      0.00
   -1    6   15      2.80      0.00
    0    6   15     -1.73      0.00
    1    6   15      3.11      0.00
    2    6   15     -3.49      0.00
    3    6   15     -0.48      0.00
    4    6   15      3.71      0.00
    5    6   15     -4.03      0.00
    6    6   15      0.46      0.00
    7    6   15      1.23      0.00
    8    6   15      3.02      0.00
    9    6   15     -2.61      0.00
   10    6   15      2.12      0.00
   11    6   15     -4.18      0.00
   12    6   15      7.41      0.00
   -7    7   15     -0.54      0.00
   -6    7   15     -0.95      0.00
   -5    7   15     -3.11      0.00
   -4    7   15      1.68      0.00
   -3    7   15      1.73      0.00
   -2    7   15     -3.80      0.00
   -1    7   15      0.17      0.00
    0    7   15     -2.96      0.00
    1    7   15      1.27      0.00
    2    7   15     -1.86      0.00
    3    7   15      2.66      0.00
    4    7   15     -3.86      0.00
    5    7   15      2.29      0.00
    6    7   15     -1.72      0.00
    7    7   15     -0.30      0.00
    8    7   15     -2.04      0.00
    9    7   15      1.24      0.00
   10    7   15     -2.50      0.00
   11    7   15      3.76      0.00
   12    7   15     -5.81      0.00
   -6    8   15     -0.91      0.00
   -5    8   15      3.46      0.00
   -4    8   15     -7.32      0.00
   -3    8   15     -0.30      0.00
   -2    8   15      5.66      0.00
   -1    8   15     -2.11      0.00
    0    8   15     -0.04      0.00
    1    8   15      1.81      0.00
    2    8   15      0.59      0.00
    3    8   15     -1.81      0.00
    4    8   15      1.53      0.00
    5    8   15      0.52      0.00
    6    8   15      0.38      0.00
    7    8   15      0.84      0.00
    8    8   15      0.74      0.00
    9    8   15      0.39      0.00
   10    8   15      0.86      0.00
   11    8   15     -1.60      0.00
   12    8   15      3.80      0.00
   -5    9   15     -2.55      0.00
   -4    9   15      5.09      0.00
   -3    9   15     -4.18      0.00
   -2    9   15     -2.34      0.00
   -1    9   15      2.10      0.00
    0    9   15     -3.09      0.00
    1    9   15      0.81      0.00
    2    9   15     -0.97      0.00
    3    9   15      0.96      0.00
    4    9   15     -0.05      0.00
    5    9   15     -0.15      0.00
    6    9   15      0.85      0.00
    7    9   15      0.17      0.00
    8    9   15     -1.24      0.00
    9    9   15      0.41      0.00
   10    9   15      0.24      0.00
   11    9   15     -1.77      0.00
   12    9   15     -1.16      0.00
   -4   10   15     -5.49      0.00
   -3   10   15      3.82      0.00
   -2   10   15      0.92      0.00
   -1   10   15     -6.16      0.00
    0   10   15      7.55      0.00
    1   10   15     -2.73      0.00
    2   10   15      0.13      0.00
    3   10   15      0.17      0.00
    4   10   15      3.33      0.00
    5   10   15     -3.22      0.00
    6   10   15      0.22      0.00
    7   10   15      1.03      0.00
    8   10   15      0.11      0.00
    9   10   15      1.92      0.00
   10   10   15     -1.31      0.00
   11   10   15      0.44      0.00
   -3   11   15     -5.32      0.00
   -2   11   15      4.26      0.00
   -1   11   15      0.32      0.00
    0   11   15     -6.46      0.00
    1   11   15      4.79      0.00
    2   11   15     -2.51      0.00
    3   11   15      1.30      0.00
    4   11   15     -1.61      0.00
    5   11   15      5.22      0.00
    6   11   15     -2.79      0.00
    7   11   15      6.04      0.00
    8   11   15     -2.94      0.00
    9   11   15      0.49      0.00
   10   11   15      1.30      0.00
   11   11   15      0.64      0.00
   -2   12   15     -0.31      0.00
   -1   12   15     -4.30      0.00
    0   12   15      8.16      0.00
    1   12   15     -4.20      0.00
    2   12   15      1.28      0.00
    3   12   15      1.24      0.00
    4   12   15     -2.74      0.00
    5   12   15     -0.85      0.00
    6   12   15      3.78      0.00
    7   12   15     -7.35      0.00
    8   12   15      0.52      0.00
    9   12   15      3.73      0.00
   10   12   15     -2.23      0.00
   -1   13   15      5.11      0.00
    0   13   15     -5.35      0.00
    1   13   15     -0.59      0.00
    2   13   15      2.32      0.00
    3   13   15      0.06      0.00
    4   13   15      0.52      0.00
    5   13   15      2.73      0.00
    6   13   15     -4.65      0.00
    7   13   15      9.16      0.00
    8   13   15      0.30      0.00
    9   13   15     -3.51      0.00
    1   14   15     -1.11      0.00
    2   14   15      0.49      0.00
    3   14   15      0.59      0.00
    4   14   15     -2.19      0.00
    5   14   15     -0.71      0.00
    6   14   15      2.54      0.00
    7   14   15     -6.58      0.00
    8   14   15     -0.33      0.00
   -5  -12   16     -1.75      0.00
   -4  -12   16     -3.58      0.00
   -3  -12   16     -0.39      0.00
   -2  -12   16      5.90      0.00
   -7  -11   16      5.33      0.00
   -6  -11   16     -1.24      0.00
   -5  -11   16      0.75      0.00
   -4  -11   16      2.99      0.00
   -3  -11   16     -1.08      0.00
   -2  -11   16     -1.85      0.00
   -1  -11   16      2.93      0.00
    0  -11   16      8.79      0.00
   -9  -10   16     -2.65      0.00
   -8  -10   16      0.91      0.00
   -7  -10   16     -9.73      0.00
   -6  -10   16      4.50      0.00
   -5  -10   16     -0.57      0.00
   -4  -10   16     -1.81      0.00
   -3  -10   16      2.46      0.00
   -2  -10   16     -4.36      0.00
   -1  -10   16      2.30      0.00
    0  -10   16     -6.44      0.00
    1  -10   16      5.25      0.00
    2  -10   16      5.69      0.00
   -9   -9   16      5.90      0.00
   -8   -9   16      0.98      0.00
   -7   -9   16     -1.23      0.00
   -6   -9   16     -0.25      0.00
   -5   -9   16     -0.87      0.00
   -4   -9   16     -0.73      0.00
   -3   -9   16      0.23      0.00
   -2   -9   16      3.72      0.00
   -1   -9   16      0.03      0.00
    0   -9   16     -3.92      0.00
    1   -9   16      5.29      0.00
    2   -9   16     -8.21      0.00
    3   -9   16     12.45      0.00
  -10   -8   16      8.04      0.00
   -9   -8   16    -13.23      0.00
   -8   -8   16      6.95      0.00
   -7   -8   16     -6.01      0.00
   -6   -8   16     -0.82      0.00
   -5   -8   16     -0.29      0.00
   -4   -8   16     -0.09      0.00
   -3   -8   16     -0.29      0.00
   -2   -8   16     -3.42      0.00
   -1   -8   16      4.38      0.00
    0   -8   16      1.71      0.00
    1   -8   16     -3.08      0.00
    2   -8   16     -1.58      0.00
    3   -8   16      4.57      0.00
    4   -8   16     -5.39      0.00
    5   -8   16      7.59      0.00
  -10   -7   16     -6.11      0.00
   -9   -7   16      6.17      0.00
   -8   -7   16     -8.62      0.00
   -7   -7   16      5.45      0.00
   -6   -7   16     -3.38      0.00
   -5   -7   16     -0.28      0.00
   -4   -7   16     -0.53      0.00
   -3   -7   16     -2.32      0.00
   -2   -7   16      0.86      0.00
   -1   -7   16     -4.73      0.00
    0   -7   16      1.17      0.00
    1   -7   16      0.13      0.00
    2   -7   16      0.86      0.00
    3   -7   16     -3.80      0.00
    4   -7   16      4.18      0.00
    5   -7   16     -5.70      0.00
    6   -7   16      6.92      0.00
  -10   -6   16      4.17      0.00
   -9   -6   16     -3.81      0.00
   -8   -6   16      3.39      0.00
   -7   -6   16     -3.50      0.00
   -6   -6   16     -1.03      0.00
   -5   -6   16     -3.72      0.00
   -4   -6   16      1.32      0.00
   -3   -6   16      0.78      0.00
   -2   -6   16     -1.84      0.00
   -1   -6   16      2.42      0.00
    0   -6   16      0.23      0.00
    1   -6   16      1.05      0.00
    2   -6   16     -2.09      0.00
    3   -6   16      4.13      0.00
    4   -6   16     -4.84      0.00
    5   -6   16      4.60      0.00
    6   -6   16     -3.83      0.00
    7   -6   16      3.88      0.00
  -10   -5   16     -3.32      0.00
   -9   -5   16      0.25      0.00
   -8   -5   16     -4.74      0.00
   -7   -5   16      1.76      0.00
   -6   -5   16      0.10      0.00
   -5   -5   16      0.80      0.00
   -4   -5   16     -4.98      0.00
   -3   -5   16      0.90      0.00
   -2   -5   16     -2.18      0.00
   -1   -5   16     -1.30      0.00
    0   -5   16     -2.83      0.00
    1   -5   16     -2.37      0.00
    2   -5   16      0.70      0.00
    3   -5   16     -0.04      0.00
    4   -5   16      0.03      0.00
    5   -5   16     -2.11      0.00
    6   -5   16      1.49      0.00
    7   -5   16     -0.43      0.00
  -10   -4   16      2.08      0.00
   -9   -4   16      1.02      0.00
   -8   -4   16      0.50      0.00
   -7   -4   16     -1.88      0.00
   -6   -4   16     -1.45      0.00
   -5   -4   16     -2.01      0.00
   -4   -4   16      2.00      0.00
   -3   -4   16     -3.49      0.00
   -2   -4   16      1.33      0.00
   -1   -4   16     -2.74      0.00
    0   -4   16      3.86      0.00
    1   -4   16      1.91      0.00
    2   -4   16     -4.65      0.00
    3   -4   16      1.42      0.00
    4   -4   16      1.70      0.00
    5   -4   16      1.08      0.00
    6   -4   16     -3.24      0.00
    7   -4   16      1.56      0.00
    8   -4   16     -2.40      0.00
  -10   -3   16      4.90      0.00
   -9   -3   16     -4.71      0.00
   -8   -3   16      0.47      0.00
   -7   -3   16      2.57      0.00
   -6   -3   16     -3.37      0.00
   -5   -3   16      2.15      0.00
   -4   -3   16     -3.94      0.00
   -3   -3   16      4.11      0.00
   -2   -3   16     -3.36      0.00
   -1   -3   16      0.79      0.00
    0   -3   16     -5.27      0.00
    1   -3   16      2.22      0.00
    2   -3   16     -2.91      0.00
    3   -3   16      1.21      0.00
    4   -3   16     -3.62      0.00
    5   -3   16      0.50      0.00
    6   -3   16      2.66      0.00
    7   -3   16      0.77      0.00
    8   -3   16     -2.97      0.00
    9   -3   16      5.20      0.00
  -10   -2   16     -0.67      0.00
   -9   -2   16      0.50      0.00
   -8   -2   16      0.37      0.00
   -7   -2   16      0.83      0.00
   -6   -2   16     -3.22      0.00
   -5   -2   16      2.58      0.00
   -4   -2   16     -3.03      0.00
   -3   -2   16     -1.55      0.00
   -2   -2   16     -0.76      0.00
   -1   -2   16      0.15      0.00
    0   -2   16      0.81      0.00
    1   -2   16     -2.67      0.00
    2   -2   16      2.20      0.00
    3   -2   16     -0.01      0.00
    4   -2   16     -0.65      0.00
    5   -2   16      0.99      0.00
    6   -2   16     -0.39      0.00
    7   -2   16     -2.42      0.00
    8   -2   16      5.60      0.00
    9   -2   16     -5.95      0.00
  -10   -1   16     -1.02      0.00
   -9   -1   16      1.10      0.00
   -8   -1   16      0.35      0.00
   -7   -1   16     -3.77      0.00
   -6   -1   16      8.38      0.00
   -5   -1   16     -6.09      0.00
   -4   -1   16      1.64      0.00
   -3   -1   16      1.94      0.00
   -2   -1   16     -1.28      0.00
   -1   -1   16      0.16      0.00
    0   -1   16     -0.28      0.00
    1   -1   16      1.72      0.00
    2   -1   16     -4.35      0.00
    3   -1   16      1.53      0.00
    4   -1   16     -0.06      0.00
    5   -1   16     -3.72      0.00
    6   -1   16      2.85      0.00
    7   -1   16     -0.85      0.00
    8   -1   16     -0.87      0.00
    9   -1   16      2.24      0.00
   10   -1   16      1.04      0.00
  -10    0   16      4.21      0.00
   -9    0   16     -5.38      0.00
   -8    0   16      0.36      0.00
   -7    0   16      0.06      0.00
   -6    0   16     -3.21      0.00
   -5    0   16      2.37      0.00
   -4    0   16      0.77      0.00
   -3    0   16     -2.82      0.00
   -2    0   16      0.21      0.00
   -1    0   16     -0.88      0.00
    0    0   16     -1.71      0.00
    1    0   16      1.39      0.00
    2    0   16      1.98      0.00
    3    0   16     -3.42      0.00
    4    0   16      2.79      0.00
    5    0   16     -0.46      0.00
    6    0   16      0.36      0.00
    7    0   16     -0.44      0.00
    8    0   16      2.20      0.00
    9    0   16     -1.48      0.00
   10    0   16      0.34      0.00
  -10    1   16     -0.49      0.00
   -9    1   16      2.23      0.00
   -8    1   16      0.90      0.00
   -7    1   16      0.19      0.00
   -6    1   16      1.10      0.00
   -5    1   16     -2.90      0.00
   -4    1   16      2.87      0.00
   -3    1   16     -1.51      0.00
   -2    1   16      2.05      0.00
   -1    1   16      1.96      0.00
    0    1   16     -2.34      0.00
    1    1   16      0.84      0.00
    2    1   16     -0.28      0.00
    3    1   16      2.22      0.00
    4    1   16     -1.73      0.00
    5    1   16     -0.59      0.00
    6    1   16      0.38      0.00
    7    1   16     -2.72      0.00
    8    1   16     -0.41      0.00
    9    1   16      0.55      0.00
   10    1   16      0.37      0.00
   -9    2   16     -0.83      0.00
   -8    2   16     -0.29      0.00
   -7    2   16     -4.26      0.00
   -6    2   16      2.12      0.00
   -5    2   16      0.50      0.00
   -4    2   16     -1.30      0.00
   -3    2   16      0.15      0.00
   -2    2   16      0.10      0.00
   -1    2   16     -0.11      0.00
    0    2   16      1.98      0.00
    1    2   16     -0.39      0.00
    2    2   16     -1.23      0.00
    3    2   16      1.19      0.00
    4    2   16      1.01      0.00
    5    2   16     -0.06      0.00
    6    2   16      1.47      0.00
    7    2   16     -0.85      0.00
    8    2   16      2.42      0.00
    9    2   16      0.00      0.00
   10    2   16     -3.52      0.00
   11    2   16      3.78      0.00
   -9    3   16      1.90      0.00
   -8    3   16      0.14      0.00
   -7    3   16      1.29      0.00
   -6    3   16     -0.30      0.00
   -5    3   16      0.03      0.00
   -4    3   16     -0.17      0.00
   -3    3   16     -0.84      0.00
   -2    3   16      1.36      0.00
   -1    3   16     -1.43      0.00
    0    3   16      0.44      0.00
    1    3   16      1.21      0.00
    2    3   16      2.55      0.00
    3    3   16     -0.87      0.00
    4    3   16     -2.39      0.00
    5    3   16      3.71      0.00
    6    3   16     -0.95      0.00
    7    3   16     -1.23      0.00
    8    3   16     -2.63      0.00
    9    3   16      2.14      0.00
   10    3   16     -2.00      0.00
   11    3   16     -0.49      0.00
   -8    4   16     -0.15      0.00
   -7    4   16     -1.48      0.00
   -6    4   16     -1.44      0.00
   -5    4   16      0.88      0.00
   -4    4   16      0.35      0.00
   -3    4   16      0.99      0.00
   -2    4   16     -0.24      0.00
   -1    4   16      1.08      0.00
    0    4   16      1.69      0.00
    1    4   16     -1.28      0.00
    2    4   16      1.06      0.00
    3    4   16      2.10      0.00
    4    4   16      0.43      0.00
    5    4   16     -1.45      0.00
    6    4   16      2.97      0.00
    7    4   16     -1.78      0.00
    8    4   16      3.18      0.00
    9    4   16     -1.56      0.00
   10    4   16      0.88      0.00
   11    4   16     -0.07      0.00
   -8    5   16      0.16      0.00
   -7    5   16      1.47      0.00
   -6    5   16     -2.12      0.00
   -5    5   16      0.30      0.00
   -4    5   16      0.56      0.00
   -3    5   16     -1.28      0.00
   -2    5   16      0.24      0.00
   -1    5   16     -1.63      0.00
    0    5   16      1.64      0.00
    1    5   16     -1.31      0.00
    2    5   16      0.41      0.00
    3    5   16      0.93      0.00
    4    5   16      1.97      0.00
    5    5   16     -2.39      0.00
    6    5   16      1.32      0.00
    7    5   16     -0.64      0.00
    8    5   16     -0.52      0.00
    9    5   16      0.94      0.00
   10    5   16     -3.98      0.00
   11    5   16      2.78      0.00
   -7    6   16      0.09      0.00
   -6    6   16      4.43      0.00
   -5    6   16     -5.26      0.00
   -4    6   16      0.78      0.00
   -3    6   16      0.90      0.00
   -2    6   16      1.94      0.00
   -1    6   16      0.10      0.00
    0    6   16      1.35      0.00
    1    6   16     -0.59      0.00
    2    6   16      2.68      0.00
    3    6   16     -0.13      0.00
    4    6   16     -1.83      0.00
    5    6   16      4.00      0.00
    6    6   16      0.26      0.00
    7    6   16     -0.14      0.00
    8    6   16     -1.43      0.00
    9    6   16      2.71      0.00
   10    6   16      0.30      0.00
   11    6   16      0.58      0.00
   -6    7   16      0.79      0.00
   -5    7   16      3.39      0.00
   -4    7   16     -0.69      0.00
   -3    7   16     -2.19      0.00
   -2    7   16     -0.44      0.00
   -1    7   16     -0.81      0.00
    0    7   16      1.19      0.00
    1    7   16     -1.86      0.00
    2    7   16      0.50      0.00
    3    7   16     -2.81      0.00
    4    7   16      4.69      0.00
    5    7   16     -4.32      0.00
    6    7   16      0.82      0.00
    7    7   16      0.28      0.00
    8    7   16      0.24      0.00
    9    7   16     -2.02      0.00
   10    7   16     -0.24      0.00
   11    7   16     -1.72      0.00
   -6    8   16     -2.03      0.00
   -5    8   16     -3.94      0.00
   -4    8   16      4.92      0.00
   -3    8   16      2.78      0.00
   -2    8   16     -4.86      0.00
   -1    8   16      2.74      0.00
    0    8   16      2.03      0.00
    1    8   16     -1.59      0.00
    2    8   16      2.05      0.00
    3    8   16      0.96      0.00
    4    8   16     -1.62      0.00
    5    8   16      1.05      0.00
    6    8   16     -0.03      0.00
    7    8   16      0.13      0.00
    8    8   16      0.07      0.00
    9    8   16      2.07      0.00
   10    8   16     -0.59      0.00
   11    8   16      2.50      0.00
   -5    9   16      1.79      0.00
   -4    9   16     -5.97      0.00
   -3    9   16      3.45      0.00
   -2    9   16      3.33      0.00
   -1    9   16     -5.29      0.00
    0    9   16      1.43      0.00
    1    9   16     -1.18      0.00
    2    9   16     -1.15      0.00
    3    9   16     -0.92      0.00
    4    9   16      1.12      0.00
    5    9   16     -0.97      0.00
    6    9   16     -0.93      0.00
    7    9   16      0.56      0.00
    8    9   16     -0.64      0.00
    9    9   16     -2.53      0.00
   10    9   16      0.09      0.00
   11    9   16     -0.11      0.00
   -4   10   16      5.26      0.00
   -3   10   16     -3.95      0.00
   -2   10   16     -2.62      0.00
   -1   10   16      8.51      0.00
    0   10   16     -5.48      0.00
    1   10   16      2.10      0.00
    2   10   16      2.44      0.00
    3   10   16     -1.88      0.00
    4   10   16     -2.62      0.00
    5   10   16      1.47      0.00
    6   10   16      0.06      0.00
    7   10   16     -2.84      0.00
    8   10   16      0.14      0.00
    9   10   16      0.93      0.00
   10   10   16      1.00      0.00
   11   10   16     -1.01      0.00
   -3   11   16      4.60      0.00
   -2   11   16     -1.85      0.00
   -1   11   16     -4.02      0.00
    0   11   16      6.00      0.00
    1   11   16     -6.54      0.00
    2   11   16      2.46      0.00
    3   11   16     -3.18      0.00
    4   11   16      5.68      0.00
    5   11   16     -4.53      0.00
    6   11   16      1.07      0.00
    7   11   16     -0.27      0.00
    8   11   16      2.82      0.00
    9   11   16     -2.08      0.00
   10   11   16     -2.18      0.00
   -1   12   16      2.98      0.00
    0   12   16     -7.58      0.00
    1   12   16      7.16      0.00
    2   12   16     -1.14      0.00
    3   12   16     -2.64      0.00
    4   12   16     -0.08      0.00
    5   12   16      0.67      0.00
    6   12   16     -5.60      0.00
    7   12   16      4.33      0.00
    8   12   16     -6.59      0.00
    9   12   16      0.42      0.00
   10   12   16     -0.36      0.00
    0   13   16      5.03      0.00
    1   13   16     -3.70      0.00
    2   13   16     -0.41      0.00
    3   13   16     -0.71      0.00
    4   13   16      1.53      0.00
    5   13   16     -0.98      0.00
    6   13   16      5.35      0.00
    7   13   16     -4.18      0.00
    8   13   16      2.57      0.00
    9   13   16      4.49      0.00
    3   14   16     -4.91      0.00
    4   14   16      3.85      0.00
    5   14   16     -3.13      0.00
    6   14   16     -5.21      0.00
    7   14   16      5.90      0.00
   -6  -11   17      2.93      0.00
   -5  -11   17     -3.23      0.00
   -4  -11   17      2.53      0.00
   -3  -11   17     -0.01      0.00
   -2  -11   17      8.28      0.00
   -1  -11   17     -5.99      0.00
   -8  -10   17      0.32      0.00
   -7  -10   17      3.89      0.00
   -6  -10   17     -2.61      0.00
   -5  -10   17     -0.78      0.00
   -4  -10   17     -0.86      0.00
   -3  -10   17     -2.18      0.00
   -2  -10   17     -1.35      0.00
   -1  -10   17      1.06      0.00
    0  -10   17      6.59      0.00
    1  -10   17    -11.45      0.00
   -8   -9   17     -6.89      0.00
   -7   -9   17      2.86      0.00
   -6   -9   17      2.92      0.00
   -5   -9   17      2.42      0.00
   -4   -9   17      0.30      0.00
   -3   -9   17      0.97      0.00
   -2   -9   17     -1.58      0.00
   -1   -9   17     -0.70      0.00
    0   -9   17      0.78      0.00
    1   -9   17      0.85      0.00
    2   -9   17      5.68      0.00
    3   -9   17    -10.52      0.00
   -9   -8   17      4.07      0.00
   -8   -8   17      4.04      0.00
   -7   -8   17     -3.57      0.00
   -6   -8   17      3.30      0.00
   -5   -8   17     -3.88      0.00
   -4   -8   17      2.90      0.00
   -3   -8   17      0.26      0.00
   -2   -8   17      2.34      0.00
   -1   -8   17      0.28      0.00
    0   -8   17     -4.24      0.00
    1   -8   17      3.27      0.00
    2   -8   17      0.28      0.00
    3   -8   17     -0.11      0.00
    4   -8   17      1.77      0.00
   -9   -7   17     -5.20      0.00
   -8   -7   17      7.01      0.00
   -7   -7   17     -2.80      0.00
   -6   -7   17      2.04      0.00
   -5   -7   17      4.18      0.00
   -4   -7   17     -2.17      0.00
   -3   -7   17     -0.12      0.00
   -2   -7   17     -1.66      0.00
   -1   -7   17      3.95      0.00
    0   -7   17     -1.99      0.00
    1   -7   17     -2.68      0.00
    2   -7   17     -0.67      0.00
    3   -7   17      3.29      0.00
    4   -7   17     -4.49      0.00
    5   -7   17      5.94      0.00
  -10   -6   17     -2.12      0.00
   -9   -6   17      4.07      0.00
   -8   -6   17     -4.07      0.00
   -7   -6   17      6.17      0.00
   -6   -6   17     -1.84      0.00
   -5   -6   17      1.16      0.00
   -4   -6   17      3.58      0.00
   -3   -6   17     -0.30      0.00
   -2   -6   17      2.58      0.00
   -1   -6   17     -0.27      0.00
    0   -6   17      2.53      0.00
    1   -6   17      2.22      0.00
    2   -6   17      1.93      0.00
    3   -6   17     -4.68      0.00
    4   -6   17      6.08      0.00
    5   -6   17     -6.06      0.00
    6   -6   17      4.74      0.00
  -10   -5   17      1.80      0.00
   -9   -5   17     -0.47      0.00
   -8   -5   17      3.61      0.00
   -7   -5   17     -0.34      0.00
   -6   -5   17      0.57      0.00
   -5   -5   17     -0.12      0.00
   -4   -5   17      2.46      0.00
   -3   -5   17      0.80      0.00
   -2   -5   17     -2.64      0.00
   -1   -5   17      2.17      0.00
    0   -5   17     -1.48      0.00
    1   -5   17     -1.95      0.00
    2   -5   17      0.53      0.00
    3   -5   17     -0.31      0.00
    4   -5   17     -2.32      0.00
    5   -5   17      3.02      0.00
    6   -5   17     -0.49      0.00
    7   -5   17      0.67      0.00
  -10   -4   17     -1.86      0.00
   -9   -4   17     -1.95      0.00
   -8   -4   17      3.06      0.00
   -7   -4   17     -2.60      0.00
   -6   -4   17      6.07      0.00
   -5   -4   17     -1.81      0.00
   -4   -4   17      1.52      0.00
   -3   -4   17      0.50      0.00
   -2   -4   17      2.68      0.00
   -1   -4   17      2.08      0.00
    0   -4   17      1.08      0.00
    1   -4   17     -0.98      0.00
    2   -4   17      6.77      0.00
    3   -4   17     -1.78      0.00
    4   -4   17      1.58      0.00
    5   -4   17     -3.96      0.00
    6   -4   17      2.03      0.00
    7   -4   17     -2.22      0.00
    8   -4   17      4.03      0.00
  -10   -3   17     -4.11      0.00
   -9   -3   17      6.15      0.00
   -8   -3   17     -3.07      0.00
   -7   -3   17      0.52      0.00
   -6   -3   17      2.60      0.00
   -5   -3   17     -1.46      0.00
   -4   -3   17      5.28      0.00
   -3   -3   17     -2.89      0.00
   -2   -3   17      2.75      0.00
   -1   -3   17     -2.33      0.00
    0   -3   17      3.32      0.00
    1   -3   17     -1.18      0.00
    2   -3   17     -3.37      0.00
    3   -3   17      0.53      0.00
    4   -3   17      1.81      0.00
    5   -3   17      0.40      0.00
    6   -3   17     -2.18      0.00
    7   -3   17     -0.24      0.00
    8   -3   17      2.75      0.00
  -10   -2   17      3.88      0.00
   -9   -2   17     -2.81      0.00
   -8   -2   17     -2.50      0.00
   -7   -2   17      4.58      0.00
   -6   -2   17     -3.08      0.00
   -5   -2   17     -0.14      0.00
   -4   -2   17      2.70      0.00
   -3   -2   17     -0.36      0.00
   -2   -2   17      1.24      0.00
   -1   -2   17      0.14      0.00
    0   -2   17     -0.28      0.00
    1   -2   17      3.17      0.00
    2   -2   17      0.93      0.00
    3   -2   17      1.47      0.00
    4   -2   17     -1.47      0.00
    5   -2   17      2.01      0.00
    6   -2   17     -0.84      0.00
    7   -2   17      1.81      0.00
    8   -2   17     -7.37      0.00
    9   -2   17      5.45      0.00
  -10   -1   17     -0.19      0.00
   -9   -1   17      3.03      0.00
   -8   -1   17      0.26      0.00
   -7   -1   17      3.84      0.00
   -6   -1   17     -5.35      0.00
   -5   -1   17      6.27      0.00
   -4   -1   17     -2.28      0.00
   -3   -1   17      1.83      0.00
   -2   -1   17      1.25      0.00
   -1   -1   17      1.26      0.00
    0   -1   17      1.04      0.00
    1   -1   17     -1.81      0.00
    2   -1   17      0.22      0.00
    3   -1   17      0.63      0.00
    4   -1   17     -1.89      0.00
    5   -1   17      2.54      0.00
    6   -1   17     -2.89      0.00
    7   -1   17     -0.82      0.00
    8   -1   17      5.65      0.00
    9   -1   17     -7.02      0.00
   -9    0   17      2.46      0.00
   -8    0   17     -3.85      0.00
   -7    0   17     -0.12      0.00
   -6    0   17      4.68      0.00
   -5    0   17     -4.46      0.00
   -4    0   17      0.60      0.00
   -3    0   17      0.33      0.00
   -2    0   17      1.16      0.00
   -1    0   17     -2.24      0.00
    0    0   17      1.28      0.00
    1    0   17      1.42      0.00
    2    0   17     -2.13      0.00
    3    0   17      3.00      0.00
    4    0   17     -0.77      0.00
    5    0   17      0.43      0.00
    6    0   17      1.89      0.00
    7    0   17      0.58      0.00
    8    0   17     -3.32      0.00
    9    0   17      2.89      0.00
   10    0   17     -2.01      0.00
   -9    1   17     -0.58      0.00
   -8    1   17      1.12      0.00
   -7    1   17      2.65      0.00
   -6    1   17     -3.01      0.00
   -5    1   17      4.74      0.00
   -4    1   17     -0.69      0.00
   -3    1   17      0.35      0.00
   -2    1   17     -0.51      0.00
   -1    1   17      0.57      0.00
    0    1   17      1.03      0.00
    1    1   17      0.37      0.00
    2    1   17      1.59      0.00
    3    1   17     -4.27      0.00
    4    1   17      1.63      0.00
    5    1   17      0.50      0.00
    6    1   17     -4.12      0.00
    7    1   17      2.73      0.00
    8    1   17      1.42      0.00
    9    1   17     -4.52      0.00
   10    1   17      2.58      0.00
   -9    2   17      0.00      0.00
   -8    2   17     -3.40      0.00
   -7    2   17      4.02      0.00
   -6    2   17     -2.23      0.00
   -5    2   17     -1.30      0.00
   -4    2   17      1.55      0.00
   -3    2   17      0.93      0.00
   -2    2   17      0.29      0.00
   -1    2   17      0.76      0.00
    0    2   17     -3.84      0.00
    1    2   17      0.64      0.00
    2    2   17      0.23      0.00
    3    2   17      1.34      0.00
    4    2   17     -1.28      0.00
    5    2   17      1.24      0.00
    6    2   17      0.47      0.00
    7    2   17     -0.61      0.00
    8    2   17      1.64      0.00
    9    2   17     -0.57      0.00
   10    2   17      2.85      0.00
   -8    3   17      3.79      0.00
   -7    3   17     -3.12      0.00
   -6    3   17      4.35      0.00
   -5    3   17     -0.61      0.00
   -4    3   17     -0.15      0.00
   -3    3   17     -0.33      0.00
   -2    3   17     -1.96      0.00
   -1    3   17      2.58      0.00
    0    3   17     -0.04      0.00
    1    3   17     -0.84      0.00
    2    3   17     -1.87      0.00
    3    3   17     -0.41      0.00
    4    3   17      2.12      0.00
    5    3   17     -2.90      0.00
    6    3   17     -1.42      0.00
    7    3   17      1.26      0.00
    8    3   17      1.03      0.00
    9    3   17     -3.06      0.00
   10    3   17      0.49      0.00
   11    3   17      2.23      0.00
   -8    4   17     -2.98      0.00
   -7    4   17      2.03      0.00
   -6    4   17     -0.15      0.00
   -5    4   17      0.54      0.00
   -4    4   17      0.38      0.00
   -3    4   17      0.32      0.00
   -2    4   17      1.78      0.00
   -1    4   17     -0.49      0.00
    0    4   17     -1.42      0.00
    1    4   17      2.11      0.00
    2    4   17     -0.73      0.00
    3    4   17     -1.94      0.00
    4    4   17     -2.72      0.00
    5    4   17      6.11      0.00
    6    4   17     -3.32      0.00
    7    4   17      0.90      0.00
    8    4   17     -0.63      0.00
    9    4   17      1.99      0.00
   10    4   17      0.07      0.00
   11    4   17     -0.77      0.00
   -7    5   17      0.21      0.00
   -6    5   17     -0.24      0.00
   -5    5   17      2.01      0.00
   -4    5   17     -0.06      0.00
   -3    5   17     -0.18      0.00
   -2    5   17     -2.47      0.00
   -1    5   17      1.68      0.00
    0    5   17     -3.05      0.00
    1    5   17      0.63      0.00
    2    5   17      0.19      0.00
    3    5   17     -0.63      0.00
    4    5   17     -1.92      0.00
    5    5   17     -0.62      0.00
    6    5   17     -0.17      0.00
    7    5   17     -0.89      0.00
    8    5   17      1.19      0.00
    9    5   17     -2.23      0.00
   10    5   17      2.56      0.00
   11    5   17     -1.83      0.00
   -7    6   17      0.87      0.00
   -6    6   17     -3.99      0.00
   -5    6   17      2.69      0.00
   -4    6   17      0.64      0.00
   -3    6   17      1.01      0.00
   -2    6   17      0.87      0.00
   -1    6   17      0.25      0.00
    0    6   17      1.57      0.00
    1    6   17     -0.07      0.00
    2    6   17     -2.47      0.00
    3    6   17      3.19      0.00
    4    6   17     -0.69      0.00
    5    6   17     -2.02      0.00
    6    6   17      1.11      0.00
    7    6   17      0.37      0.00
    8    6   17      1.20      0.00
    9    6   17     -0.55      0.00
   10    6   17     -0.98      0.00
   11    6   17      2.64      0.00
   -6    7   17      1.21      0.00
   -5    7   17     -2.13      0.00
   -4    7   17      0.39      0.00
   -3    7   17     -0.61      0.00
   -2    7   17      0.80      0.00
   -1    7   17      0.55      0.00
    0    7   17     -5.03      0.00
    1    7   17      2.75      0.00
    2    7   17     -2.12      0.00
    3    7   17      1.02      0.00
    4    7   17     -2.69      0.00
    5    7   17      2.14      0.00
    6    7   17     -1.27      0.00
    7    7   17     -1.47      0.00
    8    7   17     -1.00      0.00
    9    7   17      0.90      0.00
   10    7   17      0.35      0.00
   11    7   17     -0.75      0.00
   -5    8   17      3.27      0.00
   -4    8   17     -1.45      0.00
   -3    8   17     -2.31      0.00
   -2    8   17      2.03      0.00
   -1    8   17      2.93      0.00
    0    8   17     -0.80      0.00
    1    8   17      2.78      0.00
    2    8   17     -1.62      0.00
    3    8   17      0.90      0.00
    4    8   17      0.29      0.00
    5    8   17      0.03      0.00
    6    8   17      1.08      0.00
    7    8   17      0.49      0.00
    8    8   17      0.37      0.00
    9    8   17      0.79      0.00
   10    8   17     -0.92      0.00
   11    8   17      0.86      0.00
   -4    9   17      4.47      0.00
   -3    9   17     -0.37      0.00
   -2    9   17     -5.02      0.00
   -1    9   17      2.70      0.00
    0    9   17     -1.74      0.00
    1    9   17     -1.27      0.00
    2    9   17      1.90      0.00
    3    9   17     -1.27      0.00
    4    9   17      0.64      0.00
    5    9   17     -0.26      0.00
    6    9   17      0.67      0.00
    7    9   17     -0.53      0.00
    8    9   17     -0.82      0.00
    9    9   17      2.13      0.00
   10    9   17     -2.24      0.00
   11    9   17      0.30      0.00
   -3   10   17      4.86      0.00
   -2   10   17      4.11      0.00
   -1   10   17     -7.02      0.00
    0   10   17      5.78      0.00
    1   10   17      1.92      0.00
    2   10   17     -4.95      0.00
    3   10   17      5.76      0.00
    4   10   17     -0.71      0.00
    5   10   17     -1.07      0.00
    6   10   17     -0.64      0.00
    7   10   17      3.78      0.00
    8   10   17     -1.47      0.00
    9   10   17     -0.79      0.00
   10   10   17      1.93      0.00
   -2   11   17     -1.26      0.00
   -1   11   17      5.05      0.00
    0   11   17     -6.95      0.00
    1   11   17      3.96      0.00
    2   11   17     -1.43      0.00
    3   11   17      1.29      0.00
    4   11   17     -2.30      0.00
    5   11   17      3.29      0.00
    6   11   17      3.71      0.00
    7   11   17     -2.98      0.00
    8   11   17      1.17      0.00
    9   11   17      2.46      0.00
   10   11   17      0.62      0.00
   -1   12   17     -2.22      0.00
    0   12   17      7.90      0.00
    1   12   17     -5.25      0.00
    2   12   17      1.73      0.00
    3   12   17      1.80      0.00
    4   12   17      1.44      0.00
    5   12   17     -3.92      0.00
    6   12   17      1.56      0.00
    7   12   17     -3.19      0.00
    8   12   17      4.69      0.00
    9   12   17     -3.75      0.00
    1   13   17      6.17      0.00
    2   13   17     -3.40      0.00
    3   13   17      2.06      0.00
    4   13   17     -1.68      0.00
    5   13   17      3.38      0.00
    6   13   17      0.81      0.00
    7   13   17      3.03      0.00
    8   13   17     -0.88      0.00
   -6  -10   18     -1.52      0.00
   -5  -10   18     -4.72      0.00
   -4  -10   18      3.07      0.00
   -3  -10   18     -2.13      0.00
   -2  -10   18      4.21      0.00
   -1  -10   18     -6.89      0.00
    0  -10   18     -4.24      0.00
   -8   -9   18      7.77      0.00
   -7   -9   18     -1.19      0.00
   -6   -9   18     -0.69      0.00
   -5   -9   18     -0.39      0.00
   -4   -9   18     -0.77      0.00
   -3   -9   18     -0.88      0.00
   -2   -9   18      1.68      0.00
   -1   -9   18      2.21      0.00
    0   -9   18      1.43      0.00
    1   -9   18     -5.95      0.00
    2   -9   18      0.50      0.00
   -8   -8   18    -14.90      0.00
   -7   -8   18      7.48      0.00
   -6   -8   18     -4.24      0.00
   -5   -8   18      3.85      0.00
   -4   -8   18     -3.24      0.00
   -3   -8   18      0.00      0.00
   -2   -8   18     -0.02      0.00
   -1   -8   18     -4.08      0.00
    0   -8   18      5.45      0.00
    1   -8   18      0.51      0.00
    2   -8   18     -1.17      0.00
    3   -8   18     -1.65      0.00
   -9   -7   18      1.12      0.00
   -8   -7   18      3.66      0.00
   -7   -7   18     -5.07      0.00
   -6   -7   18      2.96      0.00
   -5   -7   18     -8.05      0.00
   -4   -7   18      5.08      0.00
   -3   -7   18     -3.68      0.00
   -2   -7   18      1.83      0.00
   -1   -7   18     -3.92      0.00
    0   -7   18     -2.55      0.00
    1   -7   18      1.88      0.00
    2   -7   18      0.07      0.00
    3   -7   18     -1.37      0.00
    4   -7   18      1.06      0.00
   -9   -6   18     -4.16      0.00
   -8   -6   18      2.84      0.00
   -7   -6   18     -6.90      0.00
   -6   -6   18      1.80      0.00
   -5   -6   18      3.37      0.00
   -4   -6   18     -5.79      0.00
   -3   -6   18      0.95      0.00
   -2   -6   18      2.49      0.00
   -1   -6   18      1.04      0.00
    0   -6   18      0.67      0.00
    1   -6   18     -1.28      0.00
    2   -6   18     -0.66      0.00
    3   -6   18      5.81      0.00
    4   -6   18     -5.69      0.00
    5   -6   18      5.89      0.00
   -9   -5   18      2.68      0.00
   -8   -5   18     -6.16      0.00
   -7   -5   18      5.76      0.00
   -6   -5   18     -6.10      0.00
   -5   -5   18      0.30      0.00
   -4   -5   18      0.26      0.00
   -3   -5   18     -4.87      0.00
   -2   -5   18      1.03      0.00
   -1   -5   18     -5.22      0.00
    0   -5   18     -1.28      0.00
    1   -5   18      2.57      0.00
    2   -5   18     -5.42      0.00
    3   -5   18      0.10      0.00
    4   -5   18      1.43      0.00
    5   -5   18     -1.30      0.00
    6   -5   18      0.51      0.00
   -9   -4   18      0.30      0.00
   -8   -4   18     -2.25      0.00
   -7   -4   18      2.30      0.00
   -6   -4   18     -6.98      0.00
   -5   -4   18      3.39      0.00
   -4   -4   18     -4.23      0.00
   -3   -4   18      4.33      0.00
   -2   -4   18     -4.21      0.00
   -1   -4   18      3.84      0.00
    0   -4   18     -0.28      0.00
    1   -4   18      0.58      0.00
    2   -4   18      0.46      0.00
    3   -4   18      1.22      0.00
    4   -4   18     -2.59      0.00
    5   -4   18      5.17      0.00
    6   -4   18     -2.85      0.00
    7   -4   18      0.39      0.00
   -9   -3   18     -8.02      0.00
   -8   -3   18      8.52      0.00
   -7   -3   18     -6.20      0.00
   -6   -3   18      1.97      0.00
   -5   -3   18      0.22      0.00
   -4   -3   18     -3.43      0.00
   -3   -3   18     -1.27      0.00
   -2   -3   18      0.03      0.00
   -1   -3   18     -1.85      0.00
    0   -3   18     -2.19      0.00
    1   -3   18     -4.03      0.00
    2   -3   18      4.42      0.00
    3   -3   18     -4.65      0.00
    4   -3   18      0.52      0.00
    5   -3   18     -2.37      0.00
    6   -3   18      2.60      0.00
    7   -3   18      2.73      0.00
    8   -3   18     -0.15      0.00
   -9   -2   18      1.29      0.00
   -8   -2   18      1.43      0.00
   -7   -2   18     -5.71      0.00
   -6   -2   18      3.72      0.00
   -5   -2   18     -2.87      0.00
   -4   -2   18     -2.28      0.00
   -3   -2   18      0.67      0.00
   -2   -2   18     -2.61      0.00
   -1   -2   18      0.37      0.00
    0   -2   18      1.77      0.00
    1   -2   18     -0.94      0.00
    2   -2   18     -0.77      0.00
    3   -2   18      1.49      0.00
    4   -2   18      2.11      0.00
    5   -2   18     -1.08      0.00
    6   -2   18     -0.04      0.00
    7   -2   18     -2.47      0.00
    8   -2   18      5.29      0.00
   -9   -1   18     -4.32      0.00
   -8   -1   18      0.22      0.00
   -7   -1   18      1.72      0.00
   -6   -1   18     -1.84      0.00
   -5   -1   18     -0.63      0.00
   -4   -1   18      2.83      0.00
   -3   -1   18     -2.85      0.00
   -2   -1   18      0.57      0.00
   -1   -1   18     -2.22      0.00
    0   -1   18      0.09      0.00
    1   -1   18     -1.02      0.00
    2   -1   18      0.74      0.00
    3   -1   18     -2.60      0.00
    4   -1   18     -0.95      0.00
    5   -1   18     -0.03      0.00
    6   -1   18      0.24      0.00
    7   -1   18      3.48      0.00
    8   -1   18     -7.32      0.00
    9   -1   18      9.81      0.00
   -9    0   18     -3.53      0.00
   -8    0   18      4.79      0.00
   -7    0   18     -4.62      0.00
   -6    0   18     -1.81      0.00
   -5    0   18      1.25      0.00
   -4    0   18     -3.22      0.00
   -3    0   18      0.98      0.00
   -2    0   18     -2.66      0.00
   -1    0   18      1.01      0.00
    0    0   18     -0.83      0.00
    1    0   18     -1.73      0.00
    2    0   18     -0.20      0.00
    3    0   18      2.30      0.00
    4    0   18      1.10      0.00
    5    0   18     -0.19      0.00
    6    0   18     -0.73      0.00
    7    0   18     -0.03      0.00
    8    0   18      4.25      0.00
    9    0   18     -5.89      0.00
   -9    1   18      1.08      0.00
   -8    1   18      0.26      0.00
   -7    1   18     -0.69      0.00
   -6    1   18      3.40      0.00
   -5    1   18     -3.73      0.00
   -4    1   18      0.46      0.00
   -3    1   18     -1.17      0.00
   -2    1   18      2.62      0.00
   -1    1   18     -2.87      0.00
    0    1   18      1.13      0.00
    1    1   18      1.80      0.00
    2    1   18     -3.22      0.00
    3    1   18      1.65      0.00
    4    1   18     -1.57      0.00
    5    1   18     -1.56      0.00
    6    1   18      3.01      0.00
    7    1   18     -2.13      0.00
    8    1   18     -3.75      0.00
    9    1   18      6.55      0.00
   10    1   18     -3.39      0.00
   -8    2   18      0.19      0.00
   -7    2   18     -3.15      0.00
   -6    2   18     -1.41      0.00
   -5    2   18      1.97      0.00
   -4    2   18     -0.13      0.00
   -3    2   18     -3.17      0.00
   -2    2   18      0.68      0.00
   -1    2   18     -1.89      0.00
    0    2   18      2.38      0.00
    1    2   18     -1.12      0.00
    2    2   18      0.75      0.00
    3    2   18     -1.85      0.00
    4    2   18      2.06      0.00
    5    2   18      0.98      0.00
    6    2   18     -1.38      0.00
    7    2   18      4.26      0.00
    8    2   18     -2.12      0.00
    9    2   18     -0.50      0.00
   10    2   18      0.60      0.00
   -8    3   18     -2.59      0.00
   -7    3   18      5.57      0.00
   -6    3   18     -4.23      0.00
   -4    3   18     -1.67      0.00
   -3    3   18      1.82      0.00
   -2    3   18      0.20      0.00
   -1    3   18     -2.23      0.00
    0    3   18     -2.06      0.00
    1    3   18      2.93      0.00
    2    3   18      0.19      0.00
    3    3   18      2.20      0.00
    4    3   18     -2.42      0.00
    5    3   18     -0.32      0.00
    6    3   18      1.38      0.00
    7    3   18     -3.05      0.00
    8    3   18      0.63      0.00
    9    3   18      0.91      0.00
   10    3   18      0.08      0.00
   -7    4   18     -6.22      0.00
   -6    4   18      1.83      0.00
   -5    4   18     -1.49      0.00
   -4    4   18      0.41      0.00
   -3    4   18     -1.57      0.00
   -2    4   18      0.94      0.00
   -1    4   18      0.80      0.00
    0    4   18      2.64      0.00
    1    4   18     -3.70      0.00
    2    4   18      1.07      0.00
    3    4   18     -0.10      0.00
    4    4   18      5.53      0.00
    5    4   18     -5.61      0.00
    6    4   18      2.36      0.00
    7    4   18      2.75      0.00
    8    4   18     -0.90      0.00
    9    4   18     -1.66      0.00
   10    4   18      0.50      0.00
   -7    5   18      1.48      0.00
   -6    5   18      1.04      0.00
   -5    5   18     -1.13      0.00
   -4    5   18     -2.50      0.00
   -3    5   18     -0.16      0.00
   -2    5   18     -0.48      0.00
   -1    5   18     -1.71      0.00
    0    5   18     -0.45      0.00
    1    5   18      2.05      0.00
    2    5   18     -2.00      0.00
    3    5   18      0.57      0.00
    4    5   18     -0.06      0.00
    5    5   18      3.85      0.00
    6    5   18     -2.60      0.00
    7    5   18     -1.54      0.00
    8    5   18      0.78      0.00
    9    5   18      0.53      0.00
   10    5   18     -0.79      0.00
   -6    6   18     -0.46      0.00
   -5    6   18      0.29      0.00
   -4    6   18     -0.38      0.00
   -3    6   18     -0.97      0.00
   -2    6   18      1.22      0.00
   -1    6   18     -0.40      0.00
    0    6   18      1.33      0.00
    1    6   18     -0.33      0.00
    2    6   18      4.96      0.00
    3    6   18     -5.23      0.00
    4    6   18      2.03      0.00
    5    6   18      1.22      0.00
    6    6   18      0.63      0.00
    7    6   18      0.62      0.00
    8    6   18     -0.27      0.00
    9    6   18      0.31      0.00
   10    6   18      0.64      0.00
   -5    7   18      1.37      0.00
   -4    7   18     -2.18      0.00
   -3    7   18      1.92      0.00
   -2    7   18     -2.72      0.00
   -1    7   18     -3.21      0.00
    0    7   18      2.64      0.00
    1    7   18     -3.63      0.00
    2    7   18      0.09      0.00
    3    7   18      2.32      0.00
    4    7   18     -1.40      0.00
    5    7   18     -0.77      0.00
    6    7   18      0.70      0.00
    7    7   18     -0.81      0.00
    8    7   18      1.89      0.00
    9    7   18     -3.34      0.00
   10    7   18      1.07      0.00
   -5    8   18     -3.08      0.00
   -4    8   18     -0.04      0.00
   -3    8   18     -0.83      0.00
   -2    8   18      4.69      0.00
   -1    8   18     -3.35      0.00
    0    8   18      1.15      0.00
    1    8   18      1.01      0.00
    2    8   18      0.52      0.00
    3    8   18     -0.88      0.00
    4    8   18      2.77      0.00
    5    8   18     -2.16      0.00
    6    8   18      0.45      0.00
    7    8   18      0.25      0.00
    8    8   18      1.28      0.00
    9    8   18     -1.03      0.00
   10    8   18      2.37      0.00
   -4    9   18     -0.72      0.00
   -3    9   18     -1.96      0.00
   -2    9   18     -1.06      0.00
   -1    9   18      2.40      0.00
    0    9   18     -3.81      0.00
    1    9   18      0.56      0.00
    2    9   18     -3.14      0.00
    3    9   18      1.91      0.00
    4    9   18     -3.36      0.00
    5    9   18      2.55      0.00
    6    9   18      0.37      0.00
    7    9   18     -3.46      0.00
    8    9   18      1.96      0.00
    9    9   18     -2.02      0.00
   10    9   18     -0.17      0.00
   -3   10   18     -2.25      0.00
   -2   10   18     -3.76      0.00
   -1   10   18      5.46      0.00
    0   10   18     -1.37      0.00
    1   10   18     -2.09      0.00
    2   10   18      6.95      0.00
    3   10   18     -7.13      0.00
    4   10   18      3.14      0.00
    5   10   18     -1.91      0.00
    6   10   18      0.28      0.00
    7   10   18     -2.12      0.00
    8   10   18      0.64      0.00
    9   10   18      2.05      0.00
   10   10   18     -2.56      0.00
   -1   11   18     -5.32      0.00
    0   11   18      2.64      0.00
    1   11   18     -1.27      0.00
    2   11   18     -4.76      0.00
    3   11   18      4.83      0.00
    4   11   18     -3.21      0.00
    5   11   18      1.29      0.00
    6   11   18     -3.28      0.00
    7   11   18      5.01      0.00
    8   11   18     -2.58      0.00
    9   11   18     -2.52      0.00
    0   12   18     -4.75      0.00
    1   12   18      3.79      0.00
    2   12   18      0.48      0.00
    3   12   18     -2.69      0.00
    4   12   18     -0.82      0.00
    5   12   18      0.46      0.00
    6   12   18     -1.08      0.00
    7   12   18     -2.51      0.00
    8   12   18     -2.01      0.00
    2   13   18      2.12      0.00
    3   13   18     -1.30      0.00
    4   13   18      2.16      0.00
    5   13   18     -1.68      0.00
    6   13   18     -0.54      0.00
   -4  -10   19     -4.78      0.00
   -3  -10   19      0.16      0.00
   -2  -10   19     -4.86      0.00
   -6   -9   19      0.71      0.00
   -5   -9   19     -2.54      0.00
   -4   -9   19      4.34      0.00
   -3   -9   19      3.10      0.00
   -2   -9   19     -2.65      0.00
   -1   -9   19     -1.27      0.00
    0   -9   19     -1.50      0.00
    1   -9   19      7.05      0.00
   -7   -8   19     -5.41      0.00
   -6   -8   19     -0.16      0.00
   -5   -8   19      1.78      0.00
   -4   -8   19     -2.39      0.00
   -3   -8   19      2.04      0.00
   -2   -8   19      1.83      0.00
   -1   -8   19      3.43      0.00
    0   -8   19     -1.68      0.00
    1   -8   19     -4.42      0.00
    2   -8   19      4.46      0.00
   -8   -7   19    -11.88      0.00
   -7   -7   19     11.85      0.00
   -6   -7   19     -3.99      0.00
   -5   -7   19      5.65      0.00
   -4   -7   19     -5.65      0.00
   -3   -7   19      4.38      0.00
   -2   -7   19     -6.35      0.00
   -1   -7   19      1.79      0.00
    0   -7   19      2.12      0.00
    1   -7   19     -0.52      0.00
    2   -7   19     -1.86      0.00
    3   -7   19     -2.38      0.00
    4   -7   19      2.62      0.00
   -8   -6   19      2.62      0.00
   -7   -6   19      0.05      0.00
   -6   -6   19      1.04      0.00
   -5   -6   19     -3.91      0.00
   -4   -6   19      6.37      0.00
   -3   -6   19      2.25      0.00
   -2   -6   19      0.14      0.00
   -1   -6   19      1.33      0.00
    0   -6   19      1.21      0.00
    1   -6   19      1.54      0.00
    2   -6   19      4.35      0.00
    3   -6   19     -4.38      0.00
    4   -6   19      3.43      0.00
    5   -6   19     -3.71      0.00
   -9   -5   19     -5.13      0.00
   -8   -5   19      8.55      0.00
   -7   -5   19    -10.26      0.00
   -6   -5   19     10.71      0.00
   -5   -5   19     -1.25      0.00
   -4   -5   19     -3.12      0.00
   -3   -5   19      0.34      0.00
   -2   -5   19      0.03      0.00
   -1   -5   19     -0.19      0.00
    0   -5   19     -1.10      0.00
    1   -5   19     -4.72      0.00
    2   -5   19      2.43      0.00
    3   -5   19     -0.69      0.00
    4   -5   19      0.27      0.00
    5   -5   19     -0.81      0.00
    6   -5   19     -0.16      0.00
   -9   -4   19      6.98      0.00
   -8   -4   19     -5.50      0.00
   -7   -4   19      5.03      0.00
   -6   -4   19      0.32      0.00
   -5   -4   19     -1.04      0.00
   -4   -4   19      5.11      0.00
   -3   -4   19     -2.10      0.00
   -2   -4   19      4.95      0.00
   -1   -4   19     -1.01      0.00
    0   -4   19      1.60      0.00
    1   -4   19      7.67      0.00
    2   -4   19     -5.65      0.00
    3   -4   19      4.02      0.00
    4   -4   19      1.26      0.00
    5   -4   19     -3.87      0.00
    6   -4   19      2.13      0.00
   -9   -3   19      6.44      0.00
   -8   -3   19     -7.33      0.00
   -7   -3   19      6.50      0.00
   -6   -3   19     -2.85      0.00
   -5   -3   19      1.57      0.00
   -4   -3   19      1.34      0.00
   -3   -3   19      2.30      0.00
   -2   -3   19     -3.19      0.00
   -1   -3   19      2.18      0.00
    0   -3   19     -3.01      0.00
    1   -3   19      1.07      0.00
    2   -3   19     -3.35      0.00
    3   -3   19      0.46      0.00
    4   -3   19     -1.25      0.00
    5   -3   19      3.32      0.00
    6   -3   19     -2.92      0.00
    7   -3   19     -0.46      0.00
   -9   -2   19     -0.69      0.00
   -8   -2   19      1.74      0.00
   -7   -2   19      0.35      0.00
   -6   -2   19     -0.73      0.00
   -5   -2   19      2.48      0.00
   -4   -2   19     -0.33      0.00
   -3   -2   19     -0.63      0.00
   -2   -2   19      3.17      0.00
   -1   -2   19      1.50      0.00
    0   -2   19     -0.86      0.00
    1   -2   19      1.83      0.00
    2   -2   19      3.93      0.00
    3   -2   19     -1.94      0.00
    4   -2   19      1.06      0.00
    5   -2   19     -1.44      0.00
    6   -2   19      1.61      0.00
    7   -2   19      0.38      0.00
    8   -2   19     -4.21      0.00
   -9   -1   19      5.16      0.00
   -8   -1   19      0.37      0.00
   -7   -1   19     -2.23      0.00
   -6   -1   19      5.80      0.00
   -5   -1   19     -1.87      0.00
   -4   -1   19      0.00      0.00
   -3   -1   19      3.96      0.00
   -2   -1   19     -1.53      0.00
   -1   -1   19      2.00      0.00
    0   -1   19      0.28      0.00
    1   -1   19     -1.46      0.00
    2   -1   19     -0.65      0.00
    3   -1   19     -0.18      0.00
    4   -1   19      0.04      0.00
    5   -1   19     -1.75      0.00
    6   -1   19      0.78      0.00
    7   -1   19     -3.88      0.00
    8   -1   19      7.27      0.00
   -8    0   19     -7.73      0.00
   -7    0   19      7.72      0.00
   -6    0   19     -5.47      0.00
   -5    0   19      3.61      0.00
   -4    0   19      1.40      0.00
   -3    0   19     -1.67      0.00
   -2    0   19      0.31      0.00
   -1    0   19      0.21      0.00
    0    0   19      0.67      0.00
    1    0   19      0.38      0.00
    2    0   19      2.93      0.00
    3    0   19     -1.73      0.00
    4    0   19     -1.29      0.00
    5    0   19      3.25      0.00
    6    0   19     -0.57      0.00
    7    0   19      1.06      0.00
    8    0   19     -5.93      0.00
    9    0   19      6.66      0.00
   -8    1   19      5.17      0.00
   -7    1   19     -2.82      0.00
   -6    1   19      2.16      0.00
   -5    1   19      0.97      0.00
   -4    1   19     -0.97      0.00
   -3    1   19      4.75      0.00
   -2    1   19     -2.19      0.00
   -1    1   19      2.85      0.00
    0    1   19      0.65      0.00
    1    1   19     -3.58      0.00
    2    1   19      1.82      0.00
    3    1   19      0.92      0.00
    4    1   19      0.13      0.00
    5    1   19     -3.21      0.00
    6    1   19     -0.94      0.00
    7    1   19     -0.58      0.00
    8    1   19      4.31      0.00
    9    1   19     -6.70      0.00
   -8    2   19     -0.79      0.00
   -7    2   19      0.55      0.00
   -6    2   19      1.30      0.00
   -5    2   19     -1.54      0.00
   -4    2   19      0.43      0.00
   -3    2   19      2.02      0.00
   -2    2   19     -0.36      0.00
   -1    2   19      0.46      0.00
    0    2   19     -0.21      0.00
    1    2   19      0.67      0.00
    2    2   19     -1.45      0.00
    3    2   19      0.00      0.00
    4    2   19      0.62      0.00
    5    2   19      0.56      0.00
    6    2   19      1.58      0.00
    7    2   19     -2.61      0.00
    8    2   19      0.58      0.00
    9    2   19      2.58      0.00
   -7    3   19     -1.76      0.00
   -6    3   19      2.64      0.00
   -5    3   19      2.02      0.00
   -4    3   19      1.39      0.00
   -3    3   19     -3.13      0.00
   -2    3   19      1.01      0.00
   -1    3   19      0.47      0.00
    0    3   19      3.11      0.00
    1    3   19     -2.16      0.00
    2    3   19     -0.03      0.00
    3    3   19     -1.29      0.00
    4    3   19     -0.54      0.00
    5    3   19      0.91      0.00
    6    3   19     -1.62      0.00
    7    3   19      1.25      0.00
    8    3   19     -2.40      0.00
    9    3   19      0.08      0.00
   10    3   19      0.48      0.00
   -7    4   19      4.48      0.00
   -6    4   19     -1.74      0.00
   -5    4   19     -1.11      0.00
   -4    4   19      1.63      0.00
   -3    4   19      4.38      0.00
   -2    4   19     -0.92      0.00
   -1    4   19     -0.22      0.00
    0    4   19     -2.94      0.00
    1    4   19      4.29      0.00
    2    4   19     -0.75      0.00
    3    4   19      0.68      0.00
    4    4   19     -4.81      0.00
    5    4   19      2.97      0.00
    6    4   19     -0.14      0.00
    7    4   19     -1.33      0.00
    8    4   19      1.21      0.00
    9    4   19      1.32      0.00
   10    4   19     -0.90      0.00
   -6    5   19      2.62      0.00
   -5    5   19      0.34      0.00
   -4    5   19      1.55      0.00
   -3    5   19     -1.60      0.00
   -2    5   19      1.15      0.00
   -1    5   19     -0.80      0.00
    0    5   19      2.44      0.00
    1    5   19     -5.21      0.00
    2    5   19      1.61      0.00
    3    5   19      0.72      0.00
    4    5   19      1.21      0.00
    5    5   19     -5.49      0.00
    6    5   19      1.46      0.00
    7    5   19      2.85      0.00
    8    5   19     -3.07      0.00
    9    5   19     -0.38      0.00
   10    5   19      1.27      0.00
   -6    6   19      2.24      0.00
   -5    6   19     -3.33      0.00
   -4    6   19      2.42      0.00
   -3    6   19      1.36      0.00
   -2    6   19     -0.27      0.00
   -1    6   19      4.39      0.00
    0    6   19     -2.54      0.00
    1    6   19      3.83      0.00
    2    6   19     -5.90      0.00
    3    6   19      4.09      0.00
    4    6   19     -0.29      0.00
    5    6   19     -0.04      0.00
    6    6   19     -2.36      0.00
    7    6   19      0.36      0.00
    8    6   19      0.66      0.00
    9    6   19      0.46      0.00
   10    6   19     -0.77      0.00
   -5    7   19      1.31      0.00
   -4    7   19      2.14      0.00
   -3    7   19     -2.21      0.00
   -2    7   19      0.41      0.00
   -1    7   19     -0.91      0.00
    0    7   19      0.95      0.00
    1    7   19     -1.06      0.00
    2    7   19      1.97      0.00
    3    7   19     -4.74      0.00
    4    7   19      0.39      0.00
    5    7   19      2.41      0.00
    6    7   19     -1.63      0.00
    7    7   19      0.38      0.00
    8    7   19     -2.95      0.00
    9    7   19      3.51      0.00
   10    7   19     -1.75      0.00
   -4    8   19     -0.51      0.00
   -3    8   19      3.66      0.00
   -2    8   19     -2.53      0.00
   -1    8   19      2.56      0.00
    0    8   19      1.44      0.00
    1    8   19     -0.18      0.00
    2    8   19      1.69      0.00
    3    8   19      1.79      0.00
    4    8   19     -4.15      0.00
    5    8   19      3.30      0.00
    6    8   19     -1.36      0.00
    7    8   19      1.26      0.00
    8    8   19     -0.44      0.00
    9    8   19     -0.26      0.00
   10    8   19      0.08      0.00
   -3    9   19     -1.53      0.00
   -2    9   19      7.35      0.00
   -1    9   19     -9.36      0.00
    0    9   19      4.27      0.00
    1    9   19     -1.78      0.00
    2    9   19     -0.03      0.00
    3    9   19     -0.22      0.00
    4    9   19      2.91      0.00
    5    9   19     -2.77      0.00
    6    9   19     -1.76      0.00
    7    9   19      4.46      0.00
    8    9   19     -2.11      0.00
    9    9   19     -0.85      0.00
   -2   10   19      3.06      0.00
   -1   10   19      1.49      0.00
    0   10   19     -0.09      0.00
    1   10   19      2.54      0.00
    2   10   19     -2.55      0.00
    3   10   19      4.59      0.00
    4   10   19     -3.54      0.00
    5   10   19      3.50      0.00
    6   10   19      0.28      0.00
    7   10   19     -2.59      0.00
    8   10   19      2.79      0.00
    9   10   19     -1.29      0.00
   -1   11   19      1.04      0.00
    0   11   19      0.15      0.00
    1   11   19     -3.69      0.00
    2   11   19      6.83      0.00
    3   11   19     -7.83      0.00
    4   11   19      6.06      0.00
    5   11   19     -1.59      0.00
    6   11   19      2.53      0.00
    7   11   19     -1.16      0.00
    8   11   19      0.73      0.00
    1   12   19      0.94      0.00
    2   12   19     -2.72      0.00
    3   12   19      6.65      0.00
    4   12   19     -4.61      0.00
    5   12   19      2.15      0.00
    6   12   19     -1.70      0.00
    7   12   19      2.38      0.00
   -5   -9   20      5.47      0.00
   -4   -9   20     -2.86      0.00
   -3   -9   20     -5.74      0.00
   -2   -9   20      3.91      0.00
   -1   -9   20      1.07      0.00
   -6   -8   20      3.25      0.00
   -5   -8   20     -8.31      0.00
   -4   -8   20      8.48      0.00
   -3   -8   20     -0.82      0.00
   -2   -8   20     -5.15      0.00
   -1   -8   20      0.96      0.00
    0   -8   20     -0.52      0.00
    1   -8   20      5.94      0.00
   -7   -7   20     -9.03      0.00
   -6   -7   20     -0.03      0.00
   -5   -7   20      1.52      0.00
   -4   -7   20     -2.15      0.00
   -3   -7   20     -4.92      0.00
   -2   -7   20      7.84      0.00
   -1   -7   20     -6.63      0.00
    0   -7   20     -1.05      0.00
    1   -7   20     -3.82      0.00
    2   -7   20      1.36      0.00
    3   -7   20      3.42      0.00
   -7   -6   20      8.45      0.00
   -6   -6   20     -2.73      0.00
   -5   -6   20      1.52      0.00
   -4   -6   20     -0.49      0.00
   -3   -6   20      1.07      0.00
   -2   -6   20     -2.56      0.00
   -1   -6   20      5.09      0.00
    0   -6   20      0.10      0.00
    1   -6   20      2.72      0.00
    2   -6   20     -3.73      0.00
    3   -6   20      1.28      0.00
    4   -6   20      1.93      0.00
   -8   -5   20     -3.88      0.00
   -7   -5   20      6.21      0.00
   -6   -5   20    -10.09      0.00
   -5   -5   20      1.78      0.00
   -4   -5   20     -1.38      0.00
   -3   -5   20      1.83      0.00
   -2   -5   20     -4.73      0.00
   -1   -5   20     -4.01      0.00
    0   -5   20      1.37      0.00
    1   -5   20     -3.94      0.00
    2   -5   20      2.01      0.00
    3   -5   20     -2.22      0.00
    4   -5   20     -3.60      0.00
    5   -5   20      3.72      0.00
   -8   -4   20     10.60      0.00
   -7   -4   20    -10.51      0.00
   -6   -4   20      6.98      0.00
   -5   -4   20     -1.30      0.00
   -4   -4   20     -1.94      0.00
   -3   -4   20     -0.18      0.00
   -2   -4   20      2.91      0.00
   -1   -4   20      1.45      0.00
    0   -4   20      3.55      0.00
    1   -4   20     -6.93      0.00
    2   -4   20      9.62      0.00
    3   -4   20     -3.99      0.00
    4   -4   20      3.18      0.00
    5   -4   20     -1.47      0.00
    6   -4   20     -0.84      0.00
   -8   -3   20     -1.28      0.00
   -7   -3   20      0.37      0.00
   -6   -3   20     -0.35      0.00
   -5   -3   20     -1.79      0.00
   -4   -3   20     -1.03      0.00
   -3   -3   20     -0.75      0.00
   -2   -3   20     -0.67      0.00
   -1   -3   20     -5.48      0.00
    0   -3   20      1.88      0.00
    1   -3   20     -0.15      0.00
    2   -3   20     -5.76      0.00
    3   -3   20      3.81      0.00
    4   -3   20     -3.03      0.00
    5   -3   20     -0.79      0.00
    6   -3   20      3.53      0.00
   -8   -2   20     -2.56      0.00
   -7   -2   20      1.09      0.00
   -6   -2   20     -2.40      0.00
   -5   -2   20     -0.47      0.00
   -4   -2   20      0.87      0.00
   -3   -2   20     -1.42      0.00
   -2   -2   20      0.71      0.00
   -1   -2   20     -0.68      0.00
    0   -2   20      0.82      0.00
    1   -2   20      2.25      0.00
    2   -2   20     -0.71      0.00
    3   -2   20      1.13      0.00
    4   -2   20      1.97      0.00
    5   -2   20      1.91      0.00
    6   -2   20     -4.03      0.00
    7   -2   20      1.98      0.00
   -8   -1   20      2.96      0.00
   -7   -1   20     -0.94      0.00
   -6   -1   20     -1.47      0.00
   -5   -1   20      1.03      0.00
   -4   -1   20     -0.85      0.00
   -3   -1   20     -2.23      0.00
   -2   -1   20      1.23      0.00
   -1   -1   20      0.28      0.00
    0   -1   20     -3.78      0.00
    1   -1   20      1.60      0.00
    2   -1   20     -1.49      0.00
    3   -1   20     -1.28      0.00
    4   -1   20      0.11      0.00
    5   -1   20      0.17      0.00
    6   -1   20      0.58      0.00
    7   -1   20      1.96      0.00
    8   -1   20     -2.40      0.00
   -8    0   20      4.46      0.00
   -7    0   20     -7.93      0.00
   -6    0   20      6.41      0.00
   -5    0   20     -6.87      0.00
   -4    0   20      0.71      0.00
   -3    0   20     -0.88      0.00
   -2    0   20      0.49      0.00
   -1    0   20     -2.56      0.00
    0    0   20      1.56      0.00
    1    0   20     -0.68      0.00
    2    0   20      0.82      0.00
    3    0   20      0.22      0.00
    4    0   20      3.17      0.00
    5    0   20     -1.93      0.00
    6    0   20      2.30      0.00
    7    0   20     -1.87      0.00
    8    0   20      5.01      0.00
   -7    1   20      8.17      0.00
   -6    1   20     -6.28      0.00
   -5    1   20      3.95      0.00
   -4    1   20      0.40      0.00
   -3    1   20     -4.44      0.00
   -2    1   20      0.70      0.00
   -1    1   20      1.42      0.00
    0    1   20     -2.58      0.00
    1    1   20      3.82      0.00
    2    1   20     -1.33      0.00
    3    1   20     -1.42      0.00
    4    1   20     -3.30      0.00
    5    1   20      5.59      0.00
    6    1   20     -2.51      0.00
    7    1   20      2.00      0.00
    8    1   20     -4.59      0.00
   -7    2   20     -4.76      0.00
   -6    2   20      1.13      0.00
   -5    2   20     -1.77      0.00
   -4    2   20     -1.52      0.00
   -3    2   20      1.38      0.00
   -2    2   20     -0.60      0.00
   -1    2   20     -2.19      0.00
    0    2   20      0.57      0.00
    1    2   20     -3.33      0.00
    2    2   20      2.84      0.00
    3    2   20      3.08      0.00
    4    2   20     -0.64      0.00
    5    2   20     -2.22      0.00
    6    2   20      2.45      0.00
    7    2   20      0.78      0.00
    8    2   20      2.52      0.00
    9    2   20     -3.64      0.00
   -7    3   20      2.03      0.00
   -6    3   20     -1.10      0.00
   -5    3   20     -1.70      0.00
   -4    3   20     -0.24      0.00
   -3    3   20     -0.29      0.00
   -2    3   20     -0.77      0.00
   -1    3   20      0.14      0.00
    0    3   20     -0.27      0.00
    1    3   20     -0.02      0.00
    2    3   20      0.92      0.00
    3    3   20     -1.79      0.00
    4    3   20      3.65      0.00
    5    3   20     -1.01      0.00
    6    3   20     -1.73      0.00
    7    3   20      0.83      0.00
    8    3   20      0.48      0.00
    9    3   20      0.74      0.00
   -6    4   20     -3.08      0.00
   -5    4   20      4.58      0.00
   -4    4   20     -3.51      0.00
   -3    4   20     -2.56      0.00
   -1    4   20      0.74      0.00
    0    4   20      2.21      0.00
    1    4   20     -2.37      0.00
    2    4   20     -1.55      0.00
    3    4   20      1.49      0.00
    4    4   20      0.86      0.00
    5    4   20      1.40      0.00
    6    4   20      1.56      0.00
    7    4   20     -2.17      0.00
    8    4   20      0.88      0.00
    9    4   20     -0.13      0.00
   -6    5   20     -2.36      0.00
   -5    5   20     -1.57      0.00
   -4    5   20      0.75      0.00
   -3    5   20     -0.12      0.00
   -2    5   20     -2.15      0.00
    0    5   20     -2.36      0.00
    1    5   20      3.84      0.00
    2    5   20      2.46      0.00
    3    5   20     -3.48      0.00
    4    5   20     -0.61      0.00
    5    5   20      3.22      0.00
    6    5   20      0.37      0.00
    7    5   20     -1.68      0.00
    8    5   20      1.26      0.00
    9    5   20      1.31      0.00
   -5    6   20      4.26      0.00
   -4    6   20     -5.18      0.00
   -3    6   20      1.82      0.00
   -2    6   20      1.15      0.00
   -1    6   20     -2.46      0.00
    0    6   20      3.48      0.00
    1    6   20     -4.31      0.00
    2    6   20      3.67      0.00
    3    6   20      1.23      0.00
    4    6   20     -2.61      0.00
    5    6   20      0.44      0.00
    6    6   20      2.29      0.00
    7    6   20      0.27      0.00
    8    6   20     -0.23      0.00
    9    6   20     -1.95      0.00
   -4    7   20      0.67      0.00
   -3    7   20     -1.94      0.00
   -2    7   20     -0.53      0.00
   -1    7   20      1.54      0.00
    0    7   20     -5.29      0.00
    1    7   20      1.91      0.00
    2    7   20     -2.82      0.00
    3    7   20      1.86      0.00
    4    7   20      5.44      0.00
    5    7   20     -6.55      0.00
    6    7   20      1.35      0.00
    7    7   20      1.77      0.00
    8    7   20      0.32      0.00
    9    7   20     -0.50      0.00
   -3    8   20      0.68      0.00
   -2    8   20     -2.69      0.00
   -1    8   20      1.87      0.00
    0    8   20      2.45      0.00
    1    8   20     -0.71      0.00
    2    8   20     -0.80      0.00
    3    8   20     -1.18      0.00
    4    8   20      1.28      0.00
    5    8   20      1.44      0.00
    6    8   20      0.29      0.00
    7    8   20     -2.07      0.00
    8    8   20      1.01      0.00
    9    8   20      1.31      0.00
   -2    9   20     -8.28      0.00
   -1    9   20      5.01      0.00
    0    9   20     -5.19      0.00
    1    9   20      0.70      0.00
    2    9   20      1.78      0.00
    3    9   20     -4.01      0.00
    4    9   20      0.65      0.00
    5    9   20      0.18      0.00
    6    9   20      1.67      0.00
    7    9   20     -1.25      0.00
    8    9   20     -1.57      0.00
    9    9   20      1.92      0.00
   -1   10   20     -3.39      0.00
    0   10   20      2.07      0.00
    1   10   20      1.18      0.00
    2   10   20     -1.54      0.00
    3   10   20      1.75      0.00
    4   10   20     -0.07      0.00
    5   10   20     -2.20      0.00
    6   10   20     -2.63      0.00
    7   10   20      5.15      0.00
    8   10   20     -2.33      0.00
    1   11   20      0.96      0.00
    2   11   20     -3.82      0.00
    3   11   20      2.39      0.00
    4   11   20     -1.90      0.00
    5   11   20      0.45      0.00
    6   11   20      0.80      0.00
    7   11   20     -2.67      0.00
    3   12   20     -7.43      0.00
    4   12   20      6.01      0.00
    5   12   20     -4.09      0.00
   -4   -8   21     -6.24      0.00
   -3   -8   21     -1.91      0.00
   -2   -8   21      6.75      0.00
   -1   -8   21      0.90      0.00
   -6   -7   21      3.26      0.00
   -5   -7   21     -8.47      0.00
   -4   -7   21      6.45      0.00
   -3   -7   21      2.38      0.00
   -2   -7   21    -12.35      0.00
   -1   -7   21      7.53      0.00
    0   -7   21     -2.65      0.00
    1   -7   21      3.36      0.00
   -6   -6   21      3.60      0.00
   -5   -6   21      3.81      0.00
   -4   -6   21     -1.83      0.00
   -3   -6   21     -0.47      0.00
   -2   -6   21     10.67      0.00
   -1   -6   21     -5.24      0.00
    0   -6   21      2.01      0.00
    1   -6   21      0.65      0.00
    2   -6   21      2.18      0.00
    3   -6   21      4.30      0.00
   -7   -5   21      1.95      0.00
   -6   -5   21      4.45      0.00
   -5   -5   21     -5.72      0.00
   -4   -5   21      3.28      0.00
   -3   -5   21     -4.77      0.00
   -2   -5   21     -4.11      0.00
   -1   -5   21      7.21      0.00
    0   -5   21    -10.19      0.00
    1   -5   21      7.74      0.00
    2   -5   21     -8.85      0.00
    3   -5   21      0.77      0.00
    4   -5   21      6.10      0.00
   -7   -4   21      7.42      0.00
   -6   -4   21     -7.58      0.00
   -5   -4   21      4.11      0.00
   -4   -4   21      1.01      0.00
   -3   -4   21      5.61      0.00
   -2   -4   21     -2.71      0.00
   -1   -4   21      2.12      0.00
    0   -4   21      1.26      0.00
    1   -4   21      5.12      0.00
    2   -4   21     -1.30      0.00
    3   -4   21      2.71      0.00
    4   -4   21     -5.77      0.00
    5   -4   21      7.16      0.00
   -7   -3   21     -5.05      0.00
   -6   -3   21      3.98      0.00
   -5   -3   21     -0.27      0.00
   -4   -3   21     -0.93      0.00
   -3   -3   21     -2.40      0.00
   -2   -3   21     -0.78      0.00
   -1   -3   21      4.08      0.00
    0   -3   21     -5.53      0.00
    1   -3   21     -5.39      0.00
    2   -3   21      6.34      0.00
    3   -3   21     -6.91      0.00
    4   -3   21      5.11      0.00
    5   -3   21     -4.79      0.00
    6   -3   21      1.08      0.00
   -7   -2   21      1.76      0.00
   -6   -2   21      1.93      0.00
   -5   -2   21     -2.57      0.00
   -4   -2   21      0.66      0.00
   -3   -2   21      4.39      0.00
   -2   -2   21     -2.51      0.00
   -1   -2   21     -1.00      0.00
    0   -2   21      6.91      0.00
    1   -2   21     -1.39      0.00
    2   -2   21     -1.56      0.00
    3   -2   21      6.36      0.00
    4   -2   21     -6.37      0.00
    5   -2   21      2.08      0.00
    6   -2   21      2.40      0.00
   -7   -1   21      3.66      0.00
   -6   -1   21     -2.63      0.00
   -5   -1   21      4.44      0.00
   -4   -1   21     -1.42      0.00
   -3   -1   21      1.47      0.00
   -2   -1   21     -0.40      0.00
   -1   -1   21     -0.62      0.00
    0   -1   21     -1.40      0.00
    1   -1   21      0.88      0.00
    2   -1   21     -2.06      0.00
    3   -1   21     -1.55      0.00
    4   -1   21      0.83      0.00
    5   -1   21     -1.87      0.00
    6   -1   21     -2.17      0.00
    7   -1   21      2.48      0.00
   -7    0   21      1.85      0.00
   -6    0   21     -2.81      0.00
   -5    0   21      2.90      0.00
   -4    0   21     -1.74      0.00
   -3    0   21      1.89      0.00
   -2    0   21     -1.93      0.00
   -1    0   21      3.82      0.00
    0    0   21     -2.94      0.00
    1    0   21      1.15      0.00
    2    0   21     -0.32      0.00
    3    0   21      1.52      0.00
    4    0   21     -0.55      0.00
    5    0   21      0.98      0.00
    6    0   21     -1.88      0.00
    7    0   21      0.32      0.00
   -7    1   21     -5.66      0.00
   -6    1   21      7.17      0.00
   -5    1   21     -4.74      0.00
   -4    1   21      1.75      0.00
   -3    1   21      3.25      0.00
   -2    1   21      0.32      0.00
   -1    1   21     -1.88      0.00
    0    1   21      3.07      0.00
    1    1   21     -2.74      0.00
    2    1   21      1.22      0.00
    3    1   21     -3.70      0.00
    4    1   21      4.01      0.00
    5    1   21     -6.16      0.00
    6    1   21      2.18      0.00
    7    1   21     -3.13      0.00
    8    1   21      3.63      0.00
   -6    2   21     -5.51      0.00
   -5    2   21      5.47      0.00
   -4    2   21     -0.86      0.00
   -3    2   21     -1.43      0.00
   -1    2   21      5.81      0.00
    0    2   21     -5.37      0.00
    1    2   21      5.50      0.00
    2    2   21     -3.59      0.00
    3    2   21     -2.34      0.00
    4    2   21     -0.17      0.00
    5    2   21      4.63      0.00
    6    2   21     -2.87      0.00
    7    2   21      0.77      0.00
    8    2   21     -3.98      0.00
   -6    3   21      4.88      0.00
   -5    3   21     -1.30      0.00
   -4    3   21     -0.22      0.00
   -3    3   21      3.77      0.00
   -2    3   21     -0.64      0.00
   -1    3   21     -0.83      0.00
    0    3   21     -0.21      0.00
    1    3   21     -0.37      0.00
    2    3   21      2.06      0.00
    3    3   21      1.81      0.00
    4    3   21     -5.35      0.00
    5    3   21     -1.57      0.00
    6    3   21      2.75      0.00
    7    3   21     -2.76      0.00
    8    3   21      1.99      0.00
   -6    4   21      3.49      0.00
   -5    4   21     -4.61      0.00
   -4    4   21      3.80      0.00
   -3    4   21      1.06      0.00
   -2    4   21      0.26      0.00
   -1    4   21      0.87      0.00
    0    4   21     -0.65      0.00
    1    4   21     -1.04      0.00
    2    4   21      1.49      0.00
    3    4   21     -3.64      0.00
    4    4   21      4.20      0.00
    5    4   21     -3.83      0.00
    6    4   21     -3.09      0.00
    7    4   21      5.28      0.00
    8    4   21     -2.86      0.00
    9    4   21      0.03      0.00
   -5    5   21      3.93      0.00
   -4    5   21     -3.00      0.00
   -3    5   21      0.56      0.00
   -2    5   21     -0.54      0.00
   -1    5   21      3.14      0.00
    0    5   21     -0.19      0.00
    1    5   21     -0.72      0.00
    2    5   21     -4.55      0.00
    3    5   21      3.85      0.00
    4    5   21      0.09      0.00
    5    5   21     -0.23      0.00
    6    5   21     -1.55      0.00
    7    5   21     -2.00      0.00
    8    5   21      1.91      0.00
    9    5   21     -0.74      0.00
   -4    6   21      6.64      0.00
   -3    6   21     -1.40      0.00
   -2    6   21      0.05      0.00
   -1    6   21      1.23      0.00
    0    6   21     -0.34      0.00
    1    6   21      2.70      0.00
    2    6   21      1.50      0.00
    3    6   21     -6.98      0.00
    4    6   21      3.18      0.00
    5    6   21     -1.94      0.00
    6    6   21      1.53      0.00
    7    6   21     -2.57      0.00
    8    6   21     -0.66      0.00
    9    6   21      2.23      0.00
   -3    7   21      3.27      0.00
   -2    7   21     -0.95      0.00
   -1    7   21     -1.97      0.00
    0    7   21      2.01      0.00
    1    7   21     -1.87      0.00
    2    7   21      1.21      0.00
    3    7   21      2.64      0.00
    4    7   21     -8.96      0.00
    5    7   21      7.51      0.00
    6    7   21     -1.30      0.00
    7    7   21     -2.33      0.00
    8    7   21      1.68      0.00
   -3    8   21     -4.69      0.00
   -2    8   21      6.98      0.00
   -1    8   21     -0.05      0.00
    0    8   21     -2.91      0.00
    1    8   21      1.95      0.00
    2    8   21      1.43      0.00
    3    8   21     -0.38      0.00
    4    8   21      4.27      0.00
    5    8   21     -8.98      0.00
    6    8   21      2.92      0.00
    7    8   21      2.05      0.00
    8    8   21     -2.21      0.00
   -1    9   21     -0.92      0.00
    0    9   21      4.35      0.00
    1    9   21     -3.97      0.00
    2    9   21     -3.23      0.00
    3    9   21      5.24      0.00
    4    9   21     -3.53      0.00
    5    9   21      3.99      0.00
    6    9   21     -1.88      0.00
    7    9   21     -2.78      0.00
    8    9   21      4.02      0.00
    0   10   21      0.17      0.00
    1   10   21      0.56      0.00
    2   10   21      4.82      0.00
    3   10   21     -6.50      0.00
    4   10   21      4.67      0.00
    5   10   21     -2.12      0.00
    6   10   21      3.79      0.00
    7   10   21     -3.19      0.00
    2   11   21     -2.84      0.00
    3   11   21      4.18      0.00
    4   11   21     -3.51      0.00
    5   11   21      2.58      0.00
   -4   -7   22     -6.59      0.00
   -3   -7   22     -5.57      0.00
   -2   -7   22      9.31      0.00
   -1   -7   22     -7.11      0.00
   -5   -6   22     -2.80      0.00
   -4   -6   22      6.01      0.00
   -3   -6   22      3.20      0.00
   -2   -6   22     -7.77      0.00
   -1   -6   22      5.69      0.00
    0   -6   22      4.19      0.00
    1   -6   22     -2.25      0.00
   -6   -5   22     -0.38      0.00
   -5   -5   22      4.41      0.00
   -4   -5   22     -6.60      0.00
   -3   -5   22     -1.74      0.00
   -2   -5   22      7.98      0.00
   -1   -5   22    -14.90      0.00
    0   -5   22      7.33      0.00
    1   -5   22     -9.48      0.00
    2   -5   22      5.22      0.00
    3   -5   22      0.21      0.00
   -6   -4   22      4.73      0.00
   -5   -4   22     -3.23      0.00
   -4   -4   22      3.93      0.00
   -3   -4   22     -3.37      0.00
   -2   -4   22      3.82      0.00
   -1   -4   22      4.54      0.00
    0   -4   22     -2.06      0.00
    1   -4   22      4.94      0.00
    2   -4   22     -3.74      0.00
    3   -4   22      1.62      0.00
    4   -4   22      6.93      0.00
   -6   -3   22     -5.43      0.00
   -5   -3   22      1.32      0.00
   -4   -3   22      1.38      0.00
   -3   -3   22     -1.32      0.00
   -2   -3   22     -0.16      0.00
   -1   -3   22     -6.35      0.00
    0   -3   22      0.81      0.00
    1   -3   22      2.45      0.00
    2   -3   22     -4.44      0.00
    3   -3   22      0.07      0.00
    4   -3   22     -4.63      0.00
    5   -3   22      8.47      0.00
   -6   -2   22      0.46      0.00
   -5   -2   22      2.05      0.00
   -4   -2   22     -0.80      0.00
   -3   -2   22     -2.70      0.00
   -2   -2   22      2.54      0.00
   -1   -2   22      8.51      0.00
    0   -2   22     -8.37      0.00
    1   -2   22      2.39      0.00
    2   -2   22      7.23      0.00
    3   -2   22     -6.17      0.00
    4   -2   22      8.75      0.00
    5   -2   22     -6.20      0.00
   -6   -1   22      4.66      0.00
   -5   -1   22     -8.82      0.00
   -4   -1   22      6.93      0.00
   -3   -1   22     -3.03      0.00
   -2   -1   22      1.39      0.00
   -1   -1   22     -6.42      0.00
    0   -1   22      9.52      0.00
    1   -1   22     -7.04      0.00
    2   -1   22     -1.02      0.00
    3   -1   22      4.23      0.00
    4   -1   22     -6.26      0.00
    5   -1   22      4.35      0.00
    6   -1   22      1.59      0.00
   -6    0   22     -2.22      0.00
   -5    0   22      2.79      0.00
   -4    0   22     -1.92      0.00
   -3    0   22     -1.77      0.00
   -2    0   22      1.89      0.00
   -1    0   22     -0.81      0.00
    0    0   22     -2.40      0.00
    1    0   22      6.97      0.00
    2    0   22     -2.63      0.00
    3    0   22      1.39      0.00
    4    0   22      1.82      0.00
    5    0   22     -0.80      0.00
    6    0   22      1.97      0.00
    7    0   22      1.79      0.00
   -6    1   22     -1.65      0.00
   -5    1   22      0.59      0.00
   -4    1   22      1.33      0.00
   -3    1   22     -3.18      0.00
   -2    1   22      2.85      0.00
   -1    1   22     -0.79      0.00
    0    1   22      0.63      0.00
    1    1   22     -1.56      0.00
    2    1   22     -0.50      0.00
    3    1   22      5.03      0.00
    4    1   22     -4.39      0.00
    5    1   22      2.68      0.00
    6    1   22     -1.94      0.00
    7    1   22      2.32      0.00
   -6    2   22      4.55      0.00
   -5    2   22     -7.36      0.00
   -4    2   22      3.44      0.00
   -3    2   22     -1.06      0.00
   -2    2   22      2.27      0.00
   -1    2   22     -6.11      0.00
    0    2   22      4.57      0.00
    1    2   22     -2.05      0.00
    2    2   22      0.94      0.00
    3    2   22      0.67      0.00
    4    2   22      3.90      0.00
    5    2   22     -2.70      0.00
    6    2   22      2.11      0.00
    7    2   22      0.01      0.00
   -5    3   22      5.40      0.00
   -4    3   22     -1.73      0.00
   -3    3   22     -3.90      0.00
   -2    3   22      0.13      0.00
   -1    3   22      3.78      0.00
    0    3   22     -2.24      0.00
    1    3   22      4.09      0.00
    2    3   22     -4.74      0.00
    3    3   22      0.66      0.00
    4    3   22      2.75      0.00
    5    3   22      2.25      0.00
    6    3   22     -1.41      0.00
    7    3   22      0.94      0.00
    8    3   22     -2.98      0.00
   -5    4   22      0.00      0.00
   -4    4   22     -0.71      0.00
   -3    4   22      0.37      0.00
   -2    4   22     -0.02      0.00
   -1    4   22     -2.08      0.00
    0    4   22     -1.04      0.00
    1    4   22      2.25      0.00
    2    4   22      0.56      0.00
    3    4   22      2.64      0.00
    4    4   22     -6.24      0.00
    5    4   22      4.27      0.00
    6    4   22      3.76      0.00
    7    4   22     -4.25      0.00
    8    4   22      3.82      0.00
   -4    5   22      2.04      0.00
   -3    5   22     -1.59      0.00
   -2    5   22      0.48      0.00
   -1    5   22     -2.24      0.00
    0    5   22     -0.15      0.00
    1    5   22      0.34      0.00
    2    5   22      1.54      0.00
    3    5   22      1.41      0.00
    4    5   22      0.27      0.00
    5    5   22     -1.36      0.00
    6    5   22      1.05      0.00
    7    5   22      4.75      0.00
    8    5   22     -2.91      0.00
   -3    6   22     -0.04      0.00
   -2    6   22      1.76      0.00
   -1    6   22      0.97      0.00
    0    6   22     -1.31      0.00
    1    6   22      0.51      0.00
    2    6   22     -4.80      0.00
    3    6   22      5.95      0.00
    4    6   22     -0.42      0.00
    5    6   22      2.29      0.00
    6    6   22     -5.79      0.00
    7    6   22      3.87      0.00
    8    6   22      0.85      0.00
   -3    7   22     -2.25      0.00
   -2    7   22     -1.57      0.00
   -1    7   22     -0.01      0.00
    0    7   22     -0.68      0.00
    1    7   22      1.55      0.00
    2    7   22     -0.37      0.00
    3    7   22     -3.63      0.00
    4    7   22      6.18      0.00
    5    7   22     -2.82      0.00
    6    7   22      3.31      0.00
    7    7   22     -0.93      0.00
   -1    8   22      0.16      0.00
    0    8   22      1.42      0.00
    1    8   22      1.07      0.00
    2    8   22     -0.76      0.00
    3    8   22      0.82      0.00
    4    8   22     -6.53      0.00
    5    8   22     10.39      0.00
    6    8   22     -5.07      0.00
    7    8   22     -0.01      0.00
    0    9   22     -7.43      0.00
    1    9   22      4.03      0.00
    2    9   22      1.51      0.00
    3    9   22     -2.49      0.00
    4    9   22      3.29      0.00
    5    9   22     -6.16      0.00
    6    9   22      3.80      0.00
    2   10   22     -3.54      0.00
    3   10   22      7.73      0.00
    4   10   22     -5.61      0.00
    5   10   22      3.80      0.00
   -2   -6   23      6.09      0.00
   -1   -6   23      2.35      0.00
   -4   -5   23      2.96      0.00
   -3   -5   23      0.15      0.00
   -2   -5   23    -11.04      0.00
   -1   -5   23      7.03      0.00
    0   -5   23     -3.19      0.00
    1   -5   23      0.33      0.00
   -5   -4   23      3.62      0.00
   -4   -4   23     -4.08      0.00
   -3   -4   23      5.11      0.00
   -2   -4   23      3.23      0.00
   -1   -4   23     -4.58      0.00
    0   -4   23      7.48      0.00
    1   -4   23     -4.33      0.00
    2   -4   23      6.79      0.00
    3   -4   23      0.14      0.00
   -5   -3   23     -2.23      0.00
   -4   -3   23     -3.14      0.00
   -3   -3   23     -0.88      0.00
   -2   -3   23     -0.88      0.00
   -1   -3   23     -1.34      0.00
    0   -3   23     -0.27      0.00
    1   -3   23     -2.85      0.00
    2   -3   23     -4.36      0.00
    3   -3   23      4.64      0.00
    4   -3   23      0.05      0.00
   -5   -2   23      2.93      0.00
   -4   -2   23      0.27      0.00
   -3   -2   23      1.13      0.00
   -2   -2   23      1.46      0.00
   -1   -2   23     -6.35      0.00
    0   -2   23      6.83      0.00
    1   -2   23      3.48      0.00
    2   -2   23     -3.88      0.00
    3   -2   23      2.09      0.00
    4   -2   23     -3.26      0.00
   -5   -1   23      8.00      0.00
   -4   -1   23     -8.91      0.00
   -3   -1   23      4.17      0.00
   -2   -1   23     -4.25      0.00
   -1   -1   23      9.34      0.00
    0   -1   23    -13.78      0.00
    1   -1   23      1.77      0.00
    2   -1   23      4.44      0.00
    3   -1   23     -7.45      0.00
    4   -1   23      4.89      0.00
    5   -1   23     -5.26      0.00
   -5    0   23     -6.41      0.00
   -4    0   23      5.15      0.00
   -3    0   23     -0.72      0.00
   -2    0   23     -0.42      0.00
   -1    0   23     -5.33      0.00
    0    0   23     12.38      0.00
    1    0   23    -11.90      0.00
    2    0   23      4.57      0.00
    3    0   23      1.08      0.00
    4    0   23     -3.04      0.00
    5    0   23      3.38      0.00
    6    0   23     -2.07      0.00
   -5    1   23      6.41      0.00
   -4    1   23     -6.17      0.00
   -3    1   23      4.62      0.00
   -2    1   23     -3.68      0.00
   -1    1   23      3.94      0.00
    0    1   23     -6.29      0.00
    1    1   23      7.02      0.00
    2    1   23     -3.85      0.00
    3    1   23     -4.50      0.00
    4    1   23      1.41      0.00
    5    1   23     -2.04      0.00
    6    1   23      1.38      0.00
   -5    2   23      2.49      0.00
   -4    2   23     -0.83      0.00
   -3    2   23     -1.07      0.00
   -2    2   23      1.39      0.00
   -1    2   23     -1.00      0.00
    0    2   23      1.73      0.00
    1    2   23     -6.33      0.00
    2    2   23      4.14      0.00
    3    2   23      1.90      0.00
    4    2   23     -5.31      0.00
    5    2   23      1.42      0.00
    6    2   23     -0.38      0.00
   -4    3   23      3.06      0.00
   -3    3   23      1.79      0.00
   -2    3   23      1.10      0.00
   -1    3   23     -4.65      0.00
    0    3   23      3.86      0.00
    1    3   23     -2.20      0.00
    2    3   23      1.46      0.00
    3    3   23     -1.97      0.00
    4    3   23      0.50      0.00
    5    3   23     -2.46      0.00
    6    3   23     -2.53      0.00
    7    3   23      1.24      0.00
   -4    4   23     -1.85      0.00
   -3    4   23     -0.79      0.00
   -2    4   23      1.29      0.00
   -1    4   23      1.45      0.00
    0    4   23      1.78      0.00
    1    4   23     -3.56      0.00
    2    4   23     -2.10      0.00
    3    4   23     -1.38      0.00
    4    4   23      4.08      0.00
    5    4   23     -2.50      0.00
    6    4   23     -1.78      0.00
    7    4   23      0.27      0.00
   -3    5   23      1.23      0.00
   -2    5   23     -0.79      0.00
   -1    5   23     -1.11      0.00
    0    5   23      1.55      0.00
    1    5   23     -0.36      0.00
    2    5   23      3.13      0.00
    3    5   23     -4.77      0.00
    4    5   23     -0.65      0.00
    5    5   23      1.65      0.00
    6    5   23      0.65      0.00
    7    5   23     -4.27      0.00
   -2    6   23     -0.71      0.00
   -1    6   23     -0.82      0.00
    0    6   23      2.18      0.00
    1    6   23     -2.03      0.00
    2    6   23      1.90      0.00
    3    6   23     -0.16      0.00
    4    6   23     -4.38      0.00
    5    6   23     -2.84      0.00
    6    6   23      5.58      0.00
    7    6   23     -3.55      0.00
   -1    7   23     -1.88      0.00
    0    7   23      0.53      0.00
    1    7   23     -1.93      0.00
    2    7   23     -0.20      0.00
    3    7   23      2.23      0.00
    4    7   23      1.39      0.00
    5    7   23     -1.79      0.00
    6    7   23     -4.70      0.00
    0    8   23      2.53      0.00
    1    8   23     -1.12      0.00
    2    8   23     -1.22      0.00
    3    8   23      0.11      0.00
    4    8   23      1.98      0.00
    5    8   23     -5.25      0.00
    6    8   23      3.91      0.00
    2    9   23      0.25      0.00
    3    9   23     -1.87      0.00
    4    9   23     -0.25      0.00
   -3   -4   24     -0.40      0.00
   -2   -4   24     -2.78      0.00
   -1   -4   24      8.05      0.00
    0   -4   24     -2.03      0.00
   -4   -3   24     -0.60      0.00
   -3   -3   24      2.60      0.00
   -2   -3   24     -5.20      0.00
   -1   -3   24      2.06      0.00
    0   -3   24     -3.57      0.00
    1   -3   24     -2.41      0.00
    2   -3   24      4.69      0.00
   -4   -2   24      1.99      0.00
   -3   -2   24      0.78      0.00
   -2   -2   24      2.33      0.00
   -1   -2   24      1.45      0.00
    0   -2   24      3.18      0.00
    1   -2   24     -2.72      0.00
    2   -2   24      1.22      0.00
    3   -2   24      5.06      0.00
   -4   -1   24      4.83      0.00
   -3   -1   24     -3.53      0.00
   -2   -1   24      2.24      0.00
   -1   -1   24     -6.15      0.00
    0   -1   24      4.43      0.00
    1   -1   24      4.18      0.00
    2   -1   24     -8.18      0.00
    3   -1   24      1.98      0.00
    4   -1   24     -0.18      0.00
   -4    0   24     -5.21      0.00
   -3    0   24      2.73      0.00
   -2    0   24     -0.74      0.00
   -1    0   24      8.25      0.00
    0    0   24    -12.29      0.00
    1    0   24      7.98      0.00
    2    0   24      3.19      0.00
    3    0   24     -2.53      0.00
    4    0   24      3.73      0.00
   -4    1   24      7.09      0.00
   -3    1   24     -2.44      0.00
   -2    1   24      1.33      0.00
   -1    1   24     -3.73      0.00
    0    1   24      9.63      0.00
    1    1   24     -9.50      0.00
    2    1   24      3.35      0.00
    3    1   24      2.05      0.00
    4    1   24     -0.88      0.00
    5    1   24      1.46      0.00
   -4    2   24     -5.36      0.00
   -3    2   24      4.43      0.00
   -2    2   24     -4.82      0.00
   -1    2   24      5.35      0.00
    0    2   24     -6.44      0.00
    1    2   24     10.04      0.00
    2    2   24     -4.89      0.00
    3    2   24     -2.32      0.00
    4    2   24      5.41      0.00
    5    2   24      0.90      0.00
   -3    3   24     -1.41      0.00
   -2    3   24     -0.28      0.00
   -1    3   24      2.60      0.00
    0    3   24     -0.43      0.00
    1    3   24     -3.33      0.00
    2    3   24      5.46      0.00
    3    3   24      1.39      0.00
    4    3   24     -3.52      0.00
    5    3   24      1.09      0.00
   -3    4   24      2.03      0.00
   -2    4   24     -2.53      0.00
   -1    4   24     -0.17      0.00
    0    4   24     -1.97      0.00
    1    4   24      3.92      0.00
    2    4   24     -0.99      0.00
    3    4   24      1.09      0.00
    4    4   24     -0.28      0.00
    5    4   24      1.15      0.00
    6    4   24     -1.21      0.00
   -2    5   24      1.25      0.00
   -1    5   24      1.52      0.00
    0    5   24     -0.62      0.00
    1    5   24     -1.46      0.00
    2    5   24     -0.99      0.00
    3    5   24      3.82      0.00
    4    5   24      2.02      0.00
    5    5   24      0.26      0.00
   -1    6   24      1.47      0.00
    0    6   24     -1.01      0.00
    1    6   24      0.95      0.00
    2    6   24      1.50      0.00
    3    6   24     -5.02      0.00
    4    6   24      3.65      0.00
    5    6   24      2.66      0.00
    0    7   24     -0.51      0.00
    1    7   24      0.07      0.00
    2    7   24      1.83      0.00
    3    7   24      1.09      0.00
    4    7   24     -4.69      0.00
    5    7   24      4.21      0.00
   -2   -2   25     -4.06      0.00
   -1   -2   25      5.46      0.00
    0   -2   25     -3.48      0.00
    1   -2   25      2.20      0.00
   -2   -1   25      0.15      0.00
   -1   -1   25     -2.40      0.00
    0   -1   25      2.26      0.00
    1   -1   25     -7.68      0.00
    2   -1   25      3.21      0.00
   -2    0   25      0.28      0.00
   -1    0   25     -3.62      0.00
    0    0   25      4.97      0.00
    1    0   25      2.31      0.00
    2    0   25     -6.79      0.00
    3    0   25      2.68      0.00
   -2    1   25      1.11      0.00
   -1    1   25      2.23      0.00
    0    1   25     -8.88      0.00
    1    1   25      4.94      0.00
    2    1   25      0.53      0.00
    3    1   25     -3.29      0.00
   -2    2   25      2.16      0.00
   -1    2   25     -3.65      0.00
    0    2   25      4.66      0.00
    1    2   25     -6.48      0.00
    2    2   25      1.48      0.00
    3    2   25      2.77      0.00
    4    2   25     -1.61      0.00
   -1    3   25      0.17      0.00
    0    3   25     -1.88      0.00
    1    3   25      5.83      0.00
    2    3   25     -6.95      0.00
    3    3   25     -2.10      0.00
    4    3   25      3.42      0.00
   -1    4   25      0.13      0.00
    0    4   25      0.04      0.00
    1    4   25     -3.78      0.00
    2    4   25      3.63      0.00
    3    4   25     -1.77      0.00
    4    4   25     -2.09      0.00
    0    5   25     -1.02      0.00
    1    5   25      4.44      0.00
    2    5   25     -2.77      0.00
    3    5   25     -0.17      0.00
    1    0    0   -122.77      0.00
   14    0    0      3.15      0.00
  -14    1    0     -0.96      0.00
    0    1    0    -85.47      0.00
    1    1    0     68.04      0.00
   14    1    0     -0.55      0.00
  -13    2    0      1.27      0.00
   14    2    0     -1.18      0.00
  -13    3    0     -0.85      0.00
  -12    4    0     -2.93      0.00
  -12    5    0      1.51      0.00
  -11    6    0      0.66      0.00
  -11    7    0      2.72      0.00
  -10    7    0     -1.76      0.00
  -10    8    0      1.51      0.00
   -9    9    0     -1.98      0.00
   -9   10    0      0.41      0.00
   -8   10    0     -1.24      0.00
   -8   11    0     -0.59      0.00
   -7   11    0      2.67      0.00
   14   11    0      2.61      0.00
   -7   12    0     -0.04      0.00
   -6   12    0      1.33      0.00
   14   12    0     -3.57      0.00
   -6   13    0      1.61      0.00
   -5   13    0     -1.38      0.00
   13   13    0     -1.77      0.00
   14   13    0      2.08      0.00
   -5   14    0      1.62      0.00
   -4   14    0      0.50      0.00
   -3   14    0      0.57      0.00
   13   14    0     -2.76      0.00
   14   14    0      1.11      0.00
   -3   15    0     -2.91      0.00
   -2   15    0      1.04      0.00
   12   15    0      1.96      0.00
   13   15    0      0.44      0.00
   -2   16    0      2.37      0.00
   -1   16    0     -2.80      0.00
    0   16    0      2.49      0.00
   10   16    0     -2.87      0.00
   11   16    0      3.40      0.00
   12   16    0     -1.11      0.00
    0   17    0     -4.38      0.00
    1   17    0      2.29      0.00
    2   17    0     -2.41      0.00
    3   17    0     -0.75      0.00
    4   17    0      0.62      0.00
    7   17    0     -1.41      0.00
    8   17    0      0.48      0.00
    9   17    0      0.19      0.00
   10   17    0      2.60      0.00
   11   17    0     -3.86      0.00
  -11  -17    1      0.27      0.00
  -10  -17    1     -0.18      0.00
   -9  -17    1     -3.45      0.00
   -8  -17    1      1.61      0.00
   -7  -17    1      1.47      0.00
   -6  -17    1     -0.52      0.00
   -5  -17    1      0.05      0.00
   -4  -17    1      0.13      0.00
   -3  -17    1     -2.45      0.00
   -2  -17    1      3.38      0.00
   -1  -17    1     -3.66      0.00
    0  -17    1      0.73      0.00
  -12  -16    1      1.20      0.00
  -11  -16    1     -1.73      0.00
  -10  -16    1      0.23      0.00
    0  -16    1     -1.94      0.00
    1  -16    1      6.01      0.00
    2  -16    1     -2.65      0.00
  -13  -15    1      0.00      0.00
  -12  -15    1     -3.47      0.00
    2  -15    1      3.69      0.00
    3  -15    1     -0.27      0.00
  -14  -14    1     -1.51      0.00
  -13  -14    1      2.59      0.00
    3  -14    1     -0.23      0.00
    4  -14    1      2.51      0.00
  -14  -13    1      1.01      0.00
  -13  -13    1      0.57      0.00
    5  -13    1      2.23      0.00
    6  -13    1     -0.90      0.00
  -14  -12    1      1.61      0.00
    6  -12    1      2.86      0.00
    7  -12    1     -0.64      0.00
  -14  -11    1     -1.28      0.00
    7  -11    1     -0.18      0.00
    8  -11    1      0.09      0.00
    8  -10    1     -0.22      0.00
    9  -10    1      0.01      0.00
    9   -9    1      2.42      0.00
   10   -8    1     -0.94      0.00
   10   -7    1      2.48      0.00
   11   -7    1     -1.45      0.00
   11   -6    1      0.53      0.00
   12   -5    1      0.73      0.00
   12   -4    1      1.35      0.00
   13   -3    1      1.38      0.00
  -14   -2    1      2.79      0.00
   13   -2    1     -3.37      0.00
  -14   -1    1     -2.72      0.00
    0   -1    1    -15.80      0.00
   14   -1    1     -0.73      0.00
  -14    0    1     -1.71      0.00
   -1    0    1     95.58      0.00
    0    0    1   -131.92      0.00
   14    0    1     -1.25      0.00
  -14    1    1      2.20      0.00
    0    1    1    125.36      0.00
   14    1    1      0.74      0.00
  -13    2    1      1.01      0.00
   14    2    1      1.18      0.00
  -13    3    1      0.02      0.00
  -12    4    1      2.62      0.00
  -12    5    1     -1.03      0.00
  -11    6    1     -5.35      0.00
  -11    7    1     -0.34      0.00
  -10    7    1      0.83      0.00
  -10    8    1     -2.66      0.00
   -9    9    1      1.38      0.00
   -9   10    1     -0.76      0.00
   -8   10    1      1.39      0.00
   -8   11    1     -0.24      0.00
   -7   11    1     -2.62      0.00
   14   11    1      1.35      0.00
   -7   12    1      3.07      0.00
   -6   12    1     -6.78      0.00
   14   12    1      1.09      0.00
   -6   13    1      0.55      0.00
   -5   13    1     -1.81      0.00
   14   13    1     -2.77      0.00
   -5   14    1     -0.36      0.00
   -4   14    1     -1.46      0.00
   13   14    1      0.95      0.00
   14   14    1      1.38      0.00
   -3   15    1      1.77      0.00
   -2   15    1     -7.07      0.00
   12   15    1      0.03      0.00
   13   15    1     -0.86      0.00
   -2   16    1      2.87      0.00
   -1   16    1     -0.54      0.00
    0   16    1      2.14      0.00
   11   16    1      0.27      0.00
   12   16    1      0.18      0.00
    0   17    1      2.45      0.00
    1   17    1     -2.63      0.00
    2   17    1      0.02      0.00
    3   17    1     -0.29      0.00
    4   17    1      0.68      0.00
    7   17    1      0.91      0.00
    8   17    1     -2.25      0.00
    9   17    1      3.30      0.00
   10   17    1     -4.59      0.00
   11   17    1      3.08      0.00
  -11  -17    2      1.00      0.00
  -10  -17    2     -0.39      0.00
   -9  -17    2      1.48      0.00
   -8  -17    2      0.16      0.00
   -7  -17    2     -1.84      0.00
   -6  -17    2      1.17      0.00
   -5  -17    2      1.15      0.00
   -4  -17    2     -1.75      0.00
   -3  -17    2      2.95      0.00
   -2  -17    2     -3.75      0.00
   -1  -17    2     -1.00      0.00
    0  -17    2      0.63      0.00
  -12  -16    2      2.10      0.00
  -11  -16    2     -1.84      0.00
  -10  -16    2      4.11      0.00
   -1  -16    2     -1.13      0.00
    0  -16    2      1.32      0.00
    1  -16    2     -0.62      0.00
  -13  -15    2     -1.62      0.00
  -12  -15    2      3.92      0.00
    2  -15    2     -7.43      0.00
    3  -15    2      0.46      0.00
  -14  -14    2      0.29      0.00
  -13  -14    2     -2.83      0.00
    3  -14    2     -0.20      0.00
    4  -14    2     -1.66      0.00
  -14  -13    2     -0.79      0.00
  -13  -13    2      0.63      0.00
    5  -13    2     -2.37      0.00
    6  -13    2     -2.04      0.00
  -14  -12    2     -0.49      0.00
    6  -12    2     -2.58      0.00
    7  -12    2     -1.64      0.00
  -14  -11    2     -1.45      0.00
    7  -11    2     -1.26      0.00
    8  -11    2     -0.51      0.00
    8  -10    2     -0.12      0.00
    9   -9    2     -0.67      0.00
   10   -8    2     -1.07      0.00
   10   -7    2     -0.56      0.00
   11   -7    2      1.58      0.00
   11   -6    2     -2.10      0.00
   12   -5    2     -0.29      0.00
   12   -4    2     -2.59      0.00
   13   -3    2      0.22      0.00
  -14   -2    2     -3.54      0.00
   13   -2    2      1.39      0.00
  -14   -1    2      5.47      0.00
    0   -1    2     49.51      0.00
   14   -1    2      2.09      0.00
  -14    0    2     -3.13      0.00
   -1    0    2      0.11      0.00
    0    0    2     19.45      0.00
   14    0    2     -0.19      0.00
  -14    1    2     -1.48      0.00
  -13    1    2      3.31      0.00
   14    1    2      0.22      0.00
  -13    2    2     -1.72      0.00
   14    2    2     -1.72      0.00
  -13    3    2      2.12      0.00
  -12    4    2     -1.71      0.00
  -12    5    2      0.84      0.00
  -11    6    2      7.38      0.00
  -11    7    2     -3.14      0.00
  -10    7    2      4.55      0.00
  -10    8    2      0.58      0.00
   -9    9    2      0.14      0.00
   -9   10    2      0.15      0.00
   -8   10    2     -0.79      0.00
   -8   11    2      1.66      0.00
   -7   11    2      0.82      0.00
   14   11    2     -4.88      0.00
   -7   12    2     -3.39      0.00
   -6   12    2      9.70      0.00
   14   12    2      3.00      0.00
   -6   13    2     -5.28      0.00
   -5   13    2      5.47      0.00
   14   13    2     -0.47      0.00
   -5   14    2     -1.29      0.00
   -4   14    2      2.51      0.00
   13   14    2      0.56      0.00
   14   14    2     -3.41      0.00
   -3   15    2     -2.09      0.00
   -2   15    2      5.96      0.00
   12   15    2     -2.14      0.00
   13   15    2      1.38      0.00
   -2   16    2     -3.61      0.00
   -1   16    2      6.13      0.00
    0   16    2     -3.37      0.00
   11   16    2     -2.32      0.00
   12   16    2      0.82      0.00
    0   17    2     -1.98      0.00
    1   17    2      0.32      0.00
    2   17    2     -1.36      0.00
    3   17    2      0.50      0.00
    4   17    2     -1.52      0.00
    8   17    2      0.94      0.00
    9   17    2     -3.48      0.00
   10   17    2      1.53      0.00
   11   17    2      0.03      0.00
  -11  -17    3     -0.65      0.00
  -10  -17    3     -1.96      0.00
   -9  -17    3      2.32      0.00
   -8  -17    3     -2.42      0.00
   -7  -17    3      2.54      0.00
   -6  -17    3     -0.69      0.00
   -5  -17    3     -0.48      0.00
   -4  -17    3      0.22      0.00
   -3  -17    3     -0.72      0.00
   -2  -17    3     -1.85      0.00
   -1  -17    3      2.43      0.00
  -12  -16    3     -3.82      0.00
  -11  -16    3      4.98      0.00
  -10  -16    3     -3.04      0.00
   -1  -16    3     -0.18      0.00
    0  -16    3      5.23      0.00
    1  -16    3     -2.26      0.00
  -13  -15    3      3.33      0.00
  -12  -15    3     -3.96      0.00
  -11  -15    3     -0.84      0.00
    1  -15    3     -1.85      0.00
    2  -15    3      1.61      0.00
    3  -15    3     -0.01      0.00
  -14  -14    3      0.07      0.00
  -13  -14    3      1.55      0.00
  -12  -14    3     -2.07      0.00
    3  -14    3      2.07      0.00
    4  -14    3      1.79      0.00
  -14  -13    3     -0.75      0.00
  -13  -13    3      0.34      0.00
   -8  -13    3     -4.51      0.00
    5  -13    3      0.46      0.00
  -14  -12    3      1.30      0.00
    6  -12    3      0.08      0.00
    7  -12    3      3.45      0.00
  -14  -11    3      1.58      0.00
    7  -11    3      0.03      0.00
  -14  -10    3     -0.67      0.00
    8  -10    3     -0.23      0.00
    9   -9    3     -0.01      0.00
    9   -8    3     -0.58      0.00
   10   -8    3      0.48      0.00
   10   -7    3      1.47      0.00
   11   -7    3      0.20      0.00
   11   -6    3      0.07      0.00
   12   -5    3      1.45      0.00
   12   -4    3      0.36      0.00
   13   -3    3      1.37      0.00
  -14   -2    3      1.08      0.00
   13   -2    3     -0.02      0.00
  -14   -1    3     -3.61      0.00
   13   -1    3      3.21      0.00
   14   -1    3     -1.30      0.00
  -14    0    3      6.17      0.00
   14    0    3     -0.12      0.00
  -14    1    3     -1.07      0.00
  -13    1    3      0.08      0.00
   14    1    3     -0.39      0.00
  -13    2    3      0.53      0.00
   14    2    3     -0.44      0.00
  -13    3    3     -2.35      0.00
  -12    4    3     -0.77      0.00
  -12    5    3      1.34      0.00
  -11    6    3     -7.24      0.00
  -11    7    3      6.28      0.00
  -10    7    3     -8.93      0.00
  -10    8    3      3.06      0.00
   -9    9    3      0.17      0.00
   -9   10    3     -0.08      0.00
   -8   10    3      0.17      0.00
   -8   11    3     -1.45      0.00
   -7   11    3      2.15      0.00
   14   11    3      5.08      0.00
   -7   12    3      1.07      0.00
   -6   12    3     -5.81      0.00
   14   12    3     -5.66      0.00
   -6   13    3      6.46      0.00
   -5   13    3     -9.22      0.00
   14   13    3      5.04      0.00
   -5   14    3      5.32      0.00
   -4   14    3     -2.33      0.00
   13   14    3      0.14      0.00
   14   14    3      0.93      0.00
   -3   15    3      0.53      0.00
   -2   15    3     -5.21      0.00
   12   15    3      2.76      0.00
   13   15    3     -2.03      0.00
   -2   16    3      3.89      0.00
   -1   16    3     -4.33      0.00
    0   16    3      5.13      0.00
   11   16    3      2.37      0.00
   12   16    3     -0.03      0.00
   13   16    3     -0.38      0.00
    0   17    3     -1.41      0.00
    1   17    3     -0.40      0.00
    2   17    3      0.16      0.00
    3   17    3      0.40      0.00
    4   17    3     -0.40      0.00
    8   17    3      1.32      0.00
    9   17    3     -0.36      0.00
   10   17    3      1.96      0.00
   11   17    3     -3.31      0.00
  -10  -17    4      2.07      0.00
   -9  -17    4     -3.25      0.00
   -8  -17    4      2.08      0.00
   -7  -17    4      0.25      0.00
   -6  -17    4      0.61      0.00
   -5  -17    4     -0.02      0.00
   -4  -17    4      1.55      0.00
   -3  -17    4     -3.39      0.00
   -2  -17    4      3.12      0.00
   -1  -17    4     -3.44      0.00
  -12  -16    4      3.81      0.00
  -11  -16    4     -3.11      0.00
  -10  -16    4      0.83      0.00
   -9  -16    4      2.82      0.00
   -1  -16    4      5.54      0.00
    0  -16    4     -4.72      0.00
    1  -16    4      3.36      0.00
  -13  -15    4     -3.25      0.00
  -12  -15    4      1.03      0.00
  -11  -15    4      3.78      0.00
    1  -15    4     -6.07      0.00
    2  -15    4      2.60      0.00
    3  -15    4     -2.72      0.00
  -13  -14    4      0.83      0.00
  -12  -14    4      0.02      0.00
    3  -14    4      1.80      0.00
    4  -14    4     -1.80      0.00
  -14  -13    4      1.39      0.00
  -13  -13    4     -0.61      0.00
    4  -13    4      1.20      0.00
    5  -13    4      0.28      0.00
  -14  -12    4     -3.28      0.00
  -13  -12    4      1.35      0.00
    6  -12    4      1.58      0.00
  -14  -11    4      1.85      0.00
    7  -11    4      1.90      0.00
  -14  -10    4      0.00      0.00
    8  -10    4      0.28      0.00
  -14   -9    4      0.78      0.00
    9   -9    4      1.26      0.00
    9   -8    4     -1.78      0.00
   10   -8    4      0.08      0.00
   10   -7    4      0.72      0.00
   11   -7    4     -0.10      0.00
   11   -6    4     -1.73      0.00
   11   -5    4      2.05      0.00
   12   -5    4      0.37      0.00
   12   -4    4     -1.24      0.00
  -14   -3    4      3.47      0.00
   13   -3    4     -1.32      0.00
  -14   -2    4     -0.56      0.00
   13   -2    4     -2.08      0.00
  -14   -1    4     -0.10      0.00
   13   -1    4     -0.39      0.00
   14   -1    4      0.52      0.00
  -14    0    4     -3.04      0.00
   14    0    4      0.45      0.00
  -14    1    4      1.61      0.00
  -13    1    4     -1.49      0.00
   14    1    4      0.82      0.00
  -13    2    4      1.19      0.00
   14    2    4      2.29      0.00
  -13    3    4      0.60      0.00
  -12    4    4      0.93      0.00
  -12    5    4     -3.79      0.00
  -11    6    4      3.94      0.00
  -11    7    4     -5.40      0.00
  -10    7    4      9.41      0.00
  -10    8    4     -6.76      0.00
   -9    9    4     -1.21      0.00
   -8   10    4     -0.31      0.00
   -8   11    4      0.24      0.00
   -7   11    4     -4.57      0.00
   14   11    4     -1.86      0.00
   -7   12    4      1.82      0.00
   -6   12    4     -2.98      0.00
   14   12    4      3.97      0.00
   -6   13    4     -3.20      0.00
   -5   13    4      5.29      0.00
   14   13    4     -5.01      0.00
   -5   14    4     -6.18      0.00
   -4   14    4      4.91      0.00
   -3   14    4      0.35      0.00
   13   14    4     -2.05      0.00
   14   14    4      2.70      0.00
   -3   15    4     -1.85      0.00
   -2   15    4      1.65      0.00
   12   15    4     -2.76      0.00
   13   15    4      2.38      0.00
   -2   16    4     -0.16      0.00
   -1   16    4      1.92      0.00
    0   16    4      0.57      0.00
   11   16    4      0.06      0.00
   12   16    4      0.93      0.00
    0   17    4      0.50      0.00
    1   17    4     -0.74      0.00
    2   17    4     -1.60      0.00
    3   17    4     -1.53      0.00
    4   17    4      2.40      0.00
    8   17    4     -1.66      0.00
    9   17    4      3.24      0.00
   10   17    4     -4.25      0.00
   11   17    4      1.53      0.00
  -10  -17    5     -0.87      0.00
   -9  -17    5      1.82      0.00
   -8  -17    5      0.06      0.00
   -7  -17    5     -1.55      0.00
   -6  -17    5      0.79      0.00
   -5  -17    5     -0.10      0.00
   -4  -17    5     -0.25      0.00
   -3  -17    5      1.46      0.00
   -2  -17    5     -3.23      0.00
   -1  -17    5      0.20      0.00
  -11  -16    5      1.54      0.00
  -10  -16    5      1.89      0.00
   -9  -16    5     -3.14      0.00
   -8  -16    5      0.56      0.00
   -2  -16    5      5.61      0.00
   -1  -16    5     -3.20      0.00
    0  -16    5      2.13      0.00
    1  -16    5      1.43      0.00
  -12  -15    5      1.92      0.00
  -11  -15    5     -6.59      0.00
    1  -15    5      4.86      0.00
    2  -15    5     -4.04      0.00
  -13  -14    5     -1.70      0.00
  -12  -14    5      0.24      0.00
    3  -14    5     -4.33      0.00
    4  -14    5      2.59      0.00
  -14  -13    5      0.21      0.00
  -13  -13    5      0.61      0.00
   -7  -13    5     -0.90      0.00
    4  -13    5     -1.45      0.00
    5  -13    5     -0.79      0.00
  -14  -12    5      2.44      0.00
  -13  -12    5     -1.35      0.00
    5  -12    5      0.30      0.00
    6  -12    5     -2.00      0.00
  -14  -11    5     -3.77      0.00
    7  -11    5     -1.21      0.00
  -14  -10    5      2.59      0.00
    8  -10    5     -0.50      0.00
  -14   -9    5     -2.20      0.00
    8   -9    5      1.43      0.00
    9   -9    5      0.37      0.00
  -14   -8    5      0.20      0.00
    9   -8    5      2.38      0.00
   10   -8    5     -2.57      0.00
   10   -7    5      1.16      0.00
   11   -6    5      0.19      0.00
   11   -5    5      0.44      0.00
   12   -5    5      1.40      0.00
  -14   -4    5     -1.19      0.00
   12   -4    5     -2.26      0.00
  -14   -3    5     -2.33      0.00
   12   -3    5     -4.21      0.00
   13   -3    5      3.53      0.00
  -14   -2    5      1.58      0.00
   13   -2    5     -0.53      0.00
  -14   -1    5      0.61      0.00
   13   -1    5     -0.38      0.00
   14   -1    5      1.06      0.00
  -14    0    5     -0.36      0.00
   11    0    5      0.54      0.00
   14    0    5     -1.71      0.00
  -14    1    5     -0.17      0.00
  -13    1    5     -1.60      0.00
   14    1    5     -0.78      0.00
  -13    2    5     -0.50      0.00
   14    2    5     -2.04      0.00
  -13    3    5     -0.19      0.00
  -12    3    5      3.13      0.00
  -12    4    5      2.04      0.00
  -12    5    5      3.60      0.00
  -11    5    5     -4.45      0.00
  -11    6    5      0.54      0.00
  -11    7    5      2.55      0.00
  -10    7    5     -5.65      0.00
  -10    8    5      7.11      0.00
   -9    8    5     -6.01      0.00
   -9    9    5      2.62      0.00
   -8   10    5     -0.72      0.00
   -8   11    5      0.59      0.00
   -7   11    5      3.11      0.00
   14   11    5     -1.55      0.00
   -7   12    5     -2.23      0.00
   -6   12    5      9.33      0.00
   14   12    5     -0.33      0.00
   -6   13    5     -3.15      0.00
   -5   13    5      3.58      0.00
   13   13    5      2.83      0.00
   14   13    5      2.03      0.00
   -4   14    5     -3.16      0.00
   -3   14    5      1.44      0.00
   13   14    5     -0.76      0.00
   14   14    5     -2.45      0.00
   -3   15    5      0.67      0.00
   -2   15    5     -2.84      0.00
   12   15    5      1.57      0.00
   13   15    5     -1.52      0.00
   -2   16    5      0.46      0.00
   -1   16    5      2.11      0.00
    0   16    5     -3.34      0.00
   10   16    5      0.77      0.00
   11   16    5     -0.28      0.00
   12   16    5     -1.22      0.00
    0   17    5      0.53      0.00
    1   17    5     -2.86      0.00
    2   17    5      3.64      0.00
    3   17    5     -0.47      0.00
    4   17    5     -2.02      0.00
    7   17    5      1.92      0.00
    8   17    5      0.33      0.00
    9   17    5     -3.88      0.00
   10   17    5      2.17      0.00
   11   17    5      0.44      0.00
   -9  -17    6     -1.51      0.00
   -8  -17    6      1.20      0.00
   -7  -17    6      2.23      0.00
   -6  -17    6     -1.12      0.00
   -5  -17    6      2.56      0.00
   -4  -17    6     -3.09      0.00
   -3  -17    6      1.29      0.00
   -2  -17    6      0.54      0.00
  -11  -16    6      0.29      0.00
  -10  -16    6     -1.55      0.00
   -9  -16    6      2.96      0.00
   -8  -16    6      0.45      0.00
   -3  -16    6      2.74      0.00
   -2  -16    6     -2.17      0.00
   -1  -16    6      0.84      0.00
    0  -16    6      2.79      0.00
  -12  -15    6     -3.96      0.00
  -11  -15    6      4.28      0.00
  -10  -15    6     -2.29      0.00
    0  -15    6      0.87      0.00
    1  -15    6     -0.82      0.00
    2  -15    6     -0.21      0.00
  -13  -14    6      0.36      0.00
  -12  -14    6      3.37      0.00
    2  -14    6     -7.67      0.00
    3  -14    6      4.66      0.00
    4  -14    6     -0.76      0.00
  -13  -13    6      0.32      0.00
  -12  -13    6     -0.05      0.00
    4  -13    6      1.10      0.00
    5  -13    6      0.46      0.00
  -14  -12    6      0.24      0.00
  -13  -12    6     -0.66      0.00
    5  -12    6     -2.26      0.00
    6  -12    6      2.50      0.00
  -14  -11    6      1.84      0.00
    6  -11    6     -2.30      0.00
    7  -11    6      0.28      0.00
  -14  -10    6     -3.38      0.00
    7  -10    6     -1.24      0.00
    8  -10    6     -0.49      0.00
  -14   -9    6      2.08      0.00
    8   -9    6      1.64      0.00
    9   -9    6     -1.96      0.00
  -14   -8    6     -0.05      0.00
    9   -8    6     -3.43      0.00
   10   -8    6      1.80      0.00
  -14   -7    6      0.95      0.00
   10   -7    6     -0.73      0.00
  -14   -6    6     -1.63      0.00
   11   -6    6     -1.61      0.00
  -14   -5    6      0.40      0.00
   11   -5    6      1.84      0.00
   12   -5    6      0.11      0.00
  -14   -4    6     -0.81      0.00
   12   -4    6      2.36      0.00
  -14   -3    6      0.93      0.00
   12   -3    6      4.91      0.00
   13   -3    6     -1.45      0.00
  -14   -2    6     -1.84      0.00
   13   -2    6      1.89      0.00
  -14   -1    6      0.68      0.00
   13   -1    6      1.12      0.00
  -14    0    6      0.69      0.00
  -13    0    6      0.93      0.00
   14    0    6      1.93      0.00
  -13    1    6      2.89      0.00
   14    1    6     -0.32      0.00
  -13    2    6      0.21      0.00
   14    2    6      1.20      0.00
  -13    3    6      0.10      0.00
  -12    3    6     -6.39      0.00
   14    3    6      0.18      0.00
  -12    4    6     -1.03      0.00
  -12    5    6     -1.29      0.00
  -11    5    6      0.13      0.00
  -11    6    6     -2.11      0.00
  -10    7    6      0.23      0.00
  -10    8    6     -4.38      0.00
   -9    8    6      2.49      0.00
   -9    9    6     -2.88      0.00
   -8   10    6      0.85      0.00
   14   10    6     -1.79      0.00
   -7   11    6      1.87      0.00
   14   11    6      3.06      0.00
   -7   12    6      0.52      0.00
   -6   12    6     -6.13      0.00
   14   12    6     -2.97      0.00
   -6   13    6      5.18      0.00
   -5   13    6     -9.55      0.00
   13   13    6     -2.83      0.00
   14   13    6      0.16      0.00
   -4   14    6      0.00      0.00
   -3   14    6      0.70      0.00
   13   14    6      4.70      0.00
   14   14    6     -0.03      0.00
   -3   15    6     -1.19      0.00
   -2   15    6      3.09      0.00
   12   15    6      1.35      0.00
   13   15    6     -1.56      0.00
   -2   16    6     -0.52      0.00
   -1   16    6      1.32      0.00
    0   16    6      1.81      0.00
   10   16    6     -1.57      0.00
   11   16    6     -0.17      0.00
   12   16    6      0.93      0.00
    0   17    6     -3.18      0.00
    1   17    6      4.21      0.00
    2   17    6     -4.79      0.00
    3   17    6      1.02      0.00
    4   17    6      1.30      0.00
    5   17    6      0.56      0.00
    6   17    6      2.11      0.00
    7   17    6     -2.81      0.00
    8   17    6     -0.04      0.00
    9   17    6      1.81      0.00
   10   17    6     -0.14      0.00
   11   17    6     -1.76      0.00
   -9  -17    7      2.72      0.00
   -8  -17    7     -2.23      0.00
   -7  -17    7     -1.17      0.00
   -6  -17    7      3.84      0.00
   -5  -17    7     -3.21      0.00
   -4  -17    7      3.26      0.00
   -3  -17    7     -2.66      0.00
   -2  -17    7     -0.83      0.00
  -11  -16    7      0.06      0.00
  -10  -16    7      1.70      0.00
   -9  -16    7     -2.45      0.00
   -8  -16    7      0.82      0.00
   -7  -16    7      3.11      0.00
   -6  -16    7     -5.58      0.00
   -5  -16    7      4.44      0.00
   -4  -16    7     -7.37      0.00
   -3  -16    7      4.68      0.00
   -2  -16    7     -1.13      0.00
   -1  -16    7      1.31      0.00
    0  -16    7     -1.28      0.00
  -12  -15    7      2.28      0.00
  -11  -15    7     -1.81      0.00
  -10  -15    7     -2.21      0.00
    0  -15    7      1.41      0.00
    1  -15    7     -3.71      0.00
    2  -15    7      1.38      0.00
  -13  -14    7      1.66      0.00
  -12  -14    7     -5.20      0.00
  -11  -14    7      8.44      0.00
    2  -14    7      3.52      0.00
    3  -14    7     -1.27      0.00
  -13  -13    7     -1.56      0.00
  -12  -13    7      3.37      0.00
    4  -13    7     -0.98      0.00
    5  -13    7     -0.17      0.00
  -14  -12    7     -1.06      0.00
  -13  -12    7      1.94      0.00
    5  -12    7      3.09      0.00
    6  -12    7     -1.86      0.00
  -14  -11    7      0.85      0.00
  -13  -11    7     -3.94      0.00
    6  -11    7      3.49      0.00
    7  -11    7     -0.10      0.00
  -14  -10    7      3.60      0.00
    7  -10    7      0.47      0.00
    8  -10    7      0.37      0.00
  -14   -9    7     -2.79      0.00
    8   -9    7     -3.80      0.00
    9   -9    7      2.84      0.00
  -14   -8    7      1.53      0.00
    9   -8    7     -0.91      0.00
  -14   -7    7      0.74      0.00
   10   -7    7      1.56      0.00
  -14   -6    7      1.88      0.00
   10   -6    7     -2.47      0.00
   11   -6    7      0.05      0.00
  -14   -5    7      0.93      0.00
   11   -5    7      0.89      0.00
  -14   -4    7      1.07      0.00
   12   -4    7     -5.15      0.00
  -14   -3    7     -0.84      0.00
   12   -3    7      1.02      0.00
  -14   -2    7     -0.37      0.00
   13   -2    7     -4.52      0.00
  -14   -1    7     -0.03      0.00
   13   -1    7      2.44      0.00
  -14    0    7      0.57      0.00
  -13    0    7     -1.01      0.00
   13    0    7      1.75      0.00
   14    0    7     -1.17      0.00
  -13    1    7     -2.65      0.00
   14    1    7      1.54      0.00
  -13    2    7      1.17      0.00
   14    2    7     -1.05      0.00
  -13    3    7     -1.09      0.00
  -12    3    7      5.16      0.00
   14    3    7      1.80      0.00
  -12    4    7     -1.84      0.00
   14    4    7      3.87      0.00
  -12    5    7     -1.33      0.00
  -11    5    7     -0.01      0.00
  -11    6    7      2.08      0.00
  -10    7    7      2.07      0.00
  -10    8    7      1.63      0.00
   -9    8    7      0.90      0.00
   -9    9    7      1.21      0.00
   -8    9    7      1.42      0.00
   -8   10    7      0.95      0.00
   14   10    7     -0.81      0.00
   -7   11    7     -3.36      0.00
   14   11    7     -1.52      0.00
   -6   12    7     -1.30      0.00
   14   12    7      4.02      0.00
   -5   13    7      5.60      0.00
   -4   13    7     -4.66      0.00
   13   13    7     -1.21      0.00
   14   13    7     -1.21      0.00
   -4   14    7      2.85      0.00
   -3   14    7     -0.98      0.00
   13   14    7     -2.90      0.00
   14   14    7      0.50      0.00
   -3   15    7     -0.62      0.00
   -2   15    7     -3.48      0.00
   -1   15    7      6.33      0.00
   12   15    7     -3.47      0.00
   13   15    7      3.63      0.00
   -1   16    7     -4.68      0.00
    0   16    7      4.50      0.00
    1   16    7     -2.13      0.00
   10   16    7     -0.01      0.00
   11   16    7      1.06      0.00
   12   16    7      0.54      0.00
    0   17    7      0.69      0.00
    1   17    7     -2.80      0.00
    2   17    7      0.74      0.00
    3   17    7      1.00      0.00
    4   17    7     -2.02      0.00
    5   17    7      1.36      0.00
    6   17    7     -2.91      0.00
    7   17    7     -0.04      0.00
    8   17    7      2.32      0.00
    9   17    7     -1.34      0.00
   10   17    7     -0.91      0.00
   11   17    7      0.25      0.00
   -8  -17    8      2.45      0.00
   -7  -17    8      2.42      0.00
   -6  -17    8     -3.58      0.00
   -5  -17    8      2.78      0.00
   -4  -17    8      0.10      0.00
   -3  -17    8      0.52      0.00
  -10  -16    8     -0.35      0.00
   -9  -16    8      2.03      0.00
   -8  -16    8     -1.53      0.00
   -7  -16    8     -3.76      0.00
   -6  -16    8      7.63      0.00
   -5  -16    8     -7.36      0.00
   -4  -16    8      7.70      0.00
   -3  -16    8     -5.65      0.00
   -2  -16    8      2.27      0.00
   -1  -16    8      0.91      0.00
    0  -16    8      0.72      0.00
  -11  -15    8     -1.17      0.00
  -10  -15    8      2.34      0.00
   -9  -15    8     -6.16      0.00
   -1  -15    8     -2.52      0.00
    0  -15    8     -0.04      0.00
    1  -15    8      1.57      0.00
    2  -15    8     -1.47      0.00
  -12  -14    8      4.77      0.00
  -11  -14    8     -4.19      0.00
    2  -14    8      2.29      0.00
    3  -14    8     -0.64      0.00
  -13  -13    8      1.71      0.00
  -12  -13    8     -6.39      0.00
    3  -13    8     -6.27      0.00
    4  -13    8      0.30      0.00
  -13  -12    8     -1.24      0.00
  -12  -12    8      1.90      0.00
    5  -12    8     -1.62      0.00
    6  -12    8     -0.18      0.00
  -14  -11    8     -2.23      0.00
  -13  -11    8      4.48      0.00
    6  -11    8     -2.83      0.00
    7  -11    8     -0.34      0.00
  -14  -10    8     -0.84      0.00
  -13  -10    8     -2.51      0.00
    7  -10    8     -1.87      0.00
    8  -10    8     -0.04      0.00
  -14   -9    8      3.24      0.00
    8   -9    8      4.16      0.00
  -14   -8    8     -1.31      0.00
    9   -8    8      3.29      0.00
  -14   -7    8     -1.54      0.00
    9   -7    8     -0.09      0.00
   10   -7    8      1.14      0.00
  -14   -6    8      0.76      0.00
   10   -6    8     -0.55      0.00
   11   -6    8     -0.44      0.00
  -14   -5    8     -1.26      0.00
   11   -5    8     -0.44      0.00
  -14   -4    8      0.50      0.00
   11   -4    8     -3.18      0.00
   12   -4    8      2.53      0.00
  -14   -3    8      3.23      0.00
    9   -3    8     -4.01      0.00
   12   -3    8     -3.56      0.00
  -14   -2    8     -0.39      0.00
   12   -2    8     -2.82      0.00
   13   -2    8      1.14      0.00
  -14   -1    8     -0.72      0.00
  -13   -1    8      0.18      0.00
   10   -1    8      0.01      0.00
   13   -1    8     -3.04      0.00
  -13    0    8     -0.49      0.00
   13    0    8      1.42      0.00
   14    0    8     -1.31      0.00
  -13    1    8      2.20      0.00
   14    1    8     -0.58      0.00
  -13    2    8     -0.91      0.00
  -12    2    8      0.80      0.00
   14    2    8     -0.05      0.00
  -12    3    8     -3.54      0.00
   14    3    8     -2.34      0.00
  -12    4    8      5.13      0.00
   14    4    8     -2.52      0.00
  -11    5    8      2.07      0.00
   14    5    8      1.26      0.00
  -11    6    8     -0.24      0.00
  -10    6    8      1.44      0.00
  -10    7    8     -3.11      0.00
  -10    8    8      0.25      0.00
   -9    8    8     -0.37      0.00
   -9    9    8      0.81      0.00
   -8    9    8     -2.37      0.00
   14    9    8     -0.39      0.00
   -8   10    8     -1.86      0.00
   -7   10    8      0.89      0.00
   14   10    8      2.45      0.00
   -7   11    8     -0.16      0.00
   14   11    8     -2.00      0.00
   -6   12    8      3.52      0.00
   -5   12    8     -4.81      0.00
   14   12    8     -1.70      0.00
   -5   13    8      0.92      0.00
   -4   13    8     -1.53      0.00
   13   13    8      2.86      0.00
   14   13    8      1.91      0.00
   -4   14    8     -0.80      0.00
   -3   14    8      0.70      0.00
   12   14    8      4.58      0.00
   13   14    8     -3.72      0.00
   14   14    8      1.18      0.00
   -3   15    8      0.93      0.00
   -2   15    8     -0.41      0.00
   -1   15    8     -0.50      0.00
   11   15    8      0.04      0.00
   12   15    8      2.00      0.00
   13   15    8     -1.81      0.00
   -1   16    8      5.30      0.00
    0   16    8     -3.32      0.00
    1   16    8      1.93      0.00
   10   16    8      0.82      0.00
   11   16    8     -0.98      0.00
   12   16    8     -0.65      0.00
    1   17    8     -0.36      0.00
    2   17    8      2.25      0.00
    3   17    8     -2.70      0.00
    4   17    8      2.22      0.00
    5   17    8     -2.08      0.00
    6   17    8      1.69      0.00
    7   17    8      5.13      0.00
    8   17    8     -5.93      0.00
    9   17    8      2.40      0.00
   10   17    8     -0.10      0.00
   11   17    8      0.43      0.00
   -6  -17    9      2.44      0.00
   -5  -17    9     -0.38      0.00
   -9  -16    9     -0.40      0.00
   -8  -16    9      0.06      0.00
   -7  -16    9      2.39      0.00
   -6  -16    9     -6.97      0.00
   -5  -16    9      2.31      0.00
   -4  -16    9     -1.25      0.00
   -3  -16    9      0.80      0.00
   -2  -16    9     -0.45      0.00
   -1  -16    9     -0.43      0.00
  -11  -15    9      0.60      0.00
  -10  -15    9     -1.86      0.00
   -9  -15    9      2.81      0.00
   -8  -15    9     -2.88      0.00
   -2  -15    9     -0.42      0.00
   -1  -15    9      4.75      0.00
    0  -15    9     -4.91      0.00
    1  -15    9      0.48      0.00
  -12  -14    9     -0.84      0.00
  -11  -14    9      0.74      0.00
  -10  -14    9      2.43      0.00
    1  -14    9      3.17      0.00
    2  -14    9     -4.02      0.00
    3  -14    9      1.30      0.00
  -13  -13    9     -1.85      0.00
  -12  -13    9      5.45      0.00
  -11  -13    9     -6.23      0.00
    3  -13    9      2.17      0.00
    4  -13    9      0.40      0.00
  -13  -12    9      1.33      0.00
  -12  -12    9     -2.85      0.00
    4  -12    9      2.22      0.00
    5  -12    9     -0.63      0.00
  -14  -11    9      0.05      0.00
  -13  -11    9     -2.26      0.00
    6  -11    9      0.04      0.00
  -14  -10    9     -1.43      0.00
  -13  -10    9      6.71      0.00
    7  -10    9      1.90      0.00
  -14   -9    9     -4.17      0.00
  -13   -9    9      0.27      0.00
    8   -9    9     -0.84      0.00
  -14   -8    9      3.17      0.00
    8   -8    9      4.59      0.00
    9   -8    9     -3.25      0.00
  -14   -7    9     -2.11      0.00
    9   -7    9      3.90      0.00
   10   -7    9     -1.20      0.00
  -14   -6    9     -1.05      0.00
   10   -6    9      0.82      0.00
  -14   -5    9      1.85      0.00
   11   -5    9      3.29      0.00
  -14   -4    9     -2.72      0.00
   11   -4    9     -1.81      0.00
   12   -4    9     -1.43      0.00
  -14   -3    9     -0.94      0.00
   12   -3    9      6.10      0.00
  -14   -2    9      1.37      0.00
  -13   -2    9     -2.90      0.00
   12   -2    9     -4.31      0.00
   13   -2    9      1.66      0.00
  -14   -1    9      0.63      0.00
  -13   -1    9      1.33      0.00
   13   -1    9      1.02      0.00
  -13    0    9     -0.76      0.00
   13    0    9     -3.10      0.00
  -13    1    9     -3.10      0.00
   13    1    9     -0.67      0.00
   14    1    9     -0.38      0.00
  -13    2    9      1.68      0.00
  -12    2    9     -0.18      0.00
   14    2    9      1.40      0.00
  -12    3    9      0.62      0.00
   14    3    9      0.38      0.00
  -12    4    9     -2.93      0.00
  -11    4    9      4.12      0.00
   14    4    9      0.93      0.00
  -11    5    9     -5.16      0.00
   14    5    9     -1.53      0.00
  -11    6    9      1.74      0.00
  -10    6    9     -0.73      0.00
   14    6    9      1.58      0.00
  -10    7    9      1.26      0.00
   14    7    9     -0.39      0.00
   -9    8    9     -0.20      0.00
   14    8    9      0.84      0.00
   -9    9    9     -1.23      0.00
   -8    9    9     -0.37      0.00
   14    9    9     -2.18      0.00
   -8   10    9     -0.01      0.00
   -7   10    9      0.70      0.00
   14   10    9      1.11      0.00
   -7   11    9      2.16      0.00
   -6   11    9     -0.87      0.00
   14   11    9      2.11      0.00
   -6   12    9     -0.51      0.00
   -5   12    9      1.56      0.00
   13   12    9     -0.61      0.00
   14   12    9     -0.90      0.00
   -5   13    9     -3.84      0.00
   -4   13    9      4.26      0.00
   13   13    9      0.62      0.00
   14   13    9     -1.98      0.00
   -4   14    9     -1.10      0.00
   -3   14    9      0.56      0.00
   12   14    9     -7.94      0.00
   13   14    9      5.57      0.00
   -3   15    9     -1.88      0.00
   -2   15    9      2.13      0.00
   -1   15    9     -6.37      0.00
   11   15    9     -0.83      0.00
   12   15    9      2.63      0.00
   13   15    9     -1.53      0.00
   -1   16    9     -0.06      0.00
    0   16    9     -2.22      0.00
    1   16    9      2.94      0.00
    2   16    9     -0.24      0.00
    9   16    9     -2.12      0.00
   10   16    9     -0.40      0.00
   11   16    9     -0.01      0.00
   12   16    9     -0.64      0.00
    1   17    9     -1.16      0.00
    2   17    9     -1.48      0.00
    3   17    9      1.15      0.00
    4   17    9     -0.40      0.00
    5   17    9     -0.15      0.00
    6   17    9      1.15      0.00
    7   17    9     -7.25      0.00
    8   17    9      6.10      0.00
    9   17    9     -2.10      0.00
   10   17    9      0.48      0.00
   -9  -16   10     -0.42      0.00
   -8  -16   10      0.56      0.00
   -7  -16   10     -0.35      0.00
   -6  -16   10      0.44      0.00
   -5  -16   10      2.06      0.00
   -4  -16   10     -3.81      0.00
   -3  -16   10      1.78      0.00
   -2  -16   10      0.72      0.00
  -10  -15   10      0.05      0.00
   -9  -15   10     -0.21      0.00
   -8  -15   10     -1.38      0.00
   -7  -15   10      6.30      0.00
   -6  -15   10     -9.64      0.00
   -4  -15   10     -2.38      0.00
   -3  -15   10      2.83      0.00
   -2  -15   10      1.66      0.00
   -1  -15   10     -5.50      0.00
    0  -15   10      5.02      0.00
    1  -15   10     -1.56      0.00
  -11  -14   10      3.20      0.00
  -10  -14   10     -2.92      0.00
   -9  -14   10      2.24      0.00
    0  -14   10     -5.78      0.00
    1  -14   10      0.29      0.00
    2  -14   10      3.54      0.00
  -12  -13   10     -2.21      0.00
  -11  -13   10      0.04      0.00
    2  -13   10     -1.75      0.00
    3  -13   10      2.33      0.00
    4  -13   10     -0.57      0.00
  -13  -12   10     -1.23      0.00
  -12  -12   10      2.94      0.00
    4  -12   10     -2.36      0.00
    5  -12   10      0.96      0.00
  -13  -11   10     -0.43      0.00
  -12  -11   10     -1.03      0.00
    5  -11   10     -2.12      0.00
    6  -11   10      2.70      0.00
  -14  -10   10      2.82      0.00
  -13  -10   10     -4.70      0.00
    6  -10   10      0.43      0.00
    7  -10   10     -0.20      0.00
  -14   -9   10     -0.29      0.00
  -13   -9   10      4.20      0.00
    7   -9   10      3.52      0.00
    8   -9   10     -1.30      0.00
  -14   -8   10     -0.82      0.00
  -13   -8   10     -0.95      0.00
    8   -8   10     -1.25      0.00
    9   -8   10      0.55      0.00
  -14   -7   10      1.60      0.00
    9   -7   10     -2.66      0.00
   10   -7   10      0.28      0.00
  -14   -6   10     -1.37      0.00
   10   -6   10     -2.30      0.00
  -14   -5   10     -3.37      0.00
   10   -5   10      3.45      0.00
   11   -5   10     -2.60      0.00
  -14   -4   10      1.30      0.00
   11   -4   10      2.60      0.00
  -14   -3   10     -1.62      0.00
  -13   -3   10      4.38      0.00
   12   -3   10     -1.42      0.00
  -14   -2   10     -2.06      0.00
  -13   -2   10      0.18      0.00
    9   -2   10      1.42      0.00
   12   -2   10      5.19      0.00
  -13   -1   10      0.49      0.00
   13   -1   10      4.49      0.00
  -13    0   10      1.99      0.00
   10    0   10     -0.61      0.00
   13    0   10     -0.31      0.00
  -13    1   10      2.16      0.00
  -12    1   10      2.96      0.00
   13    1   10      1.89      0.00
   14    1   10     -0.01      0.00
  -12    2   10     -0.06      0.00
   14    2   10     -0.86      0.00
  -12    3   10      0.10      0.00
   14    3   10      1.45      0.00
  -12    4   10      2.39      0.00
  -11    4   10      0.14      0.00
   14    4   10     -1.09      0.00
  -11    5   10      1.58      0.00
   12    5   10      1.22      0.00
   14    5   10      1.15      0.00
  -11    6   10     -1.47      0.00
  -10    6   10      1.84      0.00
   14    6   10     -2.12      0.00
  -10    7   10     -0.57      0.00
   -9    7   10     -2.55      0.00
   14    7   10      0.25      0.00
   -9    8   10      1.05      0.00
   14    8   10     -0.75      0.00
   -9    9   10     -0.04      0.00
   -8    9   10      2.96      0.00
   14    9   10      1.15      0.00
   -8   10   10      0.37      0.00
   -7   10   10      0.31      0.00
   14   10   10     -3.56      0.00
   -7   11   10      0.96      0.00
   -6   11   10     -3.23      0.00
   14   11   10      0.59      0.00
   -6   12   10     -0.92      0.00
   -5   12   10      0.36      0.00
   13   12   10      0.23      0.00
   14   12   10      1.67      0.00
   -5   13   10      3.14      0.00
   -4   13   10     -3.12      0.00
   13   13   10     -3.26      0.00
   14   13   10      0.65      0.00
   -4   14   10      2.12      0.00
   -3   14   10      0.32      0.00
   -2   14   10     -0.19      0.00
   12   14   10      0.91      0.00
   13   14   10     -2.17      0.00
   -2   15   10     -1.58      0.00
   -1   15   10      5.24      0.00
   11   15   10      3.14      0.00
   12   15   10     -2.83      0.00
   -1   16   10     -2.52      0.00
    0   16   10      5.80      0.00
    1   16   10     -3.26      0.00
    2   16   10      0.66      0.00
    9   16   10      3.83      0.00
   10   16   10     -0.62      0.00
   11   16   10     -0.80      0.00
    1   17   10      3.67      0.00
    2   17   10     -0.63      0.00
    3   17   10      0.09      0.00
    4   17   10     -1.10      0.00
    5   17   10      2.35      0.00
    6   17   10     -1.62      0.00
    7   17   10      3.59      0.00
    8   17   10     -0.34      0.00
    9   17   10      0.08      0.00
   10   17   10      0.34      0.00
   -8  -16   11     -0.99      0.00
   -7  -16   11     -2.46      0.00
   -6  -16   11      1.85      0.00
   -5  -16   11     -3.28      0.00
   -4  -16   11      1.10      0.00
   -3  -16   11     -0.52      0.00
  -10  -15   11     -0.67      0.00
   -9  -15   11     -1.20      0.00
   -8  -15   11      2.89      0.00
   -7  -15   11     -4.29      0.00
   -6  -15   11      5.04      0.00
   -5  -15   11     -2.51      0.00
   -4  -15   11     -1.27      0.00
   -3  -15   11     -0.84      0.00
   -2  -15   11      0.51      0.00
   -1  -15   11      1.99      0.00
    0  -15   11     -2.75      0.00
  -11  -14   11     -2.75      0.00
  -10  -14   11      3.39      0.00
   -9  -14   11      0.64      0.00
   -1  -14   11     -5.32      0.00
    0  -14   11      5.76      0.00
    1  -14   11     -1.03      0.00
    2  -14   11     -2.10      0.00
  -12  -13   11     -2.30      0.00
  -11  -13   11      4.42      0.00
  -10  -13   11     -3.79      0.00
    2  -13   11      6.19      0.00
    3  -13   11     -4.53      0.00
  -12  -12   11     -0.15      0.00
  -11  -12   11     -0.47      0.00
    3  -12   11      1.44      0.00
    4  -12   11     -0.38      0.00
    5  -12   11     -0.26      0.00
  -13  -11   11     -0.06      0.00
  -12  -11   11      0.56      0.00
    5  -11   11      3.51      0.00
    6  -11   11     -2.80      0.00
  -13  -10   11      1.50      0.00
  -12  -10   11     -0.86      0.00
    6  -10   11      4.09      0.00
    7  -10   11     -1.02      0.00
  -14   -9   11      1.39      0.00
  -13   -9   11     -6.23      0.00
    7   -9   11     -1.45      0.00
    8   -9   11      0.96      0.00
  -14   -8   11     -0.10      0.00
  -13   -8   11      7.57      0.00
    8   -8   11     -3.16      0.00
    9   -8   11      1.09      0.00
  -14   -7   11      1.13      0.00
  -13   -7   11     -5.28      0.00
    9   -7   11      0.30      0.00
  -14   -6   11      5.29      0.00
  -13   -6   11     -6.88      0.00
    9   -6   11     -3.99      0.00
   10   -6   11      0.39      0.00
  -14   -5   11      2.70      0.00
  -13   -5   11     -5.26      0.00
   10   -5   11     -3.02      0.00
   11   -5   11      1.78      0.00
  -14   -4   11      0.14      0.00
  -13   -4   11      3.18      0.00
   11   -4   11     -5.16      0.00
  -14   -3   11      2.00      0.00
  -13   -3   11     -2.70      0.00
   11   -3   11      2.17      0.00
   12   -3   11     -1.07      0.00
  -13   -2   11      0.77      0.00
   12   -2   11     -2.42      0.00
  -13   -1   11     -0.30      0.00
   12   -1   11      6.50      0.00
   13   -1   11     -4.83      0.00
  -13    0   11     -1.86      0.00
   13    0   11      2.78      0.00
  -13    1   11      0.50      0.00
  -12    1   11     -3.51      0.00
   13    1   11     -4.15      0.00
  -12    2   11      1.29      0.00
   13    2   11      2.95      0.00
   14    2   11     -1.23      0.00
  -12    3   11     -2.29      0.00
  -11    3   11      2.14      0.00
   14    3   11     -0.62      0.00
  -11    4   11     -0.34      0.00
   14    4   11      1.35      0.00
  -11    5   11      0.32      0.00
  -10    5   11     -5.75      0.00
   14    5   11      0.74      0.00
  -10    6   11      1.38      0.00
   14    6   11      0.57      0.00
  -10    7   11     -1.26      0.00
   -9    7   11      2.29      0.00
   14    7   11      1.08      0.00
   -9    8   11     -1.86      0.00
   -8    8   11      2.69      0.00
   14    8   11      0.25      0.00
   -8    9   11     -1.77      0.00
   14    9   11      0.23      0.00
   -7   10   11     -4.88      0.00
   14   10   11      2.17      0.00
   -7   11   11     -2.49      0.00
   -6   11   11      5.70      0.00
   13   11   11      1.82      0.00
   14   11   11     -3.04      0.00
   -6   12   11     -1.21      0.00
   -5   12   11      1.78      0.00
   13   12   11      0.86      0.00
   14   12   11     -0.03      0.00
   -5   13   11     -2.53      0.00
   -4   13   11      1.21      0.00
   -3   13   11      2.58      0.00
   12   13   11     -7.04      0.00
   13   13   11      2.34      0.00
   -3   14   11     -1.05      0.00
   -2   14   11      4.11      0.00
   11   14   11     -4.70      0.00
   12   14   11      3.83      0.00
   13   14   11     -1.11      0.00
   -2   15   11     -1.39      0.00
   -1   15   11     -0.62      0.00
    0   15   11     -0.78      0.00
   10   15   11      2.84      0.00
   11   15   11     -0.05      0.00
   12   15   11      0.37      0.00
    0   16   11     -2.88      0.00
    1   16   11      0.37      0.00
    2   16   11      0.83      0.00
    3   16   11     -1.98      0.00
    8   16   11      6.81      0.00
    9   16   11     -2.57      0.00
   10   16   11     -2.74      0.00
   11   16   11      0.48      0.00
    2   17   11      0.10      0.00
    3   17   11      0.71      0.00
    4   17   11     -0.76      0.00
    5   17   11     -1.37      0.00
    6   17   11     -0.43      0.00
    7   17   11      2.63      0.00
    8   17   11     -4.32      0.00
    9   17   11      2.00      0.00
   10   17   11      0.34      0.00
   -6  -16   12     -2.09      0.00
   -5  -16   12      0.45      0.00
   -9  -15   12      0.76      0.00
   -8  -15   12     -1.83      0.00
   -7  -15   12      2.22      0.00
   -6  -15   12      0.56      0.00
   -5  -15   12      1.02      0.00
   -4  -15   12      0.85      0.00
   -3  -15   12      3.97      0.00
   -2  -15   12     -3.14      0.00
   -1  -15   12      0.86      0.00
  -10  -14   12     -1.36      0.00
   -9  -14   12     -1.05      0.00
   -8  -14   12      4.45      0.00
   -7  -14   12     -4.64      0.00
   -2  -14   12      6.36      0.00
   -1  -14   12      0.49      0.00
    0  -14   12     -2.51      0.00
    1  -14   12     -0.10      0.00
  -11  -13   12     -4.61      0.00
  -10  -13   12      2.90      0.00
   -9  -13   12     -1.14      0.00
    1  -13   12      2.56      0.00
    2  -13   12     -7.62      0.00
    3  -13   12      4.07      0.00
  -12  -12   12     -1.70      0.00
  -11  -12   12      1.76      0.00
    3  -12   12     -8.80      0.00
    4  -12   12      2.24      0.00
  -13  -11   12      0.18      0.00
  -12  -11   12      0.03      0.00
  -11  -11   12     -4.41      0.00
    4  -11   12     -1.85      0.00
    5  -11   12     -0.99      0.00
  -13  -10   12      0.48      0.00
  -12  -10   12      0.51      0.00
    6  -10   12     -4.54      0.00
  -13   -9   12      1.30      0.00
  -12   -9   12     -3.82      0.00
    7   -9   12     -2.38      0.00
  -13   -8   12     -4.88      0.00
    8   -8   12      3.37      0.00
  -14   -7   12     -5.79      0.00
  -13   -7   12     10.81      0.00
    8   -7   12     -2.37      0.00
    9   -7   12      2.28      0.00
  -14   -6   12     -2.45      0.00
  -13   -6   12      1.93      0.00
    9   -6   12      1.08      0.00
   10   -6   12      0.57      0.00
  -14   -5   12     -0.88      0.00
  -13   -5   12      0.91      0.00
   10   -5   12      3.13      0.00
  -13   -4   12     -3.97      0.00
   10   -4   12     -4.47      0.00
   11   -4   12      3.68      0.00
  -13   -3   12     -0.02      0.00
   11   -3   12     -1.62      0.00
   12   -3   12      2.40      0.00
  -13   -2   12     -1.62      0.00
   12   -2   12     -2.84      0.00
  -13   -1   12      0.50      0.00
   12   -1   12     -2.83      0.00
  -13    0   12     -1.19      0.00
  -12    0   12      7.83      0.00
   12    0   12      1.27      0.00
   13    0   12     -2.96      0.00
  -12    1   12      0.24      0.00
   13    1   12      3.30      0.00
  -12    2   12     -1.81      0.00
   13    2   12     -4.32      0.00
   14    2   12      2.23      0.00
  -12    3   12      2.88      0.00
  -11    3   12     -2.30      0.00
   13    3   12      2.77      0.00
   14    3   12     -0.99      0.00
  -11    4   12      0.57      0.00
   14    4   12     -1.32      0.00
  -11    5   12     -1.14      0.00
  -10    5   12      1.63      0.00
   14    5   12     -0.35      0.00
  -10    6   12     -1.88      0.00
   14    6   12      1.14      0.00
   -9    7   12     -1.75      0.00
   14    7   12     -2.71      0.00
   -9    8   12      4.20      0.00
   -8    8   12     -3.02      0.00
   14    8   12      1.44      0.00
   -8    9   12     -1.02      0.00
   -7    9   12      4.25      0.00
   14    9   12     -0.66      0.00
   -7   10   12      4.96      0.00
   -6   10   12     -1.84      0.00
   13   10   12     -0.98      0.00
   14   10   12      0.93      0.00
   -6   11   12     -1.58      0.00
   -5   11   12      4.27      0.00
   13   11   12     -1.32      0.00
   14   11   12      1.48      0.00
   -5   12   12     -4.44      0.00
   -4   12   12      4.28      0.00
   13   12   12     -1.01      0.00
   14   12   12     -0.81      0.00
   -4   13   12     -1.02      0.00
   -3   13   12     -1.79      0.00
   12   13   12      0.17      0.00
   13   13   12      0.52      0.00
   -3   14   12      1.31      0.00
   -2   14   12     -4.33      0.00
   -1   14   12      5.17      0.00
   11   14   12      1.46      0.00
   12   14   12     -3.15      0.00
   13   14   12     -0.21      0.00
   -2   15   12      2.12      0.00
   -1   15   12     -2.52      0.00
    0   15   12      2.33      0.00
    1   15   12     -1.28      0.00
   10   15   12      1.76      0.00
   11   15   12     -0.90      0.00
   12   15   12      3.21      0.00
    0   16   12     -0.41      0.00
    1   16   12      1.94      0.00
    2   16   12     -0.06      0.00
    3   16   12      1.08      0.00
    4   16   12     -1.83      0.00
    5   16   12     -0.59      0.00
    6   16   12      1.89      0.00
    7   16   12      1.26      0.00
    8   16   12     -1.65      0.00
    9   16   12     -2.53      0.00
   10   16   12      2.35      0.00
   11   16   12     -1.43      0.00
    2   17   12      0.77      0.00
    3   17   12     -1.76      0.00
    4   17   12      3.28      0.00
    5   17   12     -0.83      0.00
    6   17   12      1.17      0.00
    7   17   12     -2.85      0.00
    8   17   12      4.96      0.00
    9   17   12     -0.04      0.00
   -8  -15   13      0.85      0.00
   -7  -15   13     -0.71      0.00
   -6  -15   13     -0.36      0.00
   -5  -15   13      0.45      0.00
   -4  -15   13      0.97      0.00
   -3  -15   13     -2.81      0.00
   -2  -15   13      2.70      0.00
  -10  -14   13      0.36      0.00
   -9  -14   13      1.03      0.00
   -8  -14   13     -3.13      0.00
   -7  -14   13      1.58      0.00
   -6  -14   13     -1.50      0.00
   -5  -14   13     -2.05      0.00
   -4  -14   13     -1.46      0.00
   -3  -14   13      4.67      0.00
   -2  -14   13     -9.08      0.00
   -1  -14   13      1.37      0.00
    0  -14   13      0.70      0.00
    1  -14   13      0.47      0.00
  -11  -13   13      0.59      0.00
  -10  -13   13     -0.10      0.00
   -9  -13   13     -1.02      0.00
    0  -13   13     -1.79      0.00
    1  -13   13     -3.56      0.00
    2  -13   13      5.79      0.00
  -12  -12   13      0.97      0.00
  -11  -12   13      0.90      0.00
  -10  -12   13     -1.42      0.00
    2  -12   13    -12.76      0.00
    3  -12   13      9.66      0.00
    4  -12   13     -1.62      0.00
  -12  -11   13      0.24      0.00
  -11  -11   13      0.63      0.00
    4  -11   13      6.97      0.00
    5  -11   13     -1.03      0.00
  -13  -10   13      1.15      0.00
  -12  -10   13     -0.37      0.00
  -11  -10   13     -1.24      0.00
    5  -10   13     -1.40      0.00
    6  -10   13      1.42      0.00
  -13   -9   13     -0.26      0.00
  -12   -9   13      3.17      0.00
    6   -9   13     -7.27      0.00
    7   -9   13      2.93      0.00
  -13   -8   13      0.94      0.00
  -12   -8   13     -3.78      0.00
    7   -8   13     -1.97      0.00
    8   -8   13     -0.71      0.00
  -13   -7   13     -9.83      0.00
  -12   -7   13     11.42      0.00
    8   -7   13      3.23      0.00
    9   -7   13     -2.67      0.00
  -13   -6   13      6.55      0.00
    9   -6   13      0.81      0.00
  -13   -5   13     -1.61      0.00
   10   -5   13     -0.34      0.00
  -13   -4   13      5.27      0.00
   10   -4   13      3.77      0.00
   11   -4   13     -2.07      0.00
  -13   -3   13      0.03      0.00
   11   -3   13      2.69      0.00
  -13   -2   13     -0.57      0.00
  -12   -2   13     -1.25      0.00
   11   -2   13     -3.82      0.00
   12   -2   13      1.98      0.00
  -13   -1   13      1.95      0.00
  -12   -1   13      0.80      0.00
   12   -1   13     -0.51      0.00
  -12    0   13     -7.00      0.00
   12    0   13     -1.44      0.00
   13    0   13      1.24      0.00
  -12    1   13      6.13      0.00
   13    1   13     -0.19      0.00
  -12    2   13     -1.48      0.00
  -11    2   13      3.77      0.00
   13    2   13      2.74      0.00
  -11    3   13      1.35      0.00
   13    3   13     -1.06      0.00
   14    3   13      1.51      0.00
  -11    4   13      0.91      0.00
  -10    4   13     -8.00      0.00
   13    4   13     -0.83      0.00
   14    4   13      0.67      0.00
  -10    5   13      3.49      0.00
   13    5   13      0.77      0.00
   14    5   13     -1.21      0.00
  -10    6   13      0.66      0.00
   -9    6   13      1.52      0.00
   13    6   13     -0.59      0.00
   14    6   13     -0.32      0.00
   -9    7   13     -1.88      0.00
   13    7   13     -2.37      0.00
   14    7   13      3.46      0.00
   -9    8   13     -3.63      0.00
   -8    8   13      1.03      0.00
   13    8   13      1.93      0.00
   14    8   13     -2.74      0.00
   -8    9   13      1.32      0.00
   -7    9   13     -5.17      0.00
   13    9   13     -0.99      0.00
   14    9   13      0.51      0.00
   -7   10   13     -0.66      0.00
   -6   10   13     -2.53      0.00
   13   10   13      1.37      0.00
   14   10   13     -0.51      0.00
   -6   11   13     -1.12      0.00
   -5   11   13     -0.33      0.00
   13   11   13     -0.92      0.00
   14   11   13      0.17      0.00
   -5   12   13      3.13      0.00
   -4   12   13     -4.02      0.00
   12   12   13     -5.24      0.00
   13   12   13      0.19      0.00
   -4   13   13      2.16      0.00
   -3   13   13     -0.52      0.00
   12   13   13      5.12      0.00
   13   13   13     -1.54      0.00
   -3   14   13     -0.45      0.00
   -2   14   13      3.05      0.00
   -1   14   13     -2.62      0.00
   11   14   13      0.58      0.00
   12   14   13     -2.23      0.00
   -1   15   13      1.87      0.00
    0   15   13     -0.52      0.00
    1   15   13     -1.71      0.00
    9   15   13      4.79      0.00
   10   15   13     -1.73      0.00
   11   15   13      2.45      0.00
    1   16   13     -1.28      0.00
    2   16   13     -0.84      0.00
    3   16   13      1.15      0.00
    4   16   13     -0.03      0.00
    5   16   13      2.41      0.00
    6   16   13     -6.95      0.00
    7   16   13      2.73      0.00
    8   16   13     -2.96      0.00
    9   16   13     -0.46      0.00
   10   16   13     -2.24      0.00
    3   17   13      0.69      0.00
    4   17   13     -3.51      0.00
    5   17   13      0.99      0.00
    6   17   13      1.77      0.00
    7   17   13     -0.28      0.00
    8   17   13     -0.92      0.00
   -7  -15   14      1.32      0.00
   -6  -15   14      1.04      0.00
   -5  -15   14     -0.40      0.00
   -4  -15   14      1.72      0.00
   -3  -15   14     -0.15      0.00
   -9  -14   14     -0.74      0.00
   -8  -14   14      1.29      0.00
   -7  -14   14     -0.91      0.00
   -6  -14   14     -1.12      0.00
   -5  -14   14      2.76      0.00
   -4  -14   14     -2.29      0.00
   -3  -14   14     -2.65      0.00
   -2  -14   14      4.69      0.00
   -1  -14   14     -0.64      0.00
    0  -14   14     -0.98      0.00
  -10  -13   14     -0.66      0.00
   -9  -13   14      1.22      0.00
   -8  -13   14     -3.19      0.00
   -7  -13   14      3.17      0.00
   -1  -13   14      4.13      0.00
    0  -13   14      3.43      0.00
    1  -13   14      0.72      0.00
    2  -13   14     -1.62      0.00
  -11  -12   14     -3.39      0.00
  -10  -12   14      3.02      0.00
   -9  -12   14     -4.71      0.00
    1  -12   14     -1.72      0.00
    2  -12   14      8.91      0.00
    3  -12   14     -4.82      0.00
  -12  -11   14     -1.53      0.00
  -11  -11   14      4.28      0.00
  -10  -11   14     -7.32      0.00
    3  -11   14     15.68      0.00
    4  -11   14     -5.27      0.00
    5  -11   14      0.32      0.00
  -12  -10   14      0.08      0.00
  -11  -10   14     -4.12      0.00
    5  -10   14     -2.25      0.00
    6  -10   14      1.05      0.00
  -12   -9   14     -3.71      0.00
  -11   -9   14      3.99      0.00
    6   -9   14      4.22      0.00
    7   -9   14     -1.52      0.00
  -13   -8   14      2.43      0.00
  -12   -8   14      3.11      0.00
    7   -8   14      4.68      0.00
    8   -8   14     -0.30      0.00
  -13   -7   14      2.12      0.00
  -12   -7   14     -7.96      0.00
    8   -7   14     -0.44      0.00
  -13   -6   14     -4.93      0.00
  -12   -6   14     11.45      0.00
    8   -6   14      0.78      0.00
    9   -6   14     -1.11      0.00
  -13   -5   14      2.32      0.00
  -12   -5   14     -7.65      0.00
    9   -5   14      2.04      0.00
   10   -5   14     -0.29      0.00
  -13   -4   14     -3.46      0.00
  -12   -4   14      6.32      0.00
   10   -4   14     -1.68      0.00
  -13   -3   14      3.14      0.00
  -12   -3   14     -8.31      0.00
   10   -3   14      3.14      0.00
   11   -3   14     -1.87      0.00
  -13   -2   14     -0.76      0.00
  -12   -2   14      1.25      0.00
   11   -2   14      2.02      0.00
  -12   -1   14      1.23      0.00
   11   -1   14     -0.33      0.00
   12   -1   14      2.20      0.00
  -12    0   14      1.19      0.00
   12    0   14      1.94      0.00
  -12    1   14     -4.19      0.00
  -11    1   14      9.08      0.00
   12    1   14      3.21      0.00
   13    1   14     -0.74      0.00
  -11    2   14    -11.18      0.00
   12    2   14     -1.31      0.00
   13    2   14      0.00      0.00
  -11    3   14      1.39      0.00
   13    3   14     -0.55      0.00
  -11    4   14     -1.79      0.00
  -10    4   14      6.43      0.00
   13    4   14      2.74      0.00
  -10    5   14     -6.14      0.00
   13    5   14     -3.81      0.00
   14    5   14      1.80      0.00
  -10    6   14      2.23      0.00
   -9    6   14     -6.30      0.00
   13    6   14      4.40      0.00
   14    6   14     -3.14      0.00
   -9    7   14      4.63      0.00
   -8    7   14     -6.10      0.00
   13    7   14     -0.12      0.00
   14    7   14     -1.55      0.00
   -8    8   14      2.59      0.00
   13    8   14      0.15      0.00
   14    8   14      2.08      0.00
   -7    9   14      5.59      0.00
   13    9   14     -0.03      0.00
   14    9   14     -0.98      0.00
   -7   10   14     -2.61      0.00
   -6   10   14      4.63      0.00
   13   10   14      1.96      0.00
   14   10   14     -0.66      0.00
   -6   11   14      0.06      0.00
   -5   11   14      1.43      0.00
   12   11   14      1.56      0.00
   13   11   14      0.74      0.00
   -5   12   14     -0.83      0.00
   -4   12   14      0.92      0.00
   12   12   14     -0.72      0.00
   13   12   14      1.48      0.00
   -4   13   14     -2.31      0.00
   -3   13   14      1.46      0.00
   -2   13   14      2.02      0.00
   11   13   14      4.21      0.00
   12   13   14     -3.41      0.00
   -2   14   14     -1.93      0.00
   -1   14   14      3.21      0.00
    0   14   14     -1.08      0.00
   10   14   14     -0.31      0.00
   11   14   14     -3.36      0.00
   12   14   14      2.27      0.00
   -1   15   14     -1.42      0.00
    0   15   14     -1.49      0.00
    1   15   14      2.46      0.00
    2   15   14     -0.89      0.00
    8   15   14      4.54      0.00
    9   15   14     -1.32      0.00
   10   15   14      2.91      0.00
   11   15   14      1.61      0.00
    1   16   14      0.19      0.00
    2   16   14      0.73      0.00
    3   16   14     -1.03      0.00
    4   16   14      0.45      0.00
    5   16   14     -1.64      0.00
    6   16   14      2.56      0.00
    7   16   14     -2.61      0.00
    8   16   14     -0.93      0.00
    9   16   14      0.92      0.00
   10   16   14     -1.69      0.00
    4   17   14      1.69      0.00
    5   17   14     -0.14      0.00
    6   17   14     -2.72      0.00
    7   17   14      3.34      0.00
   -8  -14   15     -0.91      0.00
   -7  -14   15      0.18      0.00
   -6  -14   15     -0.64      0.00
   -5  -14   15     -3.56      0.00
   -4  -14   15      2.00      0.00
   -3  -14   15     -2.08      0.00
   -2  -14   15     -0.26      0.00
   -1  -14   15     -0.70      0.00
   -9  -13   15     -0.29      0.00
   -8  -13   15      2.18      0.00
   -7  -13   15     -1.25      0.00
   -6  -13   15      0.71      0.00
   -5  -13   15      3.29      0.00
   -4  -13   15     -4.00      0.00
   -3  -13   15     -0.47      0.00
   -2  -13   15      5.81      0.00
   -1  -13   15     -1.23      0.00
    0  -13   15     -4.10      0.00
    1  -13   15      2.45      0.00
  -10  -12   15     -0.96      0.00
   -9  -12   15      1.36      0.00
   -8  -12   15     -4.09      0.00
    0  -12   15      5.11      0.00
    1  -12   15     -3.87      0.00
    2  -12   15     -1.60      0.00
    3  -12   15     -0.11      0.00
  -11  -11   15     -3.16      0.00
  -10  -11   15      6.21      0.00
   -9  -11   15     -2.25      0.00
    2  -11   15      7.24      0.00
    3  -11   15     -7.02      0.00
    4  -11   15     -0.02      0.00
  -12  -10   15      0.04      0.00
  -11  -10   15      5.30      0.00
  -10  -10   15    -10.46      0.00
    4  -10   15     -8.29      0.00
    5  -10   15      1.22      0.00
  -12   -9   15      1.88      0.00
  -11   -9   15     -4.95      0.00
    5   -9   15      0.54      0.00
    6   -9   15     -1.12      0.00
  -12   -8   15     -0.53      0.00
  -11   -8   15      5.05      0.00
    6   -8   15      7.78      0.00
    7   -8   15     -2.90      0.00
  -12   -7   15      3.10      0.00
    7   -7   15      3.95      0.00
    8   -7   15     -2.08      0.00
  -13   -6   15      1.50      0.00
  -12   -6   15     -4.91      0.00
    8   -6   15      1.89      0.00
    9   -6   15     -0.07      0.00
  -13   -5   15     -2.89      0.00
  -12   -5   15      6.70      0.00
    9   -5   15      0.50      0.00
  -13   -4   15      0.92      0.00
  -12   -4   15     -3.64      0.00
    9   -4   15     -0.17      0.00
   10   -4   15     -1.37      0.00
  -12   -3   15      8.37      0.00
   10   -3   15     -0.23      0.00
   11   -3   15      0.88      0.00
  -12   -2   15     -5.99      0.00
   11   -2   15     -2.19      0.00
  -12   -1   15      1.18      0.00
  -11   -1   15     -1.06      0.00
   11   -1   15      2.06      0.00
   12   -1   15     -1.04      0.00
  -12    0   15     -2.23      0.00
  -11    0   15      2.61      0.00
   11    0   15      2.04      0.00
   12    0   15     -1.69      0.00
  -11    1   15     -0.58      0.00
   12    1   15     -0.41      0.00
  -11    2   15      8.84      0.00
   12    2   15      2.27      0.00
   13    2   15     -0.70      0.00
  -11    3   15     -2.51      0.00
  -10    3   15      5.25      0.00
   12    3   15     -1.57      0.00
   13    3   15      0.81      0.00
  -10    4   15     -3.89      0.00
   13    4   15     -2.95      0.00
  -10    5   15      4.67      0.00
   -9    5   15     -6.16      0.00
   13    5   15      3.82      0.00
   -9    6   15      5.58      0.00
   13    6   15     -6.97      0.00
   -9    7   15     -4.99      0.00
   -8    7   15      5.34      0.00
   13    7   15      2.87      0.00
   -8    8   15     -3.64      0.00
   -7    8   15      1.36      0.00
   13    8   15     -1.85      0.00
   -7    9   15     -4.73      0.00
   -6    9   15      3.01      0.00
   13    9   15     -0.10      0.00
   -6   10   15     -4.38      0.00
   -5   10   15      3.13      0.00
   12   10   15      2.36      0.00
   13   10   15     -2.45      0.00
   -5   11   15     -2.88      0.00
   -4   11   15      2.95      0.00
   12   11   15     -1.16      0.00
   13   11   15     -0.52      0.00
   -4   12   15     -0.47      0.00
   -3   12   15      0.49      0.00
   11   12   15     -3.09      0.00
   12   12   15      3.60      0.00
   13   12   15     -1.41      0.00
   -3   13   15     -0.50      0.00
   -2   13   15     -1.93      0.00
   10   13   15      5.37      0.00
   11   13   15     -0.50      0.00
   12   13   15      0.31      0.00
   -2   14   15      1.46      0.00
   -1   14   15     -4.17      0.00
    0   14   15      5.10      0.00
    9   14   15      0.13      0.00
   10   14   15     -2.95      0.00
   11   14   15      0.75      0.00
    0   15   15      0.39      0.00
    1   15   15     -1.52      0.00
    2   15   15     -1.11      0.00
    3   15   15      3.65      0.00
    4   15   15     -2.69      0.00
    5   15   15      5.11      0.00
    6   15   15     -4.94      0.00
    7   15   15      4.41      0.00
    8   15   15      0.91      0.00
    9   15   15      0.35      0.00
   10   15   15      2.27      0.00
    2   16   15      0.45      0.00
    3   16   15     -0.58      0.00
    4   16   15      0.78      0.00
    5   16   15     -1.87      0.00
    6   16   15      1.51      0.00
    7   16   15     -2.72      0.00
    8   16   15     -0.28      0.00
    9   16   15     -2.66      0.00
   -6  -14   16     -0.10      0.00
   -5  -14   16      0.45      0.00
   -4  -14   16     -1.43      0.00
   -3  -14   16      1.47      0.00
   -9  -13   16      1.14      0.00
   -8  -13   16     -0.42      0.00
   -7  -13   16      1.22      0.00
   -6  -13   16      0.51      0.00
   -5  -13   16     -1.21      0.00
   -4  -13   16      4.38      0.00
   -3  -13   16      0.68      0.00
   -2  -13   16     -1.03      0.00
   -1  -13   16      0.42      0.00
    0  -13   16      2.42      0.00
  -10  -12   16     -2.58      0.00
   -9  -12   16      0.41      0.00
   -8  -12   16     -0.03      0.00
   -7  -12   16     -1.97      0.00
   -6  -12   16      1.29      0.00
   -1  -12   16     -3.28      0.00
    0  -12   16     -4.25      0.00
    1  -12   16      4.61      0.00
    2  -12   16     -1.76      0.00
  -10  -11   16      0.96      0.00
   -9  -11   16     -1.46      0.00
   -8  -11   16     -2.04      0.00
    1  -11   16     -8.10      0.00
    2  -11   16      2.87      0.00
    3  -11   16     -1.20      0.00
  -11  -10   16     -3.27      0.00
  -10  -10   16      2.85      0.00
    3  -10   16     -8.26      0.00
    4  -10   16      2.08      0.00
    5  -10   16      1.15      0.00
  -11   -9   16      3.36      0.00
  -10   -9   16     -9.91      0.00
    4   -9   16     -6.65      0.00
    5   -9   16      0.37      0.00
    6   -9   16     -0.22      0.00
  -12   -8   16     -1.60      0.00
  -11   -8   16     -2.33      0.00
    6   -8   16     -4.37      0.00
    7   -8   16      0.49      0.00
  -12   -7   16     -0.16      0.00
  -11   -7   16      2.48      0.00
    7   -7   16     -3.85      0.00
    8   -7   16      0.69      0.00
  -12   -6   16      1.50      0.00
  -11   -6   16     -4.78      0.00
    8   -6   16     -2.96      0.00
  -12   -5   16     -3.47      0.00
  -11   -5   16      5.54      0.00
    8   -5   16      4.69      0.00
    9   -5   16     -2.88      0.00
  -12   -4   16      2.29      0.00
  -11   -4   16     -4.01      0.00
    9   -4   16      2.10      0.00
   10   -4   16      0.20      0.00
  -12   -3   16     -2.91      0.00
  -11   -3   16      0.20      0.00
   10   -3   16     -1.29      0.00
  -12   -2   16      5.76      0.00
  -11   -2   16     -6.70      0.00
   10   -2   16      1.39      0.00
   11   -2   16      0.71      0.00
  -12   -1   16     -0.23      0.00
  -11   -1   16      3.88      0.00
   11   -1   16     -0.70      0.00
  -11    0   16     -4.98      0.00
   11    0   16     -0.41      0.00
   12    0   16      0.30      0.00
  -11    1   16      0.62      0.00
   11    1   16      0.64      0.00
   12    1   16     -0.87      0.00
  -11    2   16     -4.57      0.00
  -10    2   16     -0.10      0.00
   12    2   16     -0.82      0.00
  -10    3   16     -3.91      0.00
   12    3   16      1.11      0.00
   13    3   16     -0.47      0.00
  -10    4   16      1.22      0.00
   -9    4   16     -2.20      0.00
   12    4   16     -2.17      0.00
   13    4   16      1.48      0.00
   -9    5   16      2.66      0.00
   12    5   16      0.52      0.00
   13    5   16     -1.96      0.00
   -9    6   16     -2.01      0.00
   -8    6   16     -0.78      0.00
   12    6   16     -3.84      0.00
   13    6   16      4.44      0.00
   -8    7   16     -1.57      0.00
   -7    7   16     -1.54      0.00
   12    7   16      4.42      0.00
   13    7   16     -3.82      0.00
   -8    8   16      1.04      0.00
   -7    8   16      1.64      0.00
   12    8   16     -3.39      0.00
   13    8   16      2.15      0.00
   -7    9   16      2.90      0.00
   -6    9   16      1.10      0.00
   12    9   16      1.05      0.00
   13    9   16     -0.68      0.00
   -6   10   16      1.84      0.00
   -5   10   16     -2.06      0.00
   12   10   16     -0.13      0.00
   13   10   16      1.97      0.00
   -5   11   16      2.59      0.00
   -4   11   16     -3.01      0.00
   11   11   16      2.43      0.00
   12   11   16     -1.32      0.00
   13   11   16     -0.27      0.00
   -4   12   16      2.30      0.00
   -3   12   16     -3.55      0.00
   -2   12   16      3.45      0.00
   11   12   16      0.99      0.00
   12   12   16     -1.44      0.00
   -3   13   16     -0.14      0.00
   -2   13   16      0.16      0.00
   -1   13   16     -3.69      0.00
   10   13   16     -2.61      0.00
   11   13   16     -0.80      0.00
   12   13   16      1.52      0.00
   -1   14   16      3.82      0.00
    0   14   16     -5.23      0.00
    1   14   16      1.02      0.00
    2   14   16      3.58      0.00
    8   14   16     -5.48      0.00
    9   14   16     -3.10      0.00
   10   14   16      1.76      0.00
   11   14   16     -0.89      0.00
    0   15   16      1.15      0.00
    1   15   16     -0.50      0.00
    2   15   16     -0.39      0.00
    3   15   16     -1.26      0.00
    4   15   16     -0.40      0.00
    5   15   16      0.33      0.00
    6   15   16      4.12      0.00
    7   15   16     -1.78      0.00
    8   15   16      1.73      0.00
    9   15   16      3.60      0.00
   10   15   16     -1.67      0.00
    3   16   16      1.40      0.00
    4   16   16     -1.12      0.00
    5   16   16      1.04      0.00
    6   16   16     -4.05      0.00
    7   16   16      2.09      0.00
    8   16   16     -1.33      0.00
   -7  -13   17      0.80      0.00
   -6  -13   17      0.70      0.00
   -5  -13   17      1.48      0.00
   -4  -13   17      0.77      0.00
   -3  -13   17     -0.23      0.00
   -2  -13   17     -0.53      0.00
   -1  -13   17      0.98      0.00
   -9  -12   17     -0.95      0.00
   -8  -12   17      0.12      0.00
   -7  -12   17     -1.64      0.00
   -6  -12   17     -2.03      0.00
   -5  -12   17      0.15      0.00
   -4  -12   17      0.70      0.00
   -3  -12   17      0.12      0.00
   -2  -12   17     -5.99      0.00
   -1  -12   17      2.73      0.00
    0  -12   17     -0.56      0.00
    1  -12   17     -0.86      0.00
  -10  -11   17     -2.83      0.00
   -9  -11   17      5.43      0.00
   -8  -11   17     -1.00      0.00
   -7  -11   17      1.42      0.00
    0  -11   17     -4.15      0.00
    1  -11   17      7.87      0.00
    2  -11   17     -5.53      0.00
    3  -11   17      2.27      0.00
  -10  -10   17      1.81      0.00
   -9  -10   17     -3.84      0.00
    2  -10   17      3.83      0.00
    3  -10   17     -1.04      0.00
    4  -10   17      1.56      0.00
  -11   -9   17      0.48      0.00
  -10   -9   17      2.09      0.00
   -9   -9   17      6.62      0.00
    4   -9   17      4.31      0.00
    5   -9   17     -0.37      0.00
  -11   -8   17      0.17      0.00
  -10   -8   17     -5.34      0.00
    5   -8   17     -3.77      0.00
    6   -8   17      1.26      0.00
  -11   -7   17      2.27      0.00
  -10   -7   17      4.22      0.00
    6   -7   17     -4.97      0.00
    7   -7   17      0.42      0.00
  -12   -6   17      1.28      0.00
  -11   -6   17      1.18      0.00
    7   -6   17     -2.82      0.00
    8   -6   17      0.70      0.00
  -12   -5   17     -0.70      0.00
  -11   -5   17     -2.05      0.00
    8   -5   17     -2.99      0.00
    9   -5   17      2.32      0.00
  -12   -4   17     -0.84      0.00
  -11   -4   17      3.78      0.00
    9   -4   17     -6.20      0.00
  -12   -3   17     -0.27      0.00
  -11   -3   17      1.87      0.00
    9   -3   17     -1.36      0.00
   10   -3   17      1.25      0.00
  -11   -2   17      0.82      0.00
   10   -2   17     -3.42      0.00
  -11   -1   17     -2.34      0.00
   10   -1   17      3.63      0.00
   11   -1   17     -0.16      0.00
  -11    0   17      1.80      0.00
  -10    0   17     -3.72      0.00
   11    0   17     -0.22      0.00
  -11    1   17      0.26      0.00
  -10    1   17      4.17      0.00
   11    1   17     -0.73      0.00
   12    1   17     -0.47      0.00
  -10    2   17      0.20      0.00
   11    2   17     -2.02      0.00
   12    2   17     -1.18      0.00
  -10    3   17      2.92      0.00
   -9    3   17      0.96      0.00
   12    3   17     -1.22      0.00
  -10    4   17     -2.49      0.00
   -9    4   17      1.74      0.00
   12    4   17      1.36      0.00
   -9    5   17     -0.90      0.00
   -8    5   17      2.49      0.00
   12    5   17      0.12      0.00
   13    5   17      1.44      0.00
   -8    6   17      0.15      0.00
   12    6   17     -0.87      0.00
   13    6   17     -1.27      0.00
   -8    7   17     -0.33      0.00
   -7    7   17      3.34      0.00
   12    7   17     -1.39      0.00
   13    7   17      2.53      0.00
   -7    8   17     -3.58      0.00
   -6    8   17      0.54      0.00
   12    8   17      1.25      0.00
   13    8   17     -1.14      0.00
   -6    9   17     -2.59      0.00
   -5    9   17     -0.20      0.00
   12    9   17     -1.61      0.00
   13    9   17      0.33      0.00
   -6   10   17     -0.96      0.00
   -5   10   17      0.66      0.00
   -4   10   17     -6.23      0.00
   11   10   17      0.47      0.00
   12   10   17      0.52      0.00
   -5   11   17      0.31      0.00
   -4   11   17      1.81      0.00
   -3   11   17     -3.12      0.00
   11   11   17     -3.03      0.00
   12   11   17      1.31      0.00
   -3   12   17      4.45      0.00
   -2   12   17     -2.40      0.00
   10   12   17     -0.18      0.00
   11   12   17      2.35      0.00
   12   12   17     -1.05      0.00
   -2   13   17      1.31      0.00
   -1   13   17      1.11      0.00
    0   13   17     -5.95      0.00
    9   13   17      2.29      0.00
   10   13   17      0.51      0.00
   11   13   17      1.38      0.00
   -1   14   17     -1.51      0.00
    0   14   17      4.65      0.00
    1   14   17     -1.03      0.00
    2   14   17     -1.74      0.00
    3   14   17      3.75      0.00
    4   14   17     -1.98      0.00
    5   14   17     -0.43      0.00
    6   14   17      1.95      0.00
    7   14   17     -6.79      0.00
    8   14   17      2.86      0.00
    9   14   17     -0.23      0.00
   10   14   17     -2.46      0.00
    1   15   17      0.75      0.00
    2   15   17      2.36      0.00
    3   15   17     -2.84      0.00
    4   15   17      4.14      0.00
    5   15   17     -1.96      0.00
    6   15   17     -0.07      0.00
    7   15   17      4.78      0.00
    8   15   17     -1.27      0.00
    9   15   17      0.21      0.00
    5   16   17      0.47      0.00
    6   16   17      1.47      0.00
   -5  -13   18      0.21      0.00
   -4  -13   18     -0.77      0.00
   -3  -13   18      1.26      0.00
   -8  -12   18     -1.55      0.00
   -7  -12   18      1.45      0.00
   -6  -12   18     -1.60      0.00
   -5  -12   18     -0.91      0.00
   -4  -12   18     -1.25      0.00
   -3  -12   18     -3.07      0.00
   -2  -12   18      1.62      0.00
   -1  -12   18     -1.04      0.00
    0  -12   18      1.95      0.00
   -9  -11   18     -2.56      0.00
   -8  -11   18      2.71      0.00
   -7  -11   18     -1.36      0.00
   -6  -11   18     -1.31      0.00
   -5  -11   18      5.68      0.00
   -4  -11   18     -0.42      0.00
   -3  -11   18      1.71      0.00
   -2  -11   18     -6.38      0.00
   -1  -11   18      6.89      0.00
    0  -11   18     -0.19      0.00
    1  -11   18     -1.53      0.00
    2  -11   18      2.14      0.00
  -10  -10   18     -3.34      0.00
   -9  -10   18      2.84      0.00
   -8  -10   18     -3.80      0.00
   -7  -10   18      0.57      0.00
    1  -10   18     10.94      0.00
    2  -10   18     -7.93      0.00
    3  -10   18      4.58      0.00
  -10   -9   18      3.30      0.00
   -9   -9   18     -7.81      0.00
    3   -9   18      3.92      0.00
    4   -9   18     -1.65      0.00
    5   -9   18      0.52      0.00
  -11   -8   18     -0.17      0.00
  -10   -8   18     -1.01      0.00
   -9   -8   18      5.12      0.00
    4   -8   18      0.33      0.00
    5   -8   18      1.61      0.00
    6   -8   18      0.61      0.00
  -11   -7   18     -2.62      0.00
  -10   -7   18     -2.35      0.00
    5   -7   18     -2.70      0.00
    6   -7   18      1.01      0.00
    7   -7   18      1.07      0.00
  -11   -6   18      2.18      0.00
  -10   -6   18      0.46      0.00
    6   -6   18     -4.76      0.00
    7   -6   18      0.51      0.00
  -11   -5   18     -0.86      0.00
  -10   -5   18     -2.05      0.00
    7   -5   18      1.63      0.00
    8   -5   18     -0.59      0.00
  -11   -4   18     -1.53      0.00
  -10   -4   18      2.19      0.00
    8   -4   18     -3.67      0.00
    9   -4   18      4.44      0.00
  -11   -3   18     -0.93      0.00
  -10   -3   18      2.56      0.00
    9   -3   18     -1.43      0.00
  -11   -2   18      1.35      0.00
  -10   -2   18     -3.97      0.00
    9   -2   18     -4.20      0.00
   10   -2   18      1.41      0.00
  -11   -1   18      1.97      0.00
  -10   -1   18      5.07      0.00
   10   -1   18     -3.61      0.00
  -11    0   18     -3.14      0.00
  -10    0   18     -0.34      0.00
   10    0   18      4.39      0.00
   11    0   18     -1.79      0.00
  -10    1   18     -0.58      0.00
   11    1   18      0.46      0.00
  -10    2   18     -1.82      0.00
   -9    2   18     -2.54      0.00
   11    2   18     -0.30      0.00
   12    2   18      1.13      0.00
  -10    3   18      1.40      0.00
   -9    3   18      0.32      0.00
   -5    3   18     -0.08      0.00
   11    3   18     -2.04      0.00
   12    3   18      0.60      0.00
   -9    4   18     -3.12      0.00
   -8    4   18      2.31      0.00
   11    4   18      1.22      0.00
   12    4   18     -1.27      0.00
   -9    5   18      2.59      0.00
   -8    5   18     -2.52      0.00
   11    5   18     -0.64      0.00
   12    5   18      1.47      0.00
   -8    6   18      1.31      0.00
   -7    6   18     -3.57      0.00
   11    6   18     -2.61      0.00
   12    6   18      1.29      0.00
   -7    7   18     -1.01      0.00
   -6    7   18     -0.52      0.00
   11    7   18      1.25      0.00
   12    7   18     -1.19      0.00
   -7    8   18      1.87      0.00
   -6    8   18     -0.73      0.00
   11    8   18     -2.20      0.00
   12    8   18      0.99      0.00
   -6    9   18      3.22      0.00
   -5    9   18      0.30      0.00
   11    9   18      0.59      0.00
   12    9   18     -0.02      0.00
   -5   10   18     -1.15      0.00
   -4   10   18      4.23      0.00
   11   10   18      1.44      0.00
   12   10   18     -0.19      0.00
   -4   11   18     -1.10      0.00
   -3   11   18      2.95      0.00
   -2   11   18      0.52      0.00
   10   11   18      1.87      0.00
   11   11   18     -0.02      0.00
   12   11   18     -0.69      0.00
   -3   12   18     -2.54      0.00
   -2   12   18      0.66      0.00
   -1   12   18      3.70      0.00
    9   12   18      1.26      0.00
   10   12   18      0.06      0.00
   11   12   18     -2.66      0.00
   -2   13   18     -2.24      0.00
   -1   13   18     -0.89      0.00
    0   13   18      3.49      0.00
    1   13   18     -6.43      0.00
    7   13   18      1.74      0.00
    8   13   18      2.71      0.00
    9   13   18     -3.30      0.00
   10   13   18      1.82      0.00
    0   14   18     -2.83      0.00
    1   14   18      3.90      0.00
    2   14   18     -2.22      0.00
    3   14   18      0.82      0.00
    4   14   18     -2.74      0.00
    5   14   18      0.92      0.00
    6   14   18     -1.12      0.00
    7   14   18     -1.11      0.00
    8   14   18     -2.84      0.00
    9   14   18     -0.13      0.00
   10   14   18     -0.95      0.00
    2   15   18     -2.72      0.00
    3   15   18      2.64      0.00
    4   15   18     -2.40      0.00
    5   15   18      1.18      0.00
    6   15   18      1.18      0.00
    7   15   18     -1.38      0.00
    8   15   18      3.21      0.00
   -6  -12   19     -0.01      0.00
   -5  -12   19     -0.59      0.00
   -4  -12   19     -1.29      0.00
   -3  -12   19      1.74      0.00
   -2  -12   19      0.20      0.00
   -1  -12   19     -1.94      0.00
   -8  -11   19      0.77      0.00
   -7  -11   19      1.93      0.00
   -6  -11   19      1.96      0.00
   -5  -11   19     -0.41      0.00
   -4  -11   19     -0.79      0.00
   -3  -11   19      1.84      0.00
   -2  -11   19      3.91      0.00
   -1  -11   19     -2.13      0.00
    0  -11   19      2.30      0.00
    1  -11   19     -2.38      0.00
   -9  -10   19     -2.61      0.00
   -8  -10   19      1.27      0.00
   -7  -10   19     -2.78      0.00
   -6  -10   19     -1.65      0.00
   -5  -10   19      6.52      0.00
   -1  -10   19      5.75      0.00
    0  -10   19      1.15      0.00
    1  -10   19     -5.92      0.00
    2  -10   19      5.47      0.00
    3  -10   19     -3.36      0.00
  -10   -9   19     -0.63      0.00
   -9   -9   19      4.98      0.00
   -8   -9   19     -2.31      0.00
   -7   -9   19      2.65      0.00
    2   -9   19     -4.21      0.00
    3   -9   19      0.31      0.00
    4   -9   19      0.29      0.00
  -10   -8   19      2.15      0.00
   -9   -8   19     -7.65      0.00
   -8   -8   19     11.23      0.00
    3   -8   19      0.35      0.00
    4   -8   19      0.84      0.00
    5   -8   19     -0.65      0.00
  -10   -7   19      0.94      0.00
   -9   -7   19      5.42      0.00
    5   -7   19     -0.61      0.00
    6   -7   19      0.89      0.00
  -11   -6   19     -1.81      0.00
  -10   -6   19     -0.14      0.00
   -9   -6   19      1.85      0.00
    6   -6   19      3.15      0.00
    7   -6   19      0.27      0.00
  -11   -5   19      1.21      0.00
  -10   -5   19      1.89      0.00
    7   -5   19     -0.75      0.00
    8   -5   19      2.02      0.00
  -11   -4   19      1.05      0.00
  -10   -4   19     -4.56      0.00
    7   -4   19     -0.98      0.00
    8   -4   19     -0.08      0.00
  -11   -3   19      1.65      0.00
  -10   -3   19     -1.58      0.00
    8   -3   19     -0.14      0.00
    9   -3   19      3.14      0.00
  -11   -2   19     -2.03      0.00
  -10   -2   19     -0.58      0.00
    9   -2   19     -0.01      0.00
   10   -2   19      0.04      0.00
  -10   -1   19     -4.15      0.00
    9   -1   19     -6.25      0.00
   10   -1   19      1.93      0.00
  -10    0   19     -0.78      0.00
   -9    0   19      1.41      0.00
   10    0   19     -5.71      0.00
  -10    1   19      1.84      0.00
   -9    1   19      0.60      0.00
   10    1   19      3.96      0.00
   11    1   19     -0.55      0.00
  -10    2   19     -0.39      0.00
   -9    2   19     -1.10      0.00
   10    2   19     -2.56      0.00
   11    2   19      0.33      0.00
   -9    3   19      1.86      0.00
   -8    3   19      3.17      0.00
   11    3   19      0.45      0.00
   -9    4   19      0.20      0.00
   -8    4   19     -3.25      0.00
   11    4   19     -0.97      0.00
   12    4   19      0.40      0.00
   -8    5   19      3.78      0.00
   -7    5   19     -1.67      0.00
   11    5   19      1.57      0.00
   12    5   19     -1.24      0.00
   -8    6   19     -3.26      0.00
   -7    6   19      2.35      0.00
   11    6   19      0.42      0.00
   12    6   19      0.15      0.00
   -7    7   19     -0.23      0.00
   -6    7   19      0.95      0.00
   11    7   19     -0.62      0.00
   12    7   19      1.89      0.00
   -6    8   19     -0.11      0.00
   -5    8   19      1.16      0.00
   11    8   19      1.63      0.00
   12    8   19     -2.33      0.00
   -5    9   19      0.62      0.00
   -4    9   19      0.44      0.00
   10    9   19      1.43      0.00
   11    9   19     -1.93      0.00
   12    9   19      0.91      0.00
   -4   10   19     -0.56      0.00
   -3   10   19     -1.47      0.00
   10   10   19      1.56      0.00
   11   10   19     -0.07      0.00
   -3   11   19     -2.35      0.00
   -2   11   19     -0.59      0.00
    9   11   19      3.37      0.00
   10   11   19     -3.82      0.00
   11   11   19      1.41      0.00
   -2   12   19      1.34      0.00
   -1   12   19     -2.20      0.00
    0   12   19      3.34      0.00
    8   12   19     -1.41      0.00
    9   12   19     -0.61      0.00
   10   12   19      0.96      0.00
   11   12   19      0.89      0.00
   -1   13   19      0.08      0.00
    0   13   19     -1.90      0.00
    1   13   19      1.18      0.00
    2   13   19      0.81      0.00
    3   13   19     -1.82      0.00
    4   13   19      0.63      0.00
    5   13   19      2.17      0.00
    6   13   19      1.56      0.00
    7   13   19      0.34      0.00
    8   13   19      0.17      0.00
    9   13   19      3.05      0.00
   10   13   19     -0.76      0.00
    1   14   19     -2.88      0.00
    2   14   19      3.83      0.00
    3   14   19     -1.19      0.00
    4   14   19      2.38      0.00
    5   14   19     -1.18      0.00
    6   14   19     -2.92      0.00
    7   14   19      2.24      0.00
    8   14   19     -0.29      0.00
    9   14   19     -2.02      0.00
    4   15   19     -0.64      0.00
    5   15   19      2.06      0.00
    6   15   19      0.84      0.00
   -7  -11   20     -0.05      0.00
   -6  -11   20      0.64      0.00
   -5  -11   20     -0.42      0.00
   -4  -11   20      3.02      0.00
   -3  -11   20     -0.67      0.00
   -2  -11   20     -0.66      0.00
   -1  -11   20     -0.07      0.00
    0  -11   20     -1.20      0.00
   -8  -10   20      0.35      0.00
   -7  -10   20     -1.24      0.00
   -6  -10   20      1.68      0.00
   -5  -10   20     -6.02      0.00
   -4  -10   20     -0.63      0.00
   -3  -10   20      1.06      0.00
   -2  -10   20      1.66      0.00
   -1  -10   20     -3.71      0.00
    0  -10   20     -0.15      0.00
    1  -10   20      0.97      0.00
    2  -10   20     -1.88      0.00
   -9   -9   20     -1.00      0.00
   -8   -9   20      0.82      0.00
   -7   -9   20     -0.97      0.00
   -6   -9   20     -0.10      0.00
    0   -9   20      0.13      0.00
    1   -9   20     -3.87      0.00
    2   -9   20      2.43      0.00
    3   -9   20     -1.06      0.00
   -9   -8   20      1.87      0.00
   -8   -8   20     -3.42      0.00
   -7   -8   20     -0.47      0.00
    2   -8   20     -5.14      0.00
    3   -8   20      2.36      0.00
    4   -8   20     -1.58      0.00
  -10   -7   20      0.29      0.00
   -9   -7   20     -5.79      0.00
   -8   -7   20     11.35      0.00
    4   -7   20     -4.31      0.00
    5   -7   20      1.26      0.00
  -10   -6   20     -0.34      0.00
   -9   -6   20      2.51      0.00
   -8   -6   20    -10.43      0.00
    5   -6   20      0.14      0.00
    6   -6   20     -1.05      0.00
  -10   -5   20     -0.28      0.00
   -9   -5   20      2.62      0.00
    6   -5   20      0.27      0.00
    7   -5   20     -0.53      0.00
  -10   -4   20      6.54      0.00
   -9   -4   20    -11.46      0.00
    7   -4   20      0.63      0.00
    8   -4   20      0.18      0.00
  -10   -3   20      0.31      0.00
   -9   -3   20      0.88      0.00
    7   -3   20     -0.86      0.00
    8   -3   20      1.66      0.00
  -10   -2   20      1.39      0.00
   -9   -2   20     -1.21      0.00
    8   -2   20     -0.09      0.00
    9   -2   20      0.76      0.00
  -10   -1   20      3.62      0.00
   -9   -1   20     -2.15      0.00
    9   -1   20      2.87      0.00
   10   -1   20      0.98      0.00
  -10    0   20     -1.98      0.00
   -9    0   20     -2.24      0.00
    9    0   20     -5.18      0.00
   10    0   20      2.73      0.00
   -9    1   20      3.44      0.00
   -8    1   20     -6.65      0.00
    9    1   20      6.56      0.00
   10    1   20     -3.06      0.00
   -9    2   20     -0.81      0.00
   -8    2   20      0.86      0.00
   10    2   20      2.19      0.00
   11    2   20      0.10      0.00
   -9    3   20     -0.40      0.00
   -8    3   20      0.02      0.00
   10    3   20     -0.89      0.00
   11    3   20      0.45      0.00
   -8    4   20     -0.30      0.00
   -7    4   20     -2.24      0.00
   -2    4   20      0.95      0.00
   10    4   20      0.02      0.00
   11    4   20      0.03      0.00
   -8    5   20     -1.25      0.00
   -7    5   20      3.10      0.00
   -1    5   20     -1.87      0.00
   10    5   20     -1.43      0.00
   11    5   20     -0.45      0.00
   -7    6   20     -2.44      0.00
   -6    6   20     -3.59      0.00
   10    6   20      1.44      0.00
   11    6   20     -0.34      0.00
   -6    7   20      1.09      0.00
   -5    7   20     -3.32      0.00
   10    7   20      0.39      0.00
   11    7   20      0.13      0.00
   -6    8   20     -0.82      0.00
   -5    8   20      0.10      0.00
   -4    8   20     -1.55      0.00
   10    8   20     -0.95      0.00
   11    8   20     -1.46      0.00
   -5    9   20      0.46      0.00
   -4    9   20     -2.06      0.00
   -3    9   20      4.00      0.00
   10    9   20     -1.01      0.00
   11    9   20      0.97      0.00
   -4   10   20     -1.86      0.00
   -3   10   20      1.96      0.00
   -2   10   20      0.99      0.00
    9   10   20     -1.16      0.00
   10   10   20      1.58      0.00
   11   10   20     -1.00      0.00
   -3   11   20      0.11      0.00
   -2   11   20     -0.08      0.00
   -1   11   20      0.33      0.00
    0   11   20     -3.30      0.00
    8   11   20      2.37      0.00
    9   11   20     -2.79      0.00
   10   11   20      2.25      0.00
   -2   12   20     -1.04      0.00
   -1   12   20      1.80      0.00
    0   12   20      0.31      0.00
    1   12   20     -1.39      0.00
    2   12   20      4.80      0.00
    6   12   20     -0.14      0.00
    7   12   20     -1.39      0.00
    8   12   20     -0.46      0.00
    9   12   20      0.90      0.00
   10   12   20     -1.57      0.00
    0   13   20     -0.64      0.00
    1   13   20      0.39      0.00
    2   13   20     -3.95      0.00
    3   13   20      3.39      0.00
    4   13   20     -2.61      0.00
    5   13   20     -0.13      0.00
    6   13   20      1.11      0.00
    7   13   20     -0.21      0.00
    8   13   20     -0.09      0.00
    9   13   20     -0.63      0.00
    2   14   20      0.21      0.00
    3   14   20     -1.39      0.00
    4   14   20      0.24      0.00
    5   14   20     -1.13      0.00
    6   14   20      1.04      0.00
    7   14   20     -2.13      0.00
   -4  -11   21      0.03      0.00
   -3  -11   21      0.76      0.00
   -7  -10   21      0.38      0.00
   -6  -10   21     -1.40      0.00
   -5  -10   21      1.08      0.00
   -4  -10   21      2.12      0.00
   -3  -10   21     -1.82      0.00
   -2  -10   21     -1.77      0.00
   -1  -10   21      1.76      0.00
    0  -10   21     -0.31      0.00
   -8   -9   21      1.27      0.00
   -7   -9   21      0.60      0.00
   -6   -9   21      0.35      0.00
   -5   -9   21     -2.14      0.00
   -4   -9   21     -1.24      0.00
   -3   -9   21      7.76      0.00
   -2   -9   21     -1.96      0.00
   -1   -9   21     -1.99      0.00
    0   -9   21      1.45      0.00
    1   -9   21     -0.37      0.00
    2   -9   21      0.24      0.00
   -8   -8   21     -1.82      0.00
   -7   -8   21      1.53      0.00
   -6   -8   21     -2.37      0.00
   -5   -8   21      7.97      0.00
    0   -8   21     -0.28      0.00
    1   -8   21     -2.13      0.00
    2   -8   21      4.01      0.00
    3   -8   21     -2.24      0.00
   -9   -7   21      1.48      0.00
   -8   -7   21     -2.78      0.00
   -7   -7   21      1.78      0.00
    2   -7   21     -2.65      0.00
    3   -7   21     -2.14      0.00
    4   -7   21      2.02      0.00
    5   -7   21     -0.93      0.00
   -9   -6   21     -4.39      0.00
   -8   -6   21     11.66      0.00
   -7   -6   21    -10.66      0.00
    4   -6   21     -4.63      0.00
    5   -6   21      2.11      0.00
    6   -6   21     -0.53      0.00
   -9   -5   21      2.10      0.00
   -8   -5   21     -4.34      0.00
    5   -5   21     -5.72      0.00
    6   -5   21      1.09      0.00
  -10   -4   21     -4.28      0.00
   -9   -4   21      7.31      0.00
   -8   -4   21     -5.81      0.00
    6   -4   21     -2.59      0.00
    7   -4   21     -1.27      0.00
  -10   -3   21      2.19      0.00
   -9   -3   21     -6.11      0.00
   -8   -3   21      7.02      0.00
    7   -3   21      1.29      0.00
    8   -3   21     -0.58      0.00
   -9   -2   21      3.25      0.00
   -8   -2   21     -2.92      0.00
    7   -2   21     -4.12      0.00
    8   -2   21      0.68      0.00
   -9   -1   21      1.57      0.00
   -8   -1   21     -2.58      0.00
    8   -1   21     -1.09      0.00
    9   -1   21      0.52      0.00
   -9    0   21     -0.61      0.00
   -8    0   21     -1.65      0.00
    8    0   21     -2.04      0.00
    9    0   21      0.92      0.00
   -9    1   21     -1.74      0.00
   -8    1   21      6.73      0.00
    9    1   21     -4.21      0.00
   10    1   21      1.83      0.00
   -8    2   21     -4.93      0.00
   -7    2   21      5.74      0.00
   -2    2   21     -1.87      0.00
    9    2   21      3.70      0.00
   10    2   21     -1.91      0.00
   -8    3   21      2.41      0.00
   -7    3   21     -3.04      0.00
    9    3   21     -2.94      0.00
   10    3   21      1.20      0.00
   -8    4   21      0.29      0.00
   -7    4   21     -1.69      0.00
   10    4   21     -0.23      0.00
   11    4   21      0.03      0.00
   -7    5   21     -0.01      0.00
   -6    5   21      1.07      0.00
   10    5   21      0.66      0.00
   11    5   21      0.90      0.00
   -7    6   21      0.40      0.00
   -6    6   21      2.13      0.00
   -5    6   21     -4.80      0.00
   10    6   21     -2.67      0.00
   11    6   21      0.44      0.00
   -6    7   21     -1.19      0.00
   -5    7   21      4.92      0.00
   -4    7   21     -3.00      0.00
    9    7   21     -1.80      0.00
   10    7   21      1.45      0.00
   11    7   21      1.26      0.00
   -5    8   21     -2.99      0.00
   -4    8   21      4.63      0.00
    9    8   21      0.36      0.00
   10    8   21     -1.18      0.00
   11    8   21      1.03      0.00
   -4    9   21      1.93      0.00
   -3    9   21     -1.56      0.00
   -2    9   21      0.56      0.00
    9    9   21     -2.01      0.00
   10    9   21      0.11      0.00
   -3   10   21      0.44      0.00
   -2   10   21     -1.05      0.00
   -1   10   21      2.64      0.00
    8   10   21     -1.55      0.00
    9   10   21      3.99      0.00
   10   10   21     -2.27      0.00
   -2   11   21     -0.32      0.00
   -1   11   21     -1.56      0.00
    0   11   21      0.26      0.00
    1   11   21      1.01      0.00
    6   11   21     -2.33      0.00
    7   11   21      4.65      0.00
    8   11   21     -1.76      0.00
    9   11   21     -0.51      0.00
   10   11   21     -0.05      0.00
   -1   12   21      0.25      0.00
    0   12   21      0.24      0.00
    1   12   21      1.24      0.00
    2   12   21     -0.46      0.00
    3   12   21      3.28      0.00
    4   12   21     -2.04      0.00
    5   12   21      0.90      0.00
    6   12   21      1.21      0.00
    7   12   21     -1.79      0.00
    8   12   21      1.58      0.00
    9   12   21     -0.64      0.00
    1   13   21     -0.97      0.00
    2   13   21      1.55      0.00
    3   13   21     -3.06      0.00
    4   13   21      3.05      0.00
    5   13   21     -0.01      0.00
    6   13   21     -0.49      0.00
    7   13   21      1.48      0.00
    8   13   21      0.88      0.00
   -4  -10   22     -1.53      0.00
   -3  -10   22     -1.00      0.00
   -2  -10   22      1.23      0.00
   -6   -9   22      1.53      0.00
   -5   -9   22     -0.85      0.00
   -4   -9   22      3.91      0.00
   -3   -9   22     -6.12      0.00
   -2   -9   22     -0.22      0.00
   -1   -9   22      1.79      0.00
    0   -9   22     -1.61      0.00
    1   -9   22      1.26      0.00
   -7   -8   22     -0.11      0.00
   -6   -8   22     -1.37      0.00
   -5   -8   22     -1.79      0.00
   -4   -8   22      1.28      0.00
   -3   -8   22      3.92      0.00
   -2   -8   22     -1.21      0.00
   -1   -8   22     -4.76      0.00
    0   -8   22      3.87      0.00
    1   -8   22     -0.56      0.00
    2   -8   22     -0.71      0.00
   -8   -7   22     -3.00      0.00
   -7   -7   22      2.36      0.00
   -6   -7   22     -3.03      0.00
   -5   -7   22      5.93      0.00
    0   -7   22     -0.06      0.00
    1   -7   22     -3.93      0.00
    2   -7   22      2.66      0.00
    3   -7   22     -2.06      0.00
    4   -7   22     -0.01      0.00
   -8   -6   22     -5.41      0.00
   -7   -6   22      7.42      0.00
   -6   -6   22     -2.35      0.00
    2   -6   22      1.71      0.00
    3   -6   22     -3.12      0.00
    4   -6   22      3.00      0.00
    5   -6   22     -1.23      0.00
   -9   -5   22     -3.10      0.00
   -8   -5   22      6.41      0.00
   -7   -5   22     -7.03      0.00
    4   -5   22     -6.61      0.00
    5   -5   22      4.33      0.00
    6   -5   22     -1.39      0.00
   -9   -4   22     -0.33      0.00
   -8   -4   22     -1.40      0.00
   -7   -4   22      0.46      0.00
    5   -4   22     -8.35      0.00
    6   -4   22      2.91      0.00
   -9   -3   22      4.54      0.00
   -8   -3   22     -3.80      0.00
   -7   -3   22      2.97      0.00
    6   -3   22     -4.96      0.00
    7   -3   22      1.05      0.00
   -9   -2   22     -5.48      0.00
   -8   -2   22      5.71      0.00
   -7   -2   22     -3.76      0.00
    6   -2   22      2.38      0.00
    7   -2   22      0.36      0.00
    8   -2   22     -0.54      0.00
   -9   -1   22      1.25      0.00
   -8   -1   22      0.38      0.00
   -7   -1   22     -0.95      0.00
    7   -1   22     -2.75      0.00
    8   -1   22      2.82      0.00
   -8    0   22     -1.69      0.00
   -7    0   22      0.51      0.00
    8    0   22     -1.63      0.00
    9    0   22      0.26      0.00
   -8    1   22     -1.30      0.00
   -7    1   22      2.22      0.00
    8    1   22     -0.45      0.00
    9    1   22      1.56      0.00
   -8    2   22      2.28      0.00
   -7    2   22     -4.86      0.00
    8    2   22      3.38      0.00
    9    2   22     -2.51      0.00
   10    2   22      0.96      0.00
   -7    3   22      6.50      0.00
   -6    3   22     -6.55      0.00
    9    3   22      4.33      0.00
   10    3   22     -0.68      0.00
   -7    4   22     -0.26      0.00
   -6    4   22     -1.32      0.00
    9    4   22     -2.31      0.00
   10    4   22      0.99      0.00
   -6    5   22      1.17      0.00
   -5    5   22     -3.01      0.00
    9    5   22      0.67      0.00
   10    5   22      0.94      0.00
   -6    6   22     -2.43      0.00
   -5    6   22      3.32      0.00
   -4    6   22     -4.68      0.00
    9    6   22     -2.28      0.00
   10    6   22      1.35      0.00
   -5    7   22     -3.31      0.00
   -4    7   22      2.53      0.00
    8    7   22      0.32      0.00
    9    7   22      2.26      0.00
   10    7   22     -0.73      0.00
   -4    8   22     -4.56      0.00
   -3    8   22      4.16      0.00
   -2    8   22     -3.64      0.00
    8    8   22      1.15      0.00
    9    8   22     -1.76      0.00
   10    8   22      1.65      0.00
   -3    9   22     -1.96      0.00
   -2    9   22      1.96      0.00
   -1    9   22     -0.12      0.00
    7    9   22      3.24      0.00
    8    9   22     -3.27      0.00
    9    9   22      1.79      0.00
   10    9   22     -0.43      0.00
   -2   10   22     -0.36      0.00
   -1   10   22      0.98      0.00
    0   10   22      2.65      0.00
    1   10   22     -2.64      0.00
    6   10   22     -3.89      0.00
    7   10   22     -0.01      0.00
    8   10   22      3.85      0.00
    9   10   22     -3.33      0.00
   -1   11   22     -0.47      0.00
    0   11   22     -0.71      0.00
    1   11   22     -1.09      0.00
    2   11   22      2.38      0.00
    3   11   22     -6.89      0.00
    4   11   22      5.45      0.00
    5   11   22     -3.04      0.00
    6   11   22      3.05      0.00
    7   11   22     -2.92      0.00
    8   11   22     -0.91      0.00
    9   11   22      2.80      0.00
    0   12   22      0.32      0.00
    1   12   22      1.67      0.00
    2   12   22     -2.10      0.00
    3   12   22      2.79      0.00
    4   12   22     -2.82      0.00
    5   12   22      1.38      0.00
    6   12   22     -2.63      0.00
    7   12   22      2.24      0.00
    8   12   22     -1.25      0.00
    3   13   22      0.27      0.00
    4   13   22     -1.89      0.00
    5   13   22      0.28      0.00
    6   13   22      0.75      0.00
   -4   -9   23     -2.34      0.00
   -3   -9   23      3.41      0.00
   -2   -9   23      0.24      0.00
   -1   -9   23     -0.15      0.00
   -6   -8   23      3.26      0.00
   -5   -8   23     -0.90      0.00
   -4   -8   23      1.27      0.00
   -3   -8   23     -0.71      0.00
   -2   -8   23     -2.22      0.00
   -1   -8   23      6.87      0.00
    0   -8   23     -2.64      0.00
    1   -8   23      2.18      0.00
   -7   -7   23     -2.86      0.00
   -6   -7   23     -0.69      0.00
   -5   -7   23     -2.16      0.00
   -4   -7   23      0.60      0.00
   -3   -7   23      3.82      0.00
   -2   -7   23     -5.98      0.00
   -1   -7   23      0.25      0.00
    0   -7   23     -0.18      0.00
    1   -7   23      2.04      0.00
    2   -7   23     -3.53      0.00
    3   -7   23      2.50      0.00
   -7   -6   23     -2.03      0.00
   -6   -6   23      3.39      0.00
   -5   -6   23      2.21      0.00
   -4   -6   23     -3.09      0.00
   -3   -6   23      0.64      0.00
    0   -6   23     -4.57      0.00
    1   -6   23      4.87      0.00
    2   -6   23      1.09      0.00
    3   -6   23     -0.23      0.00
    4   -6   23      1.24      0.00
   -8   -5   23     -3.36      0.00
   -7   -5   23      4.80      0.00
   -6   -5   23     -4.32      0.00
   -5   -5   23     -3.63      0.00
    2   -5   23     -2.79      0.00
    3   -5   23     -1.12      0.00
    4   -5   23      2.00      0.00
    5   -5   23     -0.88      0.00
   -8   -4   23      3.32      0.00
   -7   -4   23     -3.52      0.00
   -6   -4   23      0.91      0.00
    4   -4   23     -4.32      0.00
    5   -4   23      4.36      0.00
    6   -4   23     -1.03      0.00
   -8   -3   23     -1.37      0.00
   -7   -3   23      0.60      0.00
   -6   -3   23      2.15      0.00
    5   -3   23     -6.20      0.00
    6   -3   23      4.48      0.00
   -8   -2   23     -3.60      0.00
   -7   -2   23      2.02      0.00
   -6   -2   23     -3.44      0.00
    5   -2   23      6.98      0.00
    6   -2   23     -6.38      0.00
    7   -2   23      1.85      0.00
   -8   -1   23      2.42      0.00
   -7   -1   23     -0.15      0.00
   -6   -1   23     -3.56      0.00
    6   -1   23      1.01      0.00
    7   -1   23      0.41      0.00
    8   -1   23     -0.32      0.00
   -8    0   23      0.04      0.00
   -7    0   23     -0.66      0.00
   -6    0   23      2.24      0.00
    7    0   23     -2.26      0.00
    8    0   23      1.34      0.00
   -8    1   23      0.11      0.00
   -7    1   23      1.53      0.00
   -6    1   23     -2.32      0.00
    7    1   23     -1.48      0.00
    8    1   23     -1.74      0.00
    9    1   23      0.23      0.00
   -7    2   23     -0.40      0.00
   -6    2   23     -1.67      0.00
    7    2   23     -0.15      0.00
    8    2   23     -0.99      0.00
    9    2   23     -0.05      0.00
   -7    3   23     -4.14      0.00
   -6    3   23      6.04      0.00
   -5    3   23     -5.48      0.00
    8    3   23      1.54      0.00
    9    3   23     -3.03      0.00
   -6    4   23     -2.46      0.00
   -5    4   23      3.23      0.00
    8    4   23     -3.18      0.00
    9    4   23      3.41      0.00
   -6    5   23      0.12      0.00
   -5    5   23      0.98      0.00
   -4    5   23     -0.31      0.00
    8    5   23      2.59      0.00
    9    5   23     -0.76      0.00
   -5    6   23     -1.97      0.00
   -4    6   23      2.17      0.00
   -3    6   23      1.52      0.00
    8    6   23     -1.85      0.00
    9    6   23      0.49      0.00
   -4    7   23     -1.10      0.00
   -3    7   23     -0.72      0.00
   -2    7   23      3.29      0.00
    7    7   23      5.14      0.00
    8    7   23     -1.30      0.00
    9    7   23     -0.64      0.00
   -4    8   23      1.62      0.00
   -3    8   23     -0.91      0.00
   -2    8   23      1.41      0.00
   -1    8   23     -0.06      0.00
    7    8   23     -4.65      0.00
    8    8   23      1.52      0.00
    9    8   23     -0.34      0.00
   -3    9   23      0.54      0.00
   -2    9   23     -0.06      0.00
   -1    9   23     -3.01      0.00
    0    9   23      5.02      0.00
    1    9   23     -2.71      0.00
    5    9   23      5.50      0.00
    6    9   23     -4.08      0.00
    7    9   23     -0.55      0.00
    8    9   23      0.90      0.00
    9    9   23     -0.74      0.00
   -1   10   23      0.55      0.00
    0   10   23     -3.84      0.00
    1   10   23      4.62      0.00
    2   10   23      2.98      0.00
    3   10   23     -4.19      0.00
    4   10   23      1.54      0.00
    5   10   23     -2.90      0.00
    6   10   23      2.89      0.00
    7   10   23      0.18      0.00
    8   10   23     -2.31      0.00
    0   11   23      1.45      0.00
    1   11   23     -4.01      0.00
    2   11   23     -0.51      0.00
    3   11   23      4.82      0.00
    4   11   23     -3.25      0.00
    5   11   23      1.53      0.00
    6   11   23     -1.64      0.00
    7   11   23      0.92      0.00
    8   11   23      1.97      0.00
    2   12   23      2.53      0.00
    3   12   23     -3.83      0.00
    4   12   23      3.97      0.00
    5   12   23     -1.36      0.00
    6   12   23      1.64      0.00
   -4   -8   24      0.45      0.00
   -3   -8   24     -0.23      0.00
   -2   -8   24      2.84      0.00
   -1   -8   24     -2.88      0.00
   -5   -7   24     -0.94      0.00
   -4   -7   24     -0.98      0.00
   -3   -7   24     -2.81      0.00
   -2   -7   24     -0.66      0.00
   -1   -7   24      0.29      0.00
    0   -7   24     -0.38      0.00
    1   -7   24     -2.48      0.00
   -6   -6   24     -1.35      0.00
   -5   -6   24      1.85      0.00
   -4   -6   24      2.75      0.00
   -3   -6   24      1.51      0.00
   -2   -6   24      0.29      0.00
   -1   -6   24     -2.39      0.00
    0   -6   24      5.03      0.00
    1   -6   24     -0.59      0.00
    2   -6   24     -1.38      0.00
    3   -6   24      2.64      0.00
   -7   -5   24     -2.35      0.00
   -6   -5   24      3.32      0.00
   -5   -5   24     -0.49      0.00
   -4   -5   24     -4.33      0.00
   -3   -5   24     -0.78      0.00
   -2   -5   24      1.43      0.00
   -1   -5   24     -1.50      0.00
    0   -5   24     -6.18      0.00
    1   -5   24      1.14      0.00
    2   -5   24      0.38      0.00
    3   -5   24     -2.57      0.00
    4   -5   24      1.18      0.00
   -7   -4   24      3.29      0.00
   -6   -4   24     -2.09      0.00
   -5   -4   24      0.27      0.00
   -4   -4   24      6.04      0.00
    1   -4   24      2.82      0.00
    2   -4   24     -0.52      0.00
    3   -4   24     -1.10      0.00
    4   -4   24      2.17      0.00
    5   -4   24     -0.10      0.00
   -7   -3   24     -2.62      0.00
   -6   -3   24      1.64      0.00
   -5   -3   24     -1.24      0.00
    3   -3   24     -6.37      0.00
    4   -3   24      1.49      0.00
    5   -3   24      0.95      0.00
    6   -3   24     -0.21      0.00
   -7   -2   24     -0.32      0.00
   -6   -2   24      4.88      0.00
   -5   -2   24     -4.54      0.00
    4   -2   24     -1.25      0.00
    5   -2   24     -3.50      0.00
    6   -2   24      4.16      0.00
   -7   -1   24     -0.27      0.00
   -6   -1   24      1.35      0.00
   -5   -1   24     -1.97      0.00
    5   -1   24      2.31      0.00
    6   -1   24     -2.16      0.00
    7   -1   24      2.21      0.00
   -7    0   24     -0.78      0.00
   -6    0   24     -1.04      0.00
   -5    0   24      4.36      0.00
    5    0   24     -2.18      0.00
    6    0   24      1.80      0.00
    7    0   24      0.73      0.00
   -7    1   24     -0.40      0.00
   -6    1   24      3.23      0.00
   -5    1   24     -6.92      0.00
    6    1   24     -2.32      0.00
    7    1   24      1.42      0.00
    8    1   24      1.64      0.00
   -6    2   24     -2.58      0.00
   -5    2   24      3.71      0.00
    6    2   24      1.27      0.00
    7    2   24     -0.14      0.00
    8    2   24     -0.48      0.00
   -6    3   24     -1.94      0.00
   -5    3   24      2.37      0.00
   -4    3   24     -0.51      0.00
    6    3   24      3.54      0.00
    7    3   24     -1.66      0.00
    8    3   24      0.05      0.00
   -6    4   24      2.09      0.00
   -5    4   24     -3.42      0.00
   -4    4   24      1.70      0.00
    7    4   24      3.46      0.00
    8    4   24      1.34      0.00
    9    4   24     -2.63      0.00
   -5    5   24      0.69      0.00
   -4    5   24     -0.50      0.00
   -3    5   24     -2.10      0.00
    6    5   24     -1.26      0.00
    7    5   24      2.10      0.00
    8    5   24     -0.58      0.00
    9    5   24      1.91      0.00
   -4    6   24     -1.09      0.00
   -3    6   24      0.40      0.00
   -2    6   24     -1.29      0.00
    6    6   24     -3.32      0.00
    7    6   24      1.14      0.00
    8    6   24      0.78      0.00
    9    6   24     -0.35      0.00
   -4    7   24      0.66      0.00
   -3    7   24      1.37      0.00
   -2    7   24     -4.00      0.00
   -1    7   24      1.51      0.00
    6    7   24      5.23      0.00
    7    7   24     -3.69      0.00
    8    7   24      1.23      0.00
    9    7   24      1.10      0.00
   -3    8   24      0.53      0.00
   -2    8   24     -0.12      0.00
   -1    8   24      0.85      0.00
    0    8   24     -1.72      0.00
    1    8   24     -0.27      0.00
    2    8   24      1.90      0.00
    3    8   24     -1.04      0.00
    4    8   24      2.17      0.00
    5    8   24     -1.79      0.00
    6    8   24     -3.45      0.00
    7    8   24      6.69      0.00
    8    8   24     -3.88      0.00
   -2    9   24     -1.52      0.00
   -1    9   24      1.13      0.00
    0    9   24     -1.40      0.00
    1    9   24      0.16      0.00
    2    9   24     -2.19      0.00
    3    9   24      3.84      0.00
    4    9   24     -1.05      0.00
    5    9   24     -1.19      0.00
    6    9   24      3.00      0.00
    7    9   24     -1.17      0.00
    8    9   24      2.00      0.00
    0   10   24      3.48      0.00
    1   10   24     -1.45      0.00
    2   10   24     -1.45      0.00
    3   10   24     -0.12      0.00
    4   10   24      1.85      0.00
    5   10   24      1.06      0.00
    6   10   24     -2.79      0.00
    7   10   24      0.83      0.00
    2   11   24     -0.54      0.00
    3   11   24     -2.89      0.00
    4   11   24      0.04      0.00
    5   11   24      0.81      0.00
    6   11   24      0.76      0.00
   -4   -6   25      1.48      0.00
   -3   -6   25      0.08      0.00
   -2   -6   25      1.09      0.00
   -1   -6   25      3.28      0.00
    0   -6   25      0.43      0.00
    1   -6   25      0.43      0.00
   -5   -5   25     -1.00      0.00
   -4   -5   25      1.21      0.00
   -3   -5   25     -3.56      0.00
   -2   -5   25      0.82      0.00
   -1   -5   25     -5.25      0.00
    0   -5   25      3.44      0.00
    1   -5   25     -1.13      0.00
    2   -5   25     -2.84      0.00
   -6   -4   25      2.20      0.00
   -5   -4   25      0.06      0.00
   -4   -4   25     -1.41      0.00
   -3   -4   25      0.37      0.00
   -2   -4   25      5.61      0.00
   -1   -4   25     -1.94      0.00
    0   -4   25      0.41      0.00
    1   -4   25      3.42      0.00
    2   -4   25     -0.56      0.00
    3   -4   25      2.29      0.00
    4   -4   25     -0.21      0.00
   -6   -3   25     -4.94      0.00
   -5   -3   25      1.75      0.00
   -4   -3   25      0.46      0.00
   -3   -3   25     -5.91      0.00
   -2   -3   25      1.66      0.00
   -1   -3   25     -2.31      0.00
    0   -3   25     -1.07      0.00
    1   -3   25      0.69      0.00
    2   -3   25     -3.21      0.00
    3   -3   25      0.85      0.00
    4   -3   25     -0.76      0.00
   -6   -2   25     -2.21      0.00
   -5   -2   25      2.36      0.00
   -4   -2   25     -1.05      0.00
   -3   -2   25      2.51      0.00
    2   -2   25      3.46      0.00
    3   -2   25     -3.84      0.00
    4   -2   25      2.58      0.00
    5   -2   25      0.17      0.00
   -6   -1   25      0.68      0.00
   -5   -1   25     -3.01      0.00
   -4   -1   25     -1.10      0.00
   -3   -1   25      0.38      0.00
    3   -1   25      1.50      0.00
    4   -1   25     -3.76      0.00
    5   -1   25     -0.19      0.00
    6   -1   25      1.45      0.00
   -6    0   25     -0.04      0.00
   -5    0   25     -0.74      0.00
   -4    0   25      2.42      0.00
   -3    0   25     -2.90      0.00
    4    0   25      0.71      0.00
    5    0   25     -0.35      0.00
    6    0   25     -0.20      0.00
   -6    1   25     -0.29      0.00
   -5    1   25      2.30      0.00
   -4    1   25     -2.63      0.00
   -3    1   25     -0.18      0.00
    4    1   25     -0.53      0.00
    5    1   25     -2.03      0.00
    6    1   25      1.63      0.00
    7    1   25     -1.56      0.00
   -6    2   25      2.71      0.00
   -5    2   25     -5.37      0.00
   -4    2   25      5.71      0.00
   -3    2   25     -3.55      0.00
    5    2   25     -1.24      0.00
    6    2   25     -1.66      0.00
    7    2   25      1.47      0.00
   -5    3   25      1.65      0.00
   -4    3   25     -2.89      0.00
   -3    3   25      2.03      0.00
   -2    3   25     -0.53      0.00
    5    3   25     -0.57      0.00
    6    3   25     -2.57      0.00
    7    3   25     -0.78      0.00
   -5    4   25      1.18      0.00
   -4    4   25      0.11      0.00
   -3    4   25     -2.15      0.00
   -2    4   25      2.14      0.00
    5    4   25     -1.04      0.00
    6    4   25      3.17      0.00
    7    4   25     -3.50      0.00
    8    4   25     -0.75      0.00
   -4    5   25      0.15      0.00
   -3    5   25      2.27      0.00
   -2    5   25     -2.53      0.00
   -1    5   25     -0.16      0.00
    4    5   25     -0.81      0.00
    5    5   25     -1.86      0.00
    6    5   25      0.62      0.00
    7    5   25      0.71      0.00
    8    5   25     -0.24      0.00
   -3    6   25     -1.71      0.00
   -2    6   25      3.35      0.00
   -1    6   25     -0.77      0.00
    0    6   25     -0.65      0.00
    1    6   25     -0.62      0.00
    2    6   25     -2.02      0.00
    3    6   25      2.61      0.00
    4    6   25     -0.76      0.00
    5    6   25     -3.22      0.00
    6    6   25     -0.07      0.00
    7    6   25     -0.96      0.00
    8    6   25     -0.41      0.00
   -2    7   25      1.02      0.00
   -1    7   25      0.40      0.00
    0    7   25     -1.04      0.00
    1    7   25      1.75      0.00
    2    7   25     -1.43      0.00
    3    7   25     -1.72      0.00
    4    7   25      4.04      0.00
    5    7   25     -1.53      0.00
    6    7   25     -2.51      0.00
    7    7   25      1.29      0.00
   -1    8   25      0.55      0.00
    0    8   25      0.78      0.00
    1    8   25      0.31      0.00
    2    8   25     -0.37      0.00
    3    8   25     -0.56      0.00
    4    8   25     -3.87      0.00
    5    8   25      2.47      0.00
    6    8   25      2.04      0.00
    7    8   25     -5.93      0.00
    0    9   25     -1.00      0.00
    1    9   25     -0.44      0.00
    2    9   25      2.38      0.00
    3    9   25     -1.66      0.00
    4    9   25      1.27      0.00
    5    9   25     -1.38      0.00
    6    9   25     -0.64      0.00
    2   10   25      0.08      0.00
    3   10   25      1.70      0.00
    4   10   25     -1.67      0.00
    5   10   25     -1.30      0.00
    0    0    0      0.00      0.00
# SQUEEZE RESULTS (Version = 120716)
# Note: Data are Listed for all Voids in the P1 Unit Cell
# i.e. Centre of Gravity, Solvent Accessible Volume,
# Recovered number of Electrons in the Void and
# Details about the Squeezed Material
loop_
  _platon_squeeze_void_nr
  _platon_squeeze_void_average_x
  _platon_squeeze_void_average_y
  _platon_squeeze_void_average_z
  _platon_squeeze_void_volume
  _platon_squeeze_void_count_electrons
  _platon_squeeze_void_content
   1  0.000  0.000  0.500        19         2 ' '
   2  0.000  0.500  0.000        20         3 ' '
   3  0.500  0.401  0.500       539       162 ' '
# Missing Reflections Below sin(th)/lambda = 0.25
loop_
  _platon_missing_refln_index_h
  _platon_missing_refln_index_k
  _platon_missing_refln_index_l
  _platon_missing_refln_theta
    1    0    0     1.815
    0    1    0     1.549
    1    1    0     1.872
    0   -1    1     1.888
   -1    0    1     2.059
    0    0    1     0.946
    0    1    1     1.740
    0   -1    2     2.554
   -1    0    2     2.641
    0    0    2     1.893
_platon_squeeze_void_probe_radius                  1.20
_platon_squeeze_details
)
TITL 10febb_0m in P -1
CELL   12.1990   14.3560   21.6400     83.95     86.89     66.88
SPGR P-1
# Solvent Accessible Volume =       581
# Electrons Found in S.A.V. =       168
# Note: Atoms in Void as Cxxx and Qxxx all others
C101 0.490 0.671 0.344 !       2.90 eA-3
C102 0.437 0.687 0.299 !       2.73 eA-3
C103 0.417 0.626 0.327 !       2.61 eA-3
C104 0.420 0.563 0.430 !       2.55 eA-3
C105 0.596 0.551 0.392 !       2.50 eA-3
C106 0.597 0.636 0.367 !       2.48 eA-3
C107 0.689 0.623 0.350 !       2.48 eA-3
C108 0.377 0.542 0.397 !       2.48 eA-3
C109 0.651 0.581 0.386 !       2.46 eA-3
C110 0.608 0.551 0.436 !       2.45 eA-3
C111 0.490 0.551 0.315 !       2.41 eA-3
C112 0.403 0.618 0.390 !       2.41 eA-3
C113 0.580 0.608 0.416 !       2.33 eA-3
C114 0.566 0.629 0.314 !       2.33 eA-3
C115 0.579 0.544 0.315 !       2.32 eA-3
C116 0.370 0.516 0.451 !       2.30 eA-3
C117 0.403 0.673 0.340 !       2.28 eA-3
C118 0.611 0.573 0.353 !       2.26 eA-3
C119 0.483 0.610 0.304 !       2.21 eA-3
C120 0.450 0.563 0.382 !       2.20 eA-3
C121 0.527 0.498 0.448 !       2.20 eA-3
C122 0.564 0.474 0.476 !       2.18 eA-3
C123 0.652 0.517 0.396 !       2.12 eA-3
C124 0.471 0.597 0.349 !       2.12 eA-3
C125 0.487 0.482 0.356 !       2.10 eA-3
C126 0.546 0.543 0.360 !       2.09 eA-3
C127 0.606 0.677 0.327 !       2.09 eA-3
C128 0.466 0.499 0.480 !       2.09 eA-3
Q129 0.703 0.471 0.440 !       2.07 eA-3
C130 0.358 0.688 0.392 !       2.07 eA-3
C131 0.388 0.528 0.495 !       2.06 eA-3
C132 0.529 0.500 0.392 !       2.02 eA-3
C133 0.515 0.970 0.443 !       1.99 eA-3
C134 0.504 0.752 0.341 !       1.98 eA-3
C135 0.562 0.718 0.371 !       1.95 eA-3
C136 0.513 0.707 0.298 !       1.90 eA-3
C137 0.534 0.615 0.376 !       1.90 eA-3
C138 0.419 0.721 0.266 !       1.89 eA-3
C139 0.373 0.613 0.368 !       1.89 eA-3
Q140 0.189 0.703 0.371 !       1.87 eA-3
Q141 0.719 0.547 0.331 !       1.86 eA-3
C142 0.579 0.748 0.331 !       1.85 eA-3
C143 0.670 0.624 0.297 !       1.85 eA-3
C144 0.655 0.487 0.480 !       1.84 eA-3
Q145 0.254 0.642 0.435 !       1.79 eA-3
Q146 0.286 0.580 0.479 !       1.79 eA-3
C147 0.473 0.793 0.316 !       1.79 eA-3
C148 0.237 0.670 0.412 !       1.79 eA-3
C149 0.372 0.736 0.350 !       1.77 eA-3
C150 0.403 0.764 0.313 !       1.76 eA-3
C151 0.393 0.542 0.346 !       1.72 eA-3
C152 0.441 0.736 0.330 !       1.72 eA-3
C153 0.534 0.923 0.462 !       1.71 eA-3
C154 0.529 0.659 0.389 !       1.71 eA-3
Q155 0.623 0.471 0.375 !       1.69 eA-3
Q156 0.765 0.441 0.479 !       1.68 eA-3
C157 0.561 0.528 0.486 !       1.66 eA-3
C158 0.417 0.796 0.352 !       1.66 eA-3
Q159 0.752 0.484 0.489 !       1.65 eA-3
C160 0.408 0.718 0.391 !       1.65 eA-3
C161 0.611 0.472 0.431 !       1.64 eA-3
Q162 0.573 0.485 0.331 !       1.64 eA-3
Q163 0.993 0.443 0.028 !       1.62 eA-3
Q164 0.251 0.579 0.391 !       1.60 eA-3
C165 0.513 0.578 0.402 !       1.60 eA-3
Q166 0.934 0.991 0.032 !       1.60 eA-3
C167 0.511 0.627 0.474 !       1.60 eA-3
C168 0.360 0.591 0.453 !       1.59 eA-3
C169 0.582 0.699 0.419 !       1.58 eA-3
Q170 0.717 0.430 0.395 !       1.57 eA-3
C171 0.484 0.557 0.268 !       1.56 eA-3
Q172 0.219 0.818 0.381 !       1.55 eA-3
Q173 0.478 0.435 0.455 !       1.55 eA-3
Q174 0.362 0.876 0.331 !       1.55 eA-3
C175 0.452 0.641 0.417 !       1.55 eA-3
Q176 0.314 0.466 0.446 !       1.54 eA-3
Q177 0.500 0.641 0.262 !       1.53 eA-3
Q178 0.325 0.575 0.350 !       1.52 eA-3
Q179 0.295 0.753 0.381 !       1.50 eA-3
C180 0.453 0.705 0.386 !       1.50 eA-3
Q181 0.357 0.552 0.297 !       1.49 eA-3
C182 0.489 0.762 0.397 !       1.48 eA-3
Q183 0.563 0.426 0.362 !       1.48 eA-3
Q184 0.326 0.520 0.397 !       1.47 eA-3
Q185 0.986 0.985 0.338 !       1.47 eA-3
Q186 0.409 0.453 0.425 !       1.46 eA-3
C187 0.418 0.453 0.476 !       1.46 eA-3
Q188 0.204 0.645 0.398 !       1.46 eA-3
C189 0.365 0.744 0.312 !       1.46 eA-3
C190 0.330 0.668 0.429 !       1.45 eA-3
C191 0.603 0.624 0.451 !       1.43 eA-3
Q192 0.674 0.421 0.472 !       1.43 eA-3
Q193 0.188 0.602 0.474 !       1.41 eA-3
Q194 0.472 0.875 0.283 !       1.41 eA-3
Q195 0.235 0.734 0.359 !       1.41 eA-3
C196 0.718 0.519 0.402 !       1.39 eA-3
C197 0.534 0.393 0.483 !       1.39 eA-3
Q198 0.468 0.482 0.412 !       1.38 eA-3
Q199 0.397 0.971 0.229 !       1.38 eA-3
)
;
_shelx_fab_checksum              31582
loop_
_space_group_symop_operation_xyz
'x, y, z'
'-x, -y, -z'
loop_
_atom_site_label
_atom_site_type_symbol
_atom_site_fract_x
_atom_site_fract_y
_atom_site_fract_z
_atom_site_U_iso_or_equiv
_atom_site_adp_type
_atom_site_occupancy
_atom_site_site_symmetry_order
_atom_site_calc_flag
_atom_site_refinement_flags_posn
_atom_site_refinement_flags_adp
_atom_site_refinement_flags_occupancy
_atom_site_disorder_assembly
_atom_site_disorder_group
Zn1 Zn 0.89522(16) 0.36292(15) 1.30811(9) 0.0818(8) Uani 1 1 d . . . . .
Zn2 Zn 1.0000 0.0000 1.0000 0.0614(9) Uani 1 2 d S . P . .
Cl1 Cl 1.3604(4) -0.3441(3) 1.0852(3) 0.1142(19) Uani 1 1 d . . . . .
Cl2 Cl 1.3829(3) 0.0096(3) 1.1282(2) 0.0792(14) Uani 1 1 d . . . . .
O1 O 0.7003(7) 0.1094(8) 1.2205(4) 0.067(3) Uani 1 1 d . . . . .
N1 N 0.7946(11) 0.3982(10) 1.2278(7) 0.077(4) Uani 1 1 d . . . . .
N1L N 1.0515(11) 0.2355(11) 1.2786(6) 0.095(5) Uani 1 1 d . . . . .
N2L N 1.250(2) 0.1333(19) 1.3544(11) 0.226(12) Uani 1 1 d . . . . .
H2LA H 1.2202 0.1926 1.3699 0.272 Uiso 1 1 calc R U . . .
H2LB H 1.3272 0.0969 1.3558 0.272 Uiso 1 1 calc R U . . .
C1L C 1.073(2) 0.135(2) 1.3220(11) 0.134(8) Uiso 1 1 d . . . . .
C2L C 1.173(5) 0.096(4) 1.327(2) 0.29(2) Uiso 1 1 d . . . . .
C3L C 1.225(4) -0.014(3) 1.367(2) 0.32(2) Uiso 1 1 d . . . . .
H3LA H 1.3089 -0.0551 1.3563 0.382 Uiso 1 1 calc R U . . .
H3LB H 1.2167 -0.0083 1.4126 0.382 Uiso 1 1 calc R U . . .
C4L C 1.134(3) -0.059(2) 1.3427(15) 0.239(14) Uiso 1 1 d . . . . .
H4LA H 1.1634 -0.0799 1.3008 0.287 Uiso 1 1 calc R U . . .
H4LB H 1.1452 -0.1217 1.3697 0.287 Uiso 1 1 calc R U . . .
C5L C 1.002(3) -0.001(3) 1.3372(16) 0.242(15) Uiso 1 1 d . . . . .
H5LA H 0.9643 -0.0389 1.3166 0.290 Uiso 1 1 calc R U . . .
H5LB H 0.9635 0.0159 1.3783 0.290 Uiso 1 1 calc R U . . .
C6L C 0.9990(17) 0.0787(15) 1.3033(9) 0.109(6) Uiso 1 1 d . . . . .
H1LA H 0.9148 0.1274 1.3010 0.130 Uiso 1 1 calc R U . . .
H1LB H 1.0244 0.0589 1.2607 0.130 Uiso 1 1 calc R U . . .
N2 N 0.9630(10) 0.4731(9) 1.2728(8) 0.071(4) Uani 1 1 d . . . . .
N3 N 0.9604(12) 0.3648(12) 1.3963(8) 0.090(5) Uani 1 1 d . . . . .
N3L N 0.9644(11) 0.1705(10) 1.0202(7) 0.113(5) Uani 1 1 d . . . . .
H3LC H 0.9310 0.2122 0.9857 0.136 Uiso 1 1 calc R U . . .
H3LD H 0.9091 0.1879 1.0515 0.136 Uiso 1 1 calc R U . . .
N4 N 0.7818(11) 0.3002(10) 1.3491(7) 0.080(4) Uani 1 1 d . . . . .
N4L N 0.9960(17) 0.1998(13) 1.1460(8) 0.156(7) Uani 1 1 d . . . . .
H4LC H 0.9583 0.1594 1.1429 0.187 Uiso 1 1 calc R U . . .
H4LD H 0.9953 0.2248 1.1816 0.187 Uiso 1 1 calc R U . . .
N5 N 0.8253(8) 0.0375(7) 1.0277(5) 0.043(3) Uani 1 1 d . . . . .
N6 N 1.0501(8) -0.0590(7) 1.0886(5) 0.046(3) Uani 1 1 d . . . . .
C1 C 0.7171(14) 0.3544(12) 1.2140(8) 0.064(5) Uani 1 1 d . . . . .
C2 C 0.6949(13) 0.3730(13) 1.1474(8) 0.076(5) Uani 1 1 d . . . . .
C3 C 0.7550(13) 0.4327(13) 1.1247(8) 0.070(5) Uani 1 1 d . . . . .
C4 C 0.8190(14) 0.4454(13) 1.1722(9) 0.069(5) Uani 1 1 d . . . . .
C5 C 0.8909(15) 0.5006(10) 1.1710(8) 0.079(5) Uani 1 1 d . . . . .
H5A H 0.8922 0.5363 1.1316 0.095 Uiso 1 1 calc R U . . .
C6 C 0.9594(14) 0.5151(12) 1.2132(9) 0.066(5) Uani 1 1 d . . . . .
C7 C 1.0340(14) 0.5709(12) 1.2059(10) 0.077(5) Uani 1 1 d . . . . .
C7L C 1.068(2) 0.1932(17) 1.0374(12) 0.131(8) Uiso 1 1 d . . . . .
C8 C 1.0869(16) 0.5637(14) 1.2579(12) 0.095(6) Uani 1 1 d . . . . .
C8L C 1.062(2) 0.2263(19) 1.0903(14) 0.150(9) Uiso 1 1 d . . . . .
C9 C 1.0447(15) 0.4991(16) 1.3049(13) 0.101(7) Uani 1 1 d . . . . .
C9L C 1.153(2) 0.2629(17) 1.1082(10) 0.145(8) Uiso 1 1 d . . . . .
H9LA H 1.1123 0.3289 1.1260 0.174 Uiso 1 1 calc R U . . .
H9LB H 1.2036 0.2139 1.1411 0.174 Uiso 1 1 calc R U . . .
C10 C 1.0781(18) 0.4642(18) 1.3663(11) 0.100(7) Uani 1 1 d . . . . .
H10A H 1.1385 0.4827 1.3805 0.120 Uiso 1 1 calc R U . . .
C10L C 1.231(2) 0.2757(17) 1.0569(11) 0.147(8) Uiso 1 1 d . . . . .
H10B H 1.2256 0.3465 1.0552 0.176 Uiso 1 1 calc R U . . .
H10C H 1.3136 0.2309 1.0685 0.176 Uiso 1 1 calc R U . . .
C11 C 1.0386(18) 0.4086(17) 1.4088(12) 0.102(7) Uani 1 1 d . . . . .
C11L C 1.215(2) 0.257(2) 0.9938(12) 0.179(10) Uiso 1 1 d . . . . .
H11A H 1.1985 0.3213 0.9670 0.215 Uiso 1 1 calc R U . . .
H11B H 1.2910 0.2066 0.9794 0.215 Uiso 1 1 calc R U . . .
C12 C 1.0772(17) 0.378(2) 1.4691(15) 0.148(12) Uani 1 1 d . . . . .
C12L C 1.1240(15) 0.2229(13) 0.9838(8) 0.095(6) Uiso 1 1 d . . . . .
H12A H 1.1584 0.1640 0.9587 0.114 Uiso 1 1 calc R U . . .
H12B H 1.0616 0.2776 0.9586 0.114 Uiso 1 1 calc R U . . .
C13 C 1.017(2) 0.3251(18) 1.4930(10) 0.125(8) Uani 1 1 d . . . . .
C14 C 0.9424(19) 0.310(2) 1.4487(11) 0.120(8) Uani 1 1 d . . . . .
C15 C 0.8660(18) 0.2608(19) 1.4577(10) 0.130(9) Uani 1 1 d . . . . .
H15A H 0.8658 0.2252 1.4973 0.156 Uiso 1 1 calc R U . . .
C16 C 0.786(2) 0.2584(18) 1.4120(10) 0.113(7) Uani 1 1 d . . . . .
C17 C 0.695(2) 0.2228(16) 1.4215(9) 0.100(6) Uani 1 1 d . . . . .
C18 C 0.6334(14) 0.2358(14) 1.3727(9) 0.081(5) Uani 1 1 d . . . . .
C19 C 0.6886(13) 0.2835(13) 1.3233(10) 0.078(5) Uani 1 1 d . . . . .
C20 C 0.6665(13) 0.3055(13) 1.2604(9) 0.074(5) Uani 1 1 d . . . . .
C21 C 0.6515(14) 0.3114(12) 1.1060(8) 0.086(5) Uiso 1 1 d . . . . .
H21A H 0.7023 0.2935 1.0683 0.103 Uiso 1 1 calc R U . . .
H21B H 0.6512 0.2484 1.1294 0.103 Uiso 1 1 calc R U . . .
C22 C 0.537(2) 0.379(2) 1.0909(12) 0.197(11) Uiso 1 1 d . . . . .
H22A H 0.5017 0.3474 1.0640 0.296 Uiso 1 1 calc R U . . .
H22B H 0.5399 0.4410 1.0691 0.296 Uiso 1 1 calc R U . . .
H22C H 0.4889 0.3949 1.1290 0.296 Uiso 1 1 calc R U . . .
C23 C 0.7591(15) 0.4686(13) 1.0580(8) 0.105(6) Uiso 1 1 d . . . . .
H23A H 0.7568 0.4172 1.0323 0.157 Uiso 1 1 calc R U . . .
H23B H 0.8328 0.4798 1.0491 0.157 Uiso 1 1 calc R U . . .
H23C H 0.6903 0.5325 1.0487 0.157 Uiso 1 1 calc R U . . .
C24 C 1.0582(16) 0.6168(14) 1.1493(9) 0.105(6) Uiso 1 1 d . . . . .
H24A H 1.0838 0.6712 1.1587 0.126 Uiso 1 1 calc R U . . .
H24B H 0.9825 0.6502 1.1264 0.126 Uiso 1 1 calc R U . . .
C25 C 1.1479(15) 0.5522(13) 1.1074(8) 0.111(6) Uiso 1 1 d . . . . .
H25A H 1.1467 0.5912 1.0672 0.166 Uiso 1 1 calc R U . . .
H25B H 1.1299 0.4931 1.1013 0.166 Uiso 1 1 calc R U . . .
H25C H 1.2270 0.5293 1.1256 0.166 Uiso 1 1 calc R U . . .
C26 C 1.1644(16) 0.6112(13) 1.2797(8) 0.110(6) Uiso 1 1 d . . . . .
H26A H 1.2085 0.6285 1.2443 0.165 Uiso 1 1 calc R U . . .
H26B H 1.2208 0.5633 1.3101 0.165 Uiso 1 1 calc R U . . .
H26C H 1.1151 0.6730 1.2992 0.165 Uiso 1 1 calc R U . . .
C27 C 1.164(2) 0.4015(17) 1.5002(10) 0.166(9) Uiso 1 1 d . . . . .
H27A H 1.1259 0.4415 1.5350 0.250 Uiso 1 1 calc R U . . .
H27B H 1.1975 0.4407 1.4707 0.250 Uiso 1 1 calc R U . . .
H27C H 1.2287 0.3381 1.5158 0.250 Uiso 1 1 calc R U . . .
C28 C 1.0375(19) 0.2583(16) 1.5613(10) 0.135(8) Uiso 1 1 d . . . . .
H28A H 1.0698 0.2898 1.5902 0.162 Uiso 1 1 calc R U . . .
H28B H 0.9598 0.2600 1.5783 0.162 Uiso 1 1 calc R U . . .
C29 C 1.119(2) 0.153(2) 1.5574(12) 0.202(12) Uiso 1 1 d . . . . .
H29A H 1.1276 0.1153 1.5987 0.302 Uiso 1 1 calc R U . . .
H29B H 1.1976 0.1504 1.5424 0.302 Uiso 1 1 calc R U . . .
H29C H 1.0880 0.1211 1.5286 0.302 Uiso 1 1 calc R U . . .
C30 C 0.6732(19) 0.1733(16) 1.4889(10) 0.156(9) Uiso 1 1 d . . . . .
H30A H 0.6185 0.1393 1.4854 0.233 Uiso 1 1 calc R U . . .
H30B H 0.6386 0.2269 1.5172 0.233 Uiso 1 1 calc R U . . .
H30C H 0.7494 0.1237 1.5053 0.233 Uiso 1 1 calc R U . . .
C31 C 0.5276(14) 0.2166(12) 1.3743(8) 0.089(5) Uiso 1 1 d . . . . .
H31A H 0.5392 0.1545 1.4024 0.107 Uiso 1 1 calc R U . . .
H31B H 0.5125 0.2037 1.3322 0.107 Uiso 1 1 calc R U . . .
C32 C 0.4203(19) 0.3034(16) 1.3962(10) 0.149(8) Uiso 1 1 d . . . . .
H32A H 0.3788 0.2774 1.4293 0.223 Uiso 1 1 calc R U . . .
H32B H 0.3662 0.3365 1.3614 0.223 Uiso 1 1 calc R U . . .
H32C H 0.4460 0.3529 1.4122 0.223 Uiso 1 1 calc R U . . .
C33 C 0.5684(14) 0.2792(12) 1.2382(7) 0.072(5) Uiso 1 1 d . . . . .
C34 C 0.4504(15) 0.3512(13) 1.2394(7) 0.088(5) Uiso 1 1 d . . . . .
H34A H 0.4364 0.4178 1.2496 0.106 Uiso 1 1 calc R U . . .
C35 C 0.3526(15) 0.3290(13) 1.2263(7) 0.092(6) Uiso 1 1 d . . . . .
H35A H 0.2741 0.3800 1.2256 0.111 Uiso 1 1 calc R U . . .
C36 C 0.3728(15) 0.2339(13) 1.2148(7) 0.089(5) Uiso 1 1 d . . . . .
H36A H 0.3066 0.2177 1.2072 0.107 Uiso 1 1 calc R U . . .
C37 C 0.4873(13) 0.1570(12) 1.2135(7) 0.078(5) Uiso 1 1 d . . . . .
H37A H 0.4988 0.0901 1.2051 0.094 Uiso 1 1 calc R U . . .
C38 C 0.5855(13) 0.1816(11) 1.2250(6) 0.062(4) Uiso 1 1 d . . . . .
C51 C 0.7845(12) 0.0154(10) 1.0865(7) 0.050(4) Uiso 1 1 d . . . . .
C52 C 0.6542(12) 0.0480(9) 1.0821(6) 0.056(4) Uiso 1 1 d . . . . .
H52A H 0.6019 0.0397 1.1143 0.067 Uiso 1 1 calc R U . . .
C53 C 0.6238(11) 0.0902(9) 1.0258(6) 0.048(4) Uiso 1 1 d . . . . .
H53A H 0.5444 0.1212 1.0111 0.058 Uiso 1 1 calc R U . . .
C54 C 0.7274(11) 0.0829(9) 0.9897(6) 0.039(3) Uiso 1 1 d . . . . .
C55 C 1.2676(10) -0.1136(8) 1.0727(5) 0.034(3) Uiso 1 1 d . . . . .
C56 C 1.1670(12) -0.1035(10) 1.1093(6) 0.050(4) Uiso 1 1 d . . . . .
C57 C 1.1650(12) -0.1365(9) 1.1749(6) 0.051(4) Uiso 1 1 d . . . . .
H57A H 1.2330 -0.1688 1.2005 0.061 Uiso 1 1 calc R U . . .
C58 C 1.0503(11) -0.1138(9) 1.1937(6) 0.050(4) Uiso 1 1 d . . . . .
H58A H 1.0227 -0.1274 1.2342 0.060 Uiso 1 1 calc R U . . .
C59 C 0.9779(11) -0.0639(9) 1.1388(6) 0.044(3) Uiso 1 1 d . . . . .
C60 C 0.8513(11) -0.0312(9) 1.1377(6) 0.044(3) Uiso 1 1 d . . . . .
C61 C 1.3846(6) -0.1718(7) 1.1072(4) 0.047(4) Uiso 1 1 d G . . . .
C62 C 1.4429(8) -0.1190(5) 1.1324(4) 0.057(4) Uiso 1 1 d G . . . .
C63 C 1.5500(8) -0.1719(7) 1.1630(4) 0.067(4) Uiso 1 1 d G . . . .
H63A H 1.5899 -0.1358 1.1802 0.081 Uiso 1 1 calc R U . . .
C64 C 1.5988(7) -0.2776(7) 1.1684(4) 0.079(5) Uiso 1 1 d G . . . .
H64A H 1.6720 -0.3137 1.1893 0.095 Uiso 1 1 calc R U . . .
C65 C 1.5404(9) -0.3304(5) 1.1432(5) 0.102(6) Uiso 1 1 d G . . . .
H65A H 1.5738 -0.4026 1.1469 0.122 Uiso 1 1 calc R U . . .
C66 C 1.4333(9) -0.2775(7) 1.1126(4) 0.078(5) Uiso 1 1 d G . . . .
C67 C 0.8007(10) -0.0592(9) 1.1955(6) 0.041(3) Uiso 1 1 d . . . . .
C68 C 0.8249(11) -0.1594(10) 1.2137(6) 0.057(4) Uiso 1 1 d . . . . .
H68A H 0.8733 -0.2099 1.1877 0.069 Uiso 1 1 calc R U . . .
C69 C 0.7805(12) -0.1887(12) 1.2688(7) 0.071(5) Uiso 1 1 d . . . . .
H69A H 0.8006 -0.2589 1.2811 0.085 Uiso 1 1 calc R U . . .
C70 C 0.7105(13) -0.1201(12) 1.3046(7) 0.074(5) Uiso 1 1 d . . . . .
H70A H 0.6793 -0.1425 1.3418 0.089 Uiso 1 1 calc R U . . .
C71 C 0.6821(12) -0.0236(11) 1.2915(7) 0.067(4) Uiso 1 1 d . . . . .
H71A H 0.6325 0.0246 1.3184 0.081 Uiso 1 1 calc R U . . .
C72 C 0.7286(12) 0.0067(12) 1.2352(7) 0.057(4) Uiso 1 1 d . . . . .
loop_
_atom_site_aniso_label
_atom_site_aniso_U_11
_atom_site_aniso_U_22
_atom_site_aniso_U_33
_atom_site_aniso_U_23
_atom_site_aniso_U_13
_atom_site_aniso_U_12
Zn1 0.0678(14) 0.0947(16) 0.0895(16) -0.0318(12) -0.0128(11) -0.0314(12)
Zn2 0.0278(14) 0.0804(19) 0.0703(19) -0.0151(15) -0.0004(12) -0.0130(13)
Cl1 0.085(3) 0.056(3) 0.201(6) -0.037(3) -0.041(3) -0.015(3)
Cl2 0.058(3) 0.070(3) 0.120(4) -0.013(3) -0.026(2) -0.031(2)
O1 0.036(6) 0.092(8) 0.078(7) -0.036(6) 0.004(5) -0.024(6)
N1 0.055(9) 0.072(10) 0.096(12) -0.041(9) -0.027(8) -0.006(8)
N1L 0.076(10) 0.101(11) 0.088(11) -0.039(9) 0.015(8) -0.010(8)
N2L 0.19(2) 0.27(3) 0.26(3) 0.06(2) -0.04(2) -0.15(2)
N2 0.045(8) 0.060(9) 0.121(13) -0.045(9) 0.010(8) -0.027(7)
N3 0.070(10) 0.114(13) 0.096(13) -0.043(10) -0.019(10) -0.035(9)
N3L 0.055(9) 0.111(12) 0.153(15) -0.036(11) -0.003(9) -0.004(9)
N4 0.084(11) 0.082(10) 0.085(12) -0.048(9) 0.012(9) -0.037(8)
N4L 0.24(2) 0.158(17) 0.107(14) -0.050(12) 0.030(14) -0.107(16)
N5 0.021(6) 0.045(7) 0.065(8) -0.018(6) -0.018(6) -0.010(5)
N6 0.024(6) 0.053(7) 0.067(8) -0.018(6) -0.008(6) -0.016(5)
C1 0.056(11) 0.067(12) 0.064(13) -0.029(10) -0.013(10) -0.011(9)
C2 0.060(11) 0.100(14) 0.069(13) -0.045(11) -0.006(10) -0.022(10)
C3 0.048(10) 0.086(13) 0.068(13) -0.012(10) -0.001(9) -0.015(10)
C4 0.067(12) 0.073(13) 0.070(13) -0.019(11) -0.020(10) -0.025(10)
C5 0.085(13) 0.031(10) 0.107(15) 0.003(9) -0.031(12) -0.006(9)
C6 0.062(12) 0.055(11) 0.065(13) -0.008(10) -0.021(10) 0.000(9)
C7 0.055(11) 0.070(12) 0.120(17) -0.017(12) -0.012(11) -0.035(10)
C8 0.081(14) 0.083(14) 0.15(2) -0.031(14) 0.000(14) -0.055(12)
C9 0.047(11) 0.076(14) 0.18(2) -0.081(16) 0.000(14) -0.001(11)
C10 0.093(16) 0.14(2) 0.072(16) -0.005(14) -0.024(13) -0.045(14)
C11 0.091(16) 0.125(19) 0.099(19) -0.026(15) -0.048(15) -0.042(14)
C12 0.057(13) 0.22(3) 0.21(3) -0.13(2) -0.016(16) -0.062(16)
C13 0.12(2) 0.16(2) 0.11(2) -0.045(16) -0.038(16) -0.065(17)
C14 0.078(16) 0.20(3) 0.072(17) -0.046(17) 0.009(14) -0.040(17)
C15 0.090(16) 0.23(3) 0.088(17) -0.026(16) -0.016(13) -0.076(18)
C16 0.112(18) 0.17(2) 0.073(17) -0.059(15) 0.037(14) -0.062(16)
C17 0.108(17) 0.158(19) 0.056(14) -0.032(13) 0.037(13) -0.074(15)
C18 0.060(12) 0.144(17) 0.057(12) -0.010(12) 0.012(10) -0.060(12)
C19 0.038(10) 0.107(14) 0.100(16) -0.031(12) -0.014(10) -0.034(10)
C20 0.055(11) 0.100(14) 0.070(14) -0.040(11) -0.014(10) -0.024(10)
loop_
_atom_type_symbol
_atom_type_description
_atom_type_scat_dispersion_real
_atom_type_scat_dispersion_imag
_atom_type_scat_source
C C 0.0033 0.0016 'International Tables Vol C Tables 4.2.6.8 and 6.1.1.4'
H H 0.0000 0.0000 'International Tables Vol C Tables 4.2.6.8 and 6.1.1.4'
N N 0.0061 0.0033 'International Tables Vol C Tables 4.2.6.8 and 6.1.1.4'
O O 0.0106 0.0060 'International Tables Vol C Tables 4.2.6.8 and 6.1.1.4'
Zn Zn 0.2839 1.4301 'International Tables Vol C Tables 4.2.6.8 and 6.1.1.4'
Cl Cl 0.1484 0.1585 'International Tables Vol C Tables 4.2.6.8 and 6.1.1.4'
loop_
_geom_angle_atom_site_label_1
_geom_angle_atom_site_label_2
_geom_angle_atom_site_label_3
_geom_angle
_geom_angle_site_symmetry_1
_geom_angle_site_symmetry_3
_geom_angle_publ_flag
N4 Zn1 N1 88.1(6) . . ?
N4 Zn1 N3 90.1(6) . . ?
N1 Zn1 N3 164.3(5) . . ?
N4 Zn1 N2 160.5(5) . . ?
N1 Zn1 N2 88.0(6) . . ?
N3 Zn1 N2 88.5(7) . . ?
N4 Zn1 N1L 105.7(5) . . ?
N1 Zn1 N1L 99.3(5) . . ?
N3 Zn1 N1L 96.2(5) . . ?
N2 Zn1 N1L 93.8(5) . . ?
N6 Zn2 N6 180.0 2_757 . ?
N6 Zn2 N5 88.9(4) 2_757 2_757 ?
N6 Zn2 N5 91.1(4) . 2_757 ?
N6 Zn2 N5 91.1(4) 2_757 . ?
N6 Zn2 N5 88.9(4) . . ?
N5 Zn2 N5 180.0(2) 2_757 . ?
N6 Zn2 N3L 86.0(4) 2_757 . ?
N6 Zn2 N3L 94.0(4) . . ?
N5 Zn2 N3L 95.6(4) 2_757 . ?
N5 Zn2 N3L 84.4(4) . . ?
N6 Zn2 N3L 94.0(4) 2_757 2_757 ?
N6 Zn2 N3L 86.0(4) . 2_757 ?
N5 Zn2 N3L 84.4(4) 2_757 2_757 ?
N5 Zn2 N3L 95.6(4) . 2_757 ?
N3L Zn2 N3L 180.0 . 2_757 ?
C72 O1 C38 122.7(11) . . ?
C1 N1 C4 106.9(14) . . ?
C1 N1 Zn1 125.7(14) . . ?
C4 N1 Zn1 124.9(12) . . ?
C1L N1L Zn1 111.7(12) . . ?
C2L C1L C6L 121(4) . . ?
C2L C1L N1L 105(4) . . ?
C6L C1L N1L 112(2) . . ?
C1L C2L N2L 127(5) . . ?
C1L C2L C3L 117(5) . . ?
N2L C2L C3L 94(4) . . ?
C4L C3L C2L 97(3) . . ?
C5L C4L C3L 125(3) . . ?
C6L C5L C4L 100(3) . . ?
C5L C6L C1L 119(2) . . ?
C6 N2 C9 106.9(18) . . ?
C6 N2 Zn1 127.4(12) . . ?
C9 N2 Zn1 124.3(17) . . ?
C14 N3 C11 110(2) . . ?
C14 N3 Zn1 123.5(14) . . ?
C11 N3 Zn1 126.4(16) . . ?
C7L N3L Zn2 118.4(11) . . ?
C19 N4 C16 104.6(16) . . ?
C19 N4 Zn1 129.9(14) . . ?
C16 N4 Zn1 125.5(13) . . ?
C54 N5 C51 107.6(10) . . ?
C54 N5 Zn2 125.7(9) . . ?
C51 N5 Zn2 126.5(8) . . ?
C59 N6 C56 106.9(10) . . ?
C59 N6 Zn2 127.7(8) . . ?
C56 N6 Zn2 125.3(9) . . ?
N1 C1 C20 122.5(15) . . ?
N1 C1 C2 108.8(16) . . ?
C20 C1 C2 128.6(16) . . ?
C3 C2 C1 105.3(14) . . ?
C3 C2 C21 123.8(16) . . ?
C1 C2 C21 127.9(17) . . ?
C2 C3 C4 109.6(16) . . ?
C2 C3 C23 124.0(16) . . ?
C4 C3 C23 126.1(18) . . ?
C5 C4 N1 120.9(16) . . ?
C5 C4 C3 130(2) . . ?
N1 C4 C3 109.1(16) . . ?
C6 C5 C4 134.6(18) . . ?
C5 C6 N2 120.2(18) . . ?
C5 C6 C7 129.8(19) . . ?
N2 C6 C7 110.1(15) . . ?
C8 C7 C24 124.5(19) . . ?
C8 C7 C6 110.2(18) . . ?
C24 C7 C6 124.9(19) . . ?
C8L C7L C12L 124(3) . . ?
C8L C7L N3L 117(2) . . ?
C12L C7L N3L 112(2) . . ?
C7 C8 C26 135(2) . . ?
C7 C8 C9 107.1(17) . . ?
C26 C8 C9 118.1(19) . . ?
C7L C8L C9L 121(3) . . ?
C7L C8L N4L 124(3) . . ?
C9L C8L N4L 112(2) . . ?
C10 C9 N2 124(2) . . ?
C10 C9 C8 130(2) . . ?
N2 C9 C8 106(2) . . ?
C10L C9L C8L 114(2) . . ?
C11 C10 C9 130(2) . . ?
C11L C10L C9L 122(2) . . ?
C10 C11 C12 126(2) . . ?
C10 C11 N3 124(2) . . ?
C12 C11 N3 109(2) . . ?
C12L C11L C10L 118(2) . . ?
C13 C12 C11 105.4(18) . . ?
C13 C12 C27 127(3) . . ?
C11 C12 C27 128(3) . . ?
C11L C12L C7L 117(2) . . ?
C12 C13 C14 113(2) . . ?
C12 C13 C28 127(2) . . ?
C14 C13 C28 119(2) . . ?
N3 C14 C15 128(2) . . ?
N3 C14 C13 102(2) . . ?
C15 C14 C13 129(3) . . ?
C14 C15 C16 125(2) . . ?
C17 C16 N4 107.7(18) . . ?
C17 C16 C15 127(2) . . ?
N4 C16 C15 125(2) . . ?
C18 C17 C16 113.3(18) . . ?
C18 C17 C30 126(2) . . ?
C16 C17 C30 120(2) . . ?
C17 C18 C31 122.1(19) . . ?
C17 C18 C19 105.5(16) . . ?
C31 C18 C19 132.0(16) . . ?
C20 C19 N4 120.4(17) . . ?
C20 C19 C18 130.6(16) . . ?
N4 C19 C18 108.8(15) . . ?
C19 C20 C1 130.1(15) . . ?
C19 C20 C33 115.2(17) . . ?
C1 C20 C33 114.6(15) . . ?
C22 C21 C2 102.8(16) . . ?
C7 C24 C25 118.1(17) . . ?
C29 C28 C13 112.2(19) . . ?
C18 C31 C32 112.8(16) . . ?
C38 C33 C34 117.2(15) . . ?
C38 C33 C20 123.0(14) . . ?
C34 C33 C20 119.1(14) . . ?
C35 C34 C33 122.7(16) . . ?
C36 C35 C34 118.1(17) . . ?
C35 C36 C37 122.9(17) . . ?
C36 C37 C38 118.3(15) . . ?
O1 C38 C33 119.2(13) . . ?
O1 C38 C37 119.9(13) . . ?
C33 C38 C37 120.8(15) . . ?
C60 C51 N5 127.2(12) . . ?
C60 C51 C52 126.2(13) . . ?
N5 C51 C52 106.5(11) . . ?
C53 C52 C51 107.6(13) . . ?
C52 C53 C54 109.8(12) . . ?
C55 C54 N5 124.7(11) 2_757 . ?
C55 C54 C53 127.0(12) 2_757 . ?
N5 C54 C53 108.3(11) . . ?
C54 C55 C56 128.0(11) 2_757 . ?
C54 C55 C61 118.6(10) 2_757 . ?
C56 C55 C61 113.3(10) . . ?
C55 C56 N6 125.1(12) . . ?
C55 C56 C57 126.5(12) . . ?
N6 C56 C57 108.4(11) . . ?
C58 C57 C56 108.8(12) . . ?
C57 C58 C59 105.8(12) . . ?
N6 C59 C60 125.7(11) . . ?
N6 C59 C58 110.1(11) . . ?
C60 C59 C58 124.1(12) . . ?
C51 C60 C59 123.7(12) . . ?
C51 C60 C67 122.7(12) . . ?
C59 C60 C67 113.4(11) . . ?
C62 C61 C66 120.0 . . ?
C62 C61 C55 120.0(7) . . ?
C66 C61 C55 119.9(7) . . ?
C63 C62 C61 120.0 . . ?
C63 C62 Cl2 119.3(6) . . ?
C61 C62 Cl2 120.7(6) . . ?
C62 C63 C64 120.0 . . ?
C65 C64 C63 120.0 . . ?
C64 C65 C66 120.0 . . ?
C65 C66 C61 120.0 . . ?
C65 C66 Cl1 119.0(6) . . ?
C61 C66 Cl1 121.0(6) . . ?
C72 C67 C68 114.6(13) . . ?
C72 C67 C60 125.5(12) . . ?
C68 C67 C60 119.9(12) . . ?
C67 C68 C69 121.4(14) . . ?
C70 C69 C68 120.4(16) . . ?
C71 C70 C69 123.0(17) . . ?
C70 C71 C72 116.8(15) . . ?
C67 C72 O1 118.3(13) . . ?
C67 C72 C71 123.9(15) . . ?
O1 C72 C71 117.8(13) . . ?
loop_
_geom_bond_atom_site_label_1
_geom_bond_atom_site_label_2
_geom_bond_distance
_geom_bond_site_symmetry_2
_geom_bond_publ_flag
Zn1 N4 2.048(14) . ?
Zn1 N1 2.084(13) . ?
Zn1 N3 2.114(14) . ?
Zn1 N2 2.115(13) . ?
Zn1 N1L 2.183(12) . ?
Zn2 N6 2.036(10) 2_757 ?
Zn2 N6 2.036(10) . ?
Zn2 N5 2.054(9) 2_757 ?
Zn2 N5 2.054(9) . ?
Zn2 N3L 2.397(14) . ?
Zn2 N3L 2.397(14) 2_757 ?
Cl1 C66 1.703(8) . ?
Cl2 C62 1.691(8) . ?
O1 C72 1.382(15) . ?
O1 C38 1.382(15) . ?
N1 C1 1.383(18) . ?
N1 C4 1.393(19) . ?
N1L C1L 1.57(2) . ?
N2L C2L 1.43(5) . ?
C1L C2L 1.13(5) . ?
C1L C6L 1.52(3) . ?
C2L C3L 1.63(5) . ?
C3L C4L 1.61(4) . ?
C4L C5L 1.50(3) . ?
C5L C6L 1.28(3) . ?
N2 C6 1.362(18) . ?
N2 C9 1.426(19) . ?
N3 C14 1.37(2) . ?
N3 C11 1.38(2) . ?
N3L C7L 1.49(2) . ?
N4 C19 1.404(17) . ?
N4 C16 1.42(2) . ?
N4L C8L 1.51(3) . ?
N5 C54 1.382(13) . ?
N5 C51 1.393(15) . ?
N6 C59 1.375(14) . ?
N6 C56 1.391(14) . ?
C1 C20 1.42(2) . ?
C1 C2 1.46(2) . ?
C2 C3 1.37(2) . ?
C2 C21 1.57(2) . ?
C3 C4 1.39(2) . ?
C3 C23 1.48(2) . ?
C4 C5 1.39(2) . ?
C5 C6 1.35(2) . ?
C6 C7 1.42(2) . ?
C7 C8 1.30(2) . ?
C7 C24 1.40(2) . ?
C7L C8L 1.27(3) . ?
C7L C12L 1.43(2) . ?
C8 C26 1.48(2) . ?
C8 C9 1.51(3) . ?
C8L C9L 1.49(3) . ?
C9 C10 1.39(2) . ?
C9L C10L 1.46(2) . ?
C10 C11 1.35(2) . ?
C10L C11L 1.46(3) . ?
C11 C12 1.38(3) . ?
C11L C12L 1.41(2) . ?
C12 C13 1.31(3) . ?
C12 C27 1.45(3) . ?
C13 C14 1.44(3) . ?
C13 C28 1.65(3) . ?
C14 C15 1.37(3) . ?
C15 C16 1.43(2) . ?
C16 C17 1.40(2) . ?
C17 C18 1.28(2) . ?
C17 C30 1.61(2) . ?
C18 C31 1.42(2) . ?
C18 C19 1.48(2) . ?
C19 C20 1.38(2) . ?
C20 C33 1.504(19) . ?
C21 C22 1.38(2) . ?
C24 C25 1.47(2) . ?
C28 C29 1.46(3) . ?
C31 C32 1.51(2) . ?
C33 C38 1.392(18) . ?
C33 C34 1.406(19) . ?
C34 C35 1.401(19) . ?
C35 C36 1.337(19) . ?
C36 C37 1.401(19) . ?
C37 C38 1.416(18) . ?
C51 C60 1.361(15) . ?
C51 C52 1.476(16) . ?
C52 C53 1.306(15) . ?
C53 C54 1.421(15) . ?
C54 C55 1.382(15) 2_757 ?
C55 C54 1.382(15) 2_757 ?
C55 C56 1.391(15) . ?
C55 C61 1.529(12) . ?
C56 C57 1.450(16) . ?
C57 C58 1.356(15) . ?
C58 C59 1.464(15) . ?
C59 C60 1.428(15) . ?
C60 C67 1.453(16) . ?
C61 C62 1.3900 . ?
C61 C66 1.3900 . ?
C62 C63 1.3900 . ?
C63 C64 1.3900 . ?
C64 C65 1.3900 . ?
C65 C66 1.3900 . ?
C67 C72 1.357(16) . ?
C67 C68 1.368(15) . ?
C68 C69 1.377(17) . ?
C69 C70 1.314(17) . ?
C70 C71 1.292(17) . ?
C71 C72 1.416(17) . ?
