#------------------------------------------------------------------------------
#$Date: 2023-07-05 12:43:05 +0300 (Wed, 05 Jul 2023) $
#$Revision: 284896 $
#$URL: file:///home/coder/svn-repositories/cod/cif/1/56/91/1569119.cif $
#------------------------------------------------------------------------------
#
# This file is available in the Crystallography Open Database (COD),
# http://www.crystallography.net/
#
# All data on this site have been placed in the public domain by the
# contributors.
#
data_1569119
loop_
_publ_author_name
'Dhamija, Avinash'
'Chandel, Dolly'
'Rath, Sankar Prasad'
_publ_section_title
;
 Modulation of supramolecular chirality by stepwise axial coordination in
 a nano-size trizinc(ii)porphyrin trimer.
;
_journal_issue                   22
_journal_name_full               'Chemical science'
_journal_page_first              6032
_journal_page_last               6038
_journal_paper_doi               10.1039/d3sc00858d
_journal_volume                  14
_journal_year                    2023
_chemical_formula_sum            'C120 H100 Cl4 N12 O2 Zn2.4'
_chemical_formula_weight         2040.80
_space_group_crystal_system      triclinic
_space_group_IT_number           2
_space_group_name_Hall           '-P 1'
_space_group_name_H-M_alt        'P -1'
_atom_sites_solution_hydrogens   geom
_audit_creation_method           SHELXL-2018/3
_audit_update_record
;
2022-10-19 deposited with the CCDC.	2023-05-10 downloaded from the CCDC.
;
_cell_angle_alpha                73.666(2)
_cell_angle_beta                 84.633(2)
_cell_angle_gamma                68.645(2)
_cell_formula_units_Z            1
_cell_length_a                   11.2120(9)
_cell_length_b                   13.3082(11)
_cell_length_c                   19.7177(15)
_cell_measurement_reflns_used    999
_cell_measurement_temperature    100(2)
_cell_measurement_theta_max      27.0
_cell_measurement_theta_min      2.5
_cell_volume                     2629.4(4)
_computing_cell_refinement       'Bruker SAINT'
_computing_data_collection       'Bruker APEX'
_computing_data_reduction        'Bruker SAINT'
_computing_molecular_graphics    'SHELXL 5.1, XP (Sheldrick, 1994)'
_computing_publication_material  SHELXL-97
_computing_structure_refinement  'SHELXL-2018/3 (Sheldrick, 2018)'
_computing_structure_solution    'SHELXS-97 (Sheldrick, 2008)'
_diffrn_ambient_temperature      100(2)
_diffrn_measured_fraction_theta_full 0.997
_diffrn_measured_fraction_theta_max 0.997
_diffrn_measurement_device_type  'Bruker SMART APEX'
_diffrn_measurement_method       \w
_diffrn_radiation_type           MoK\a
_diffrn_radiation_wavelength     0.71073
_diffrn_reflns_av_R_equivalents  0.0482
_diffrn_reflns_av_unetI/netI     0.0651
_diffrn_reflns_Laue_measured_fraction_full 0.997
_diffrn_reflns_Laue_measured_fraction_max 0.997
_diffrn_reflns_limit_h_max       13
_diffrn_reflns_limit_h_min       -13
_diffrn_reflns_limit_k_max       16
_diffrn_reflns_limit_k_min       -16
_diffrn_reflns_limit_l_max       23
_diffrn_reflns_limit_l_min       -23
_diffrn_reflns_number            27724
_diffrn_reflns_point_group_measured_fraction_full 0.997
_diffrn_reflns_point_group_measured_fraction_max 0.997
_diffrn_reflns_theta_full        25.242
_diffrn_reflns_theta_max         25.498
_diffrn_reflns_theta_min         2.920
_diffrn_source                   'fine-focus sealed tube'
_exptl_absorpt_coefficient_mu    0.704
_exptl_absorpt_correction_T_max  0.932
_exptl_absorpt_correction_T_min  0.905
_exptl_absorpt_correction_type   multi-scan
_exptl_absorpt_process_details   'SADABS 2.05 (Sheldrick, 2002)'
_exptl_crystal_colour            'dark red'
_exptl_crystal_density_diffrn    1.289
_exptl_crystal_description       block
_exptl_crystal_F_000             1060
_exptl_crystal_size_max          0.160
_exptl_crystal_size_mid          0.120
_exptl_crystal_size_min          0.100
_refine_diff_density_max         1.057
_refine_diff_density_min         -0.650
_refine_diff_density_rms         0.089
_refine_ls_extinction_method     none
_refine_ls_goodness_of_fit_ref   1.059
_refine_ls_hydrogen_treatment    constr
_refine_ls_matrix_type           full
_refine_ls_number_parameters     647
_refine_ls_number_reflns         9766
_refine_ls_number_restraints     0
_refine_ls_restrained_S_all      1.059
_refine_ls_R_factor_all          0.1071
_refine_ls_R_factor_gt           0.0712
_refine_ls_shift/su_max          0.001
_refine_ls_shift/su_mean         0.000
_refine_ls_structure_factor_coef Fsqd
_refine_ls_weighting_details
'w=1/[\s^2^(Fo^2^)+(0.1057P)^2^+4.9497P] where P=(Fo^2^+2Fc^2^)/3'
_refine_ls_weighting_scheme      calc
_refine_ls_wR_factor_gt          0.1985
_refine_ls_wR_factor_ref         0.2202
_reflns_Friedel_coverage         0.000
_reflns_number_gt                6506
_reflns_number_total             9766
_reflns_threshold_expression     'I > 2\s(I)'
_cod_data_source_file            d3sc00858d2.cif
_cod_data_source_block           shelx_CCDC1
_cod_depositor_comments
'Adding full bibliography for 1569118--1569120.cif.'
_cod_original_formula_sum        'C120 H100 Cl4 N12 O2 Zn2.40'
_cod_database_code               1569119
_shelx_shelxl_version_number     2018/3
_shelx_space_group_comment
;
The symmetry employed for this shelxl refinement is uniquely defined
by the following loop, which should always be used as a source of
symmetry information in preference to the above space-group names.
They are only intended as comments.
;
_shelx_estimated_absorpt_t_min   0.896
_shelx_estimated_absorpt_t_max   0.933
_shelx_res_file
;
TITL 3nova_0m_a.res in P-1
    shelx.res
    created by SHELXL-2018/3 at 00:03:38 on 24-Aug-2022
CELL  0.71073  11.2120  13.3082  19.7177   73.666   84.633   68.645
ZERR     1.00   0.0009   0.0011   0.0015    0.002    0.002    0.002
LATT   1
SFAC  C    H    N    O    ZN   CL
UNIT  120 100 12 2 2.4 4
MERG   2
OMIT    -3.00  51.00
omit  -1   0   2
omit    -1   1   2
omit     0   1   2
omit    -1  -1   1
omit    -1   0   1
omit     0   0   2
omit     1   1   1
omit     0  -1   1
omit     0   0   4
omit     1   0   1
omit     1   1   2
omit    -2  -2   1
omit 2   3   4
omit    -2  -1   2
FMAP   2
PLAN   10
BOND   $H
L.S. 20
TEMP -173.0
SIZE 0.16 0.12 0.10 ! red block
ACTA
ABIN
twin
WGHT    0.105700    4.949700
BASF   0.30057
FVAR       0.30751   0.80663
ZN1   5    0.341123    0.515986    0.422801    11.00000    0.04621    0.05044 =
         0.01821    0.00713   -0.00365   -0.01626
ZN2   5    0.500000    0.500000    0.000000   -21.00000    0.02320    0.02327 =
         0.02095    0.00488    0.00093   -0.00581
CL1   6    0.531057    0.247943    0.278277    11.00000    0.10377    0.04937 =
         0.02451   -0.00228    0.00115   -0.03333
CL2   6    0.513057    0.063248    0.070232    11.00000    0.04877    0.03553 =
         0.04383   -0.00860   -0.00769   -0.00720
O1    4    0.093737    0.709908    0.143845    11.00000    0.03951    0.03376 =
         0.02056    0.00396   -0.00884   -0.00866
N1    3    0.418464    0.541359    0.324582    11.00000    0.03520    0.04223 =
         0.02123    0.00194   -0.00770   -0.01233
N2    3    0.509957    0.392167    0.464094    11.00000    0.05101    0.03753 =
         0.02388    0.00078   -0.00960   -0.01551
N3    3    0.260096    0.483902    0.519743    11.00000    0.05764    0.04238 =
         0.02485   -0.00146    0.00282   -0.02111
N4    3    0.173201    0.637698    0.380637    11.00000    0.04565    0.05019 =
         0.01736    0.00181   -0.00147   -0.02143
N5    3    0.367541    0.444515    0.062687    11.00000    0.02491    0.02735 =
         0.01857    0.00082   -0.00069   -0.00705
N6    3    0.359709    0.649333   -0.041742    11.00000    0.02697    0.02878 =
         0.01764    0.00217    0.00123   -0.01092
C1    1    0.361847    0.616761    0.262191    11.00000    0.03329    0.04677 =
         0.01948    0.00235   -0.00516   -0.01451
C2    1    0.448891    0.594604    0.204313    11.00000    0.03542    0.06029 =
         0.02108    0.00096   -0.00419   -0.01882
C3    1    0.559128    0.508516    0.232970    11.00000    0.03786    0.05852 =
         0.02748   -0.00060   -0.00510   -0.00938
C4    1    0.539295    0.477231    0.308075    11.00000    0.04008    0.05046 =
         0.02682    0.00000   -0.00186   -0.01640
C5    1    0.631021    0.394204    0.355086    11.00000    0.04051    0.05326 =
         0.03452   -0.00629   -0.00387   -0.01251
AFIX  43
H5A   2    0.712013    0.360868    0.335826    11.00000   -1.20000
AFIX   0
C6    1    0.617713    0.354369    0.427134    11.00000    0.04614    0.04075 =
         0.03019    0.00176   -0.01158   -0.01447
C7    1    0.716856    0.262316    0.474366    11.00000    0.05429    0.05036 =
         0.03560    0.00519   -0.01482   -0.01680
C8    1    0.662573    0.248724    0.539340    11.00000    0.06286    0.04118 =
         0.03421    0.00154   -0.01843   -0.01794
C9    1    0.536259    0.329180    0.532551    11.00000    0.06382    0.03489 =
         0.02268    0.00109   -0.00539   -0.02230
C10   1    0.446588    0.339146    0.587327    11.00000    0.07838    0.03034 =
         0.02596    0.00316   -0.00779   -0.01837
AFIX  43
H10A  2    0.476317    0.292755    0.633189    11.00000   -1.20000
AFIX   0
C11   1    0.320733    0.408724    0.581606    11.00000    0.07487    0.03984 =
         0.02297    0.00296    0.00108   -0.02811
C12   1    0.228233    0.414188    0.639006    11.00000    0.09441    0.03944 =
         0.02613    0.00299    0.00688   -0.02501
C13   1    0.112814    0.491897    0.611670    11.00000    0.07514    0.05223 =
         0.03111   -0.00377    0.01725   -0.02657
C14   1    0.136153    0.535841    0.536535    11.00000    0.06333    0.04322 =
         0.02564   -0.00188    0.00604   -0.02404
C15   1    0.046668    0.620473    0.489736    11.00000    0.04749    0.06073 =
         0.03195   -0.00417    0.00908   -0.02189
AFIX  43
H15A  2   -0.036920    0.648503    0.507833    11.00000   -1.20000
AFIX   0
C16   1    0.063911    0.670552    0.418331    11.00000    0.04854    0.05639 =
         0.02251   -0.00120    0.00162   -0.01895
C17   1   -0.032713    0.765138    0.375858    11.00000    0.03711    0.06785 =
         0.03392   -0.00780    0.00564   -0.01387
C18   1    0.019486    0.793782    0.310820    11.00000    0.04356    0.06211 =
         0.01931    0.00053   -0.00196   -0.01615
C19   1    0.149825    0.710821    0.313749    11.00000    0.03612    0.05540 =
         0.01890    0.00190   -0.00644   -0.01771
C20   1    0.238405    0.700028    0.258475    11.00000    0.03587    0.05072 =
         0.01781    0.00251   -0.00683   -0.01785
C21   1    0.432770    0.641261    0.125795    11.00000    0.03535    0.06823 =
         0.01950    0.00356   -0.00195   -0.01277
AFIX  23
H21A  2    0.467315    0.578812    0.103226    11.00000   -1.20000
H21B  2    0.340246    0.678240    0.114171    11.00000   -1.20000
AFIX   0
C22   1    0.495950    0.720708    0.096675    11.00000    0.10714    0.09071 =
         0.05918    0.00047   -0.01924   -0.04959
AFIX 137
H22A  2    0.486542    0.744565    0.045094    11.00000   -1.50000
H22B  2    0.587094    0.685635    0.109468    11.00000   -1.50000
H22C  2    0.457173    0.785943    0.115663    11.00000   -1.50000
AFIX   0
C23   1    0.675413    0.452756    0.194366    11.00000    0.04883    0.06891 =
         0.03694    0.00777   -0.00580   -0.00836
AFIX 137
H23A  2    0.649417    0.452407    0.148367    11.00000   -1.50000
H23B  2    0.718275    0.375579    0.222243    11.00000   -1.50000
H23C  2    0.734395    0.493913    0.187306    11.00000   -1.50000
AFIX   0
C24   1    0.844468    0.195120    0.453568    11.00000    0.04637    0.06467 =
         0.04848    0.00162   -0.01454   -0.00202
AFIX  23
H24A  2    0.908099    0.179128    0.490365    11.00000   -1.20000
H24B  2    0.869607    0.238812    0.408828    11.00000   -1.20000
AFIX   0
C25   1    0.845904    0.086348    0.443868    11.00000    0.08743    0.08609 =
         0.08606   -0.02841   -0.01810    0.00228
AFIX 137
H25A  2    0.931550    0.044608    0.429476    11.00000   -1.50000
H25B  2    0.783289    0.101894    0.407306    11.00000   -1.50000
H25C  2    0.823809    0.041800    0.488513    11.00000   -1.50000
AFIX   0
C26   1    0.722308    0.159779    0.605827    11.00000    0.07235    0.05063 =
         0.03533    0.01564   -0.01842   -0.01929
AFIX 137
H26A  2    0.815323    0.141267    0.604657    11.00000   -1.50000
H26B  2    0.702901    0.092575    0.608816    11.00000   -1.50000
H26C  2    0.687450    0.187798    0.647137    11.00000   -1.50000
AFIX   0
C27   1    0.255330    0.343458    0.713619    11.00000    0.11044    0.05444 =
         0.02501    0.01001    0.00976   -0.02436
AFIX 137
H27A  2    0.181979    0.370660    0.743225    11.00000   -1.50000
H27B  2    0.331702    0.347836    0.731222    11.00000   -1.50000
H27C  2    0.270054    0.265558    0.715276    11.00000   -1.50000
AFIX   0
C28   1   -0.009920    0.524907    0.648533    11.00000    0.09496    0.06150 =
         0.03926   -0.01009    0.01993   -0.03064
AFIX  23
H28A  2   -0.020303    0.457001    0.681186    11.00000   -1.20000
H28B  2   -0.080471    0.558181    0.613260    11.00000   -1.20000
AFIX   0
C29   1   -0.021648    0.607693    0.690075    11.00000    0.11233    0.13905 =
         0.07306   -0.04381    0.03862   -0.06567
AFIX 137
H29A  2   -0.106096    0.627369    0.712117    11.00000   -1.50000
H29B  2   -0.011539    0.675322    0.658221    11.00000   -1.50000
H29C  2    0.045086    0.574070    0.726827    11.00000   -1.50000
AFIX   0
C30   1   -0.164745    0.822157    0.400371    11.00000    0.05161    0.09531 =
         0.03398   -0.00146   -0.00015   -0.00843
AFIX 137
H30A  2   -0.216892    0.876878    0.359856    11.00000   -1.50000
H30B  2   -0.159133    0.860523    0.435061    11.00000   -1.50000
H30C  2   -0.204372    0.766280    0.422192    11.00000   -1.50000
AFIX   0
C31   1   -0.050931    0.898055    0.254541    11.00000    0.04105    0.06834 =
         0.02866   -0.00429   -0.00717   -0.00319
AFIX  23
H31A  2   -0.143156    0.908850    0.255356    11.00000   -1.20000
H31B  2   -0.017414    0.889521    0.207426    11.00000   -1.20000
AFIX   0
C32   1   -0.033230    1.004130    0.267714    11.00000    0.11960    0.11205 =
         0.05884    0.00390   -0.02552    0.01337
AFIX 137
H32A  2    0.057882    0.994358    0.265335    11.00000   -1.50000
H32B  2   -0.065934    1.012125    0.314503    11.00000   -1.50000
H32C  2   -0.080711    1.071397    0.231439    11.00000   -1.50000
AFIX   0
C33   1    0.206614    0.793263    0.191027    11.00000    0.03230    0.05366 =
         0.01724    0.00233   -0.00401   -0.01612
C34   1    0.251123    0.880427    0.184064    11.00000    0.04762    0.07243 =
         0.02819    0.00528   -0.01522   -0.03026
AFIX  43
H34A  2    0.300183    0.878696    0.221414    11.00000   -1.20000
AFIX   0
C35   1    0.225715    0.969981    0.123905    11.00000    0.05633    0.06582 =
         0.03709    0.00765   -0.01093   -0.03937
AFIX  43
H35A  2    0.255847    1.029353    0.120392    11.00000   -1.20000
AFIX   0
C36   1    0.156211    0.971389    0.069456    11.00000    0.03408    0.05046 =
         0.02481    0.00918   -0.00768   -0.01497
AFIX  43
H36A  2    0.140844    1.030978    0.027443    11.00000   -1.20000
AFIX   0
C37   1    0.108736    0.887512    0.075165    11.00000    0.03401    0.04280 =
         0.01933    0.00002   -0.00602   -0.00961
AFIX  43
H37A  2    0.059031    0.890521    0.037684    11.00000   -1.20000
AFIX   0
C38   1    0.133250    0.798555    0.135505    11.00000    0.02452    0.04007 =
         0.01975    0.00175   -0.00047   -0.00700
C51   1    0.240532    0.506671    0.067956    11.00000    0.02285    0.03130 =
         0.01844   -0.00068    0.00175   -0.00862
C52   1    0.182707    0.441053    0.121969    11.00000    0.02476    0.03675 =
         0.02792   -0.00190    0.00481   -0.01228
AFIX  43
H52A  2    0.095925    0.464453    0.136441    11.00000   -1.20000
AFIX   0
C53   1    0.275118    0.339161    0.148613    11.00000    0.03010    0.03027 =
         0.02774    0.00278    0.00548   -0.01104
AFIX  43
H53A  2    0.264709    0.278308    0.184569    11.00000   -1.20000
AFIX   0
C54   1    0.391986    0.341895    0.111433    11.00000    0.03035    0.02817 =
         0.01967    0.00062    0.00500   -0.01090
C55   1    0.510965    0.257224    0.124474    11.00000    0.03076    0.02385 =
         0.02153    0.00071    0.00249   -0.01147
C56   1    0.373797    0.737848   -0.093247    11.00000    0.02895    0.02751 =
         0.01784    0.00309   -0.00303   -0.00995
C57   1    0.250866    0.825401   -0.110508    11.00000    0.03198    0.02887 =
         0.02164    0.00484   -0.00240   -0.00708
AFIX  43
H57A  2    0.234152    0.895850   -0.144323    11.00000   -1.20000
AFIX   0
C58   1    0.163383    0.788572   -0.069505    11.00000    0.02341    0.03215 =
         0.02280    0.00297    0.00067   -0.00539
AFIX  43
H58A  2    0.073598    0.827777   -0.069798    11.00000   -1.20000
AFIX   0
C59   1    0.232026    0.678821   -0.025379    11.00000    0.02315    0.02725 =
         0.01906    0.00001   -0.00222   -0.00500
C60   1    0.176820    0.615511    0.027438    11.00000    0.02876    0.02673 =
         0.01837   -0.00140    0.00070   -0.01094
C61   1    0.517651    0.149316    0.178063    11.00000    0.02688    0.02954 =
         0.02450    0.00418    0.00301   -0.00839
C62   1    0.518242    0.056808    0.159277    11.00000    0.02765    0.03166 =
         0.03288    0.00141   -0.00148   -0.00394
C63   1    0.526663   -0.042922    0.209178    11.00000    0.03921    0.02582 =
         0.05988    0.00134   -0.00594   -0.01414
AFIX  43
H63A  2    0.528068   -0.105630    0.194665    11.00000   -1.20000
AFIX   0
C64   1    0.532944   -0.050016    0.279746    11.00000    0.04766    0.03449 =
         0.05332    0.01486    0.00180   -0.01158
AFIX  43
H64A  2    0.537714   -0.117727    0.314127    11.00000   -1.20000
AFIX   0
C65   1    0.532386    0.038454    0.300556    11.00000    0.05594    0.04635 =
         0.02927    0.00872    0.00593   -0.01724
AFIX  43
H65A  2    0.536303    0.032698    0.349486    11.00000   -1.20000
AFIX   0
C66   1    0.526141    0.137679    0.251071    11.00000    0.04456    0.03350 =
         0.02681    0.00475    0.00103   -0.01195
C67   1    0.038696    0.669034    0.041903    11.00000    0.02377    0.02762 =
         0.02090    0.00447   -0.00160   -0.00825
C68   1   -0.057437    0.673284    0.000016    11.00000    0.02656    0.03360 =
         0.02967   -0.00360   -0.00120   -0.00850
AFIX  43
H68A  2   -0.034631    0.637719   -0.037275    11.00000   -1.20000
AFIX   0
C69   1   -0.185057    0.728094    0.011610    11.00000    0.02648    0.04161 =
         0.03851    0.00022   -0.00120   -0.01507
AFIX  43
H69A  2   -0.249064    0.729536   -0.017373    11.00000   -1.20000
AFIX   0
C70   1   -0.219755    0.780740    0.065182    11.00000    0.02512    0.02982 =
         0.04082    0.00252    0.00496   -0.00685
AFIX  43
H70A  2   -0.307553    0.819896    0.072368    11.00000   -1.20000
AFIX   0
C71   1   -0.126961    0.776697    0.108551    11.00000    0.04064    0.03313 =
         0.03044   -0.00271    0.00853   -0.00908
AFIX  43
H71A  2   -0.150595    0.812118    0.145898    11.00000   -1.20000
AFIX   0
C72   1    0.000492    0.720520    0.096885    11.00000    0.03045    0.02833 =
         0.01847    0.00611   -0.00470   -0.01008

HKLF    4




REM  3nova_0m_a.res in P-1
REM wR2 = 0.2202, GooF = S = 1.059, Restrained GooF = 1.059 for all data
REM R1 = 0.0712 for 6506 Fo > 4sig(Fo) and 0.1071 for all 9766 data
REM 647 parameters refined using 0 restraints

END

WGHT      0.1045      5.1256

REM Highest difference peak  1.057,  deepest hole -0.650,  1-sigma level  0.089
Q1    1   0.2586  0.5630  0.4339  11.00000  0.05    1.06
Q2    1   0.3039  0.3891  0.3884  11.00000  0.05    0.97
Q3    1   0.7721  0.4932  0.1535  11.00000  0.05    0.76
Q4    1  -0.1805  0.9037  0.4271  11.00000  0.05    0.71
Q5    1   0.4424  0.2866  0.2879  11.00000  0.05    0.59
Q6    1   0.6974  0.4803  0.1453  11.00000  0.05    0.58
Q7    1   0.7078  0.5294  0.1985  11.00000  0.05    0.53
Q8    1  -0.0950  1.1355  0.2647  11.00000  0.05    0.51
Q9    1   0.4388  0.6727  0.2057  11.00000  0.05    0.49
Q10   1   0.5499  0.5926  0.2300  11.00000  0.05    0.45
;
_shelx_res_checksum              40742
_shelx_fab_file
;
    2    0    0      3.03      0.00
    3    0    0     -2.53      0.00
    4    0    0     12.54      0.00
    5    0    0    -13.11      0.00
    6    0    0      4.13      0.00
    7    0    0      0.30      0.00
    8    0    0     -1.02      0.00
    9    0    0     -4.26      0.00
   10    0    0      3.08      0.00
   11    0    0     -0.48      0.00
   12    0    0      0.18      0.00
  -12    1    0      1.69      0.00
  -11    1    0      2.14      0.00
  -10    1    0      0.99      0.00
   -9    1    0     -4.06      0.00
   -8    1    0      1.79      0.00
   -7    1    0     -1.49      0.00
   -6    1    0     -2.17      0.00
   -5    1    0     -2.64      0.00
   -4    1    0      7.60      0.00
   -3    1    0    -29.12      0.00
   -2    1    0    -12.65      0.00
   -1    1    0     23.52      0.00
    2    1    0     17.45      0.00
    3    1    0     -0.61      0.00
    4    1    0      8.63      0.00
    5    1    0     -5.34      0.00
    6    1    0      8.97      0.00
    7    1    0     -6.24      0.00
    8    1    0     -2.13      0.00
    9    1    0      1.15      0.00
   10    1    0      3.94      0.00
   11    1    0     -1.78      0.00
   12    1    0     -0.12      0.00
  -11    2    0      0.19      0.00
  -10    2    0      0.18      0.00
   -9    2    0      1.33      0.00
   -8    2    0      1.34      0.00
   -7    2    0     -2.44      0.00
   -6    2    0      1.05      0.00
   -5    2    0      7.20      0.00
   -4    2    0     -3.25      0.00
   -3    2    0    -19.05      0.00
   -2    2    0     11.31      0.00
   -1    2    0     12.46      0.00
    0    2    0    -24.70      0.00
    1    2    0    -55.63      0.00
    2    2    0     -2.95      0.00
    3    2    0    -21.48      0.00
    4    2    0      5.37      0.00
    5    2    0     -0.74      0.00
    6    2    0      1.53      0.00
    7    2    0     -9.54      0.00
    8    2    0     -0.38      0.00
    9    2    0      1.92      0.00
   10    2    0      1.29      0.00
   11    2    0     -1.52      0.00
   12    2    0     -0.18      0.00
   13    2    0     -0.34      0.00
  -11    3    0     -1.11      0.00
  -10    3    0     -0.50      0.00
   -9    3    0      0.54      0.00
   -8    3    0     -1.14      0.00
   -7    3    0      3.48      0.00
   -6    3    0      5.83      0.00
   -5    3    0      5.10      0.00
   -4    3    0     -8.85      0.00
   -3    3    0      4.70      0.00
   -2    3    0     22.42      0.00
   -1    3    0      0.14      0.00
    0    3    0    -21.61      0.00
    1    3    0    -13.69      0.00
    2    3    0     -9.56      0.00
    3    3    0     -3.93      0.00
    4    3    0      9.52      0.00
    5    3    0      0.58      0.00
    6    3    0     -1.24      0.00
    7    3    0     -3.40      0.00
    8    3    0      2.60      0.00
    9    3    0      1.71      0.00
   10    3    0     -1.61      0.00
   11    3    0     -1.73      0.00
   12    3    0     -0.35      0.00
   13    3    0      0.17      0.00
  -10    4    0     -1.21      0.00
   -9    4    0     -2.40      0.00
   -8    4    0     -2.31      0.00
   -7    4    0      4.24      0.00
   -6    4    0      2.31      0.00
   -5    4    0     -2.22      0.00
   -4    4    0     -6.12      0.00
   -3    4    0     14.07      0.00
   -2    4    0     10.18      0.00
   -1    4    0     -6.73      0.00
    0    4    0     -1.79      0.00
    1    4    0      1.03      0.00
    2    4    0     -1.94      0.00
    3    4    0     11.96      0.00
    4    4    0      5.54      0.00
    5    4    0      3.29      0.00
    6    4    0     -0.90      0.00
    7    4    0      5.80      0.00
    8    4    0      7.71      0.00
    9    4    0      2.56      0.00
   10    4    0     -2.60      0.00
   11    4    0      0.45      0.00
   12    4    0      0.51      0.00
   13    4    0      0.48      0.00
  -10    5    0     -1.18      0.00
   -9    5    0     -1.25      0.00
   -8    5    0      0.44      0.00
   -7    5    0      2.06      0.00
   -6    5    0     -4.03      0.00
   -5    5    0     -7.94      0.00
   -4    5    0      0.24      0.00
   -3    5    0      9.51      0.00
   -2    5    0     -4.64      0.00
   -1    5    0     -7.07      0.00
    0    5    0      4.78      0.00
    1    5    0     -3.00      0.00
    2    5    0      3.45      0.00
    3    5    0      6.77      0.00
    4    5    0     -2.48      0.00
    5    5    0     -6.13      0.00
    6    5    0     -7.78      0.00
    7    5    0      7.93      0.00
    8    5    0      3.55      0.00
    9    5    0     -0.50      0.00
   10    5    0     -1.18      0.00
   11    5    0      2.07      0.00
   12    5    0     -0.73      0.00
   13    5    0      0.00      0.00
   -9    6    0      1.18      0.00
   -8    6    0      3.19      0.00
   -7    6    0     -0.06      0.00
   -6    6    0     -4.77      0.00
   -5    6    0     -2.48      0.00
   -4    6    0      6.39      0.00
   -3    6    0      0.11      0.00
   -2    6    0     -7.10      0.00
   -1    6    0     -1.27      0.00
    0    6    0      2.24      0.00
    1    6    0     -5.48      0.00
    2    6    0      9.57      0.00
    3    6    0      2.91      0.00
    4    6    0     -3.81      0.00
    5    6    0    -10.73      0.00
    6    6    0     -3.62      0.00
    7    6    0      3.92      0.00
    8    6    0     -6.48      0.00
    9    6    0     -3.10      0.00
   10    6    0     -0.70      0.00
   11    6    0      1.02      0.00
   12    6    0     -1.10      0.00
   13    6    0      0.07      0.00
   -9    7    0      1.84      0.00
   -8    7    0      1.87      0.00
   -7    7    0     -2.58      0.00
   -6    7    0     -1.26      0.00
   -5    7    0      2.83      0.00
   -4    7    0      2.88      0.00
   -3    7    0     -3.77      0.00
   -2    7    0     -0.12      0.00
   -1    7    0      0.67      0.00
    0    7    0      0.45      0.00
    1    7    0      1.70      0.00
    2    7    0     12.13      0.00
    3    7    0     -1.40      0.00
    4    7    0     -0.70      0.00
    5    7    0     -2.41      0.00
    6    7    0      8.48      0.00
    7    7    0      1.70      0.00
    8    7    0     -5.61      0.00
    9    7    0     -0.88      0.00
   10    7    0     -1.09      0.00
   11    7    0      0.65      0.00
   12    7    0     -0.37      0.00
   13    7    0      0.45      0.00
   -8    8    0     -0.84      0.00
   -7    8    0     -2.68      0.00
   -6    8    0      1.78      0.00
   -5    8    0      2.27      0.00
   -4    8    0     -0.92      0.00
   -3    8    0     -1.98      0.00
   -2    8    0     -1.11      0.00
   -1    8    0     -4.33      0.00
    0    8    0      0.52      0.00
    1    8    0      2.95      0.00
    2    8    0      4.25      0.00
    3    8    0     -4.93      0.00
    4    8    0      2.11      0.00
    5    8    0      4.13      0.00
    6    8    0     11.54      0.00
    7    8    0     -1.44      0.00
    8    8    0     -1.48      0.00
    9    8    0      0.54      0.00
   10    8    0     -0.19      0.00
   11    8    0      1.36      0.00
   12    8    0     -0.01      0.00
   13    8    0      0.62      0.00
   -7    9    0     -0.94      0.00
   -6    9    0      2.15      0.00
   -5    9    0      0.29      0.00
   -4    9    0     -0.85      0.00
   -3    9    0     -0.36      0.00
   -2    9    0     -1.98      0.00
   -1    9    0     -2.64      0.00
    0    9    0      0.36      0.00
    1    9    0     -1.62      0.00
    2    9    0     -3.92      0.00
    3    9    0     -8.15      0.00
    4    9    0      0.52      0.00
    5    9    0      4.89      0.00
    6    9    0      4.47      0.00
    7    9    0     -5.36      0.00
    8    9    0      0.03      0.00
    9    9    0     -0.50      0.00
   10    9    0     -0.26      0.00
   11    9    0      0.96      0.00
   12    9    0      0.03      0.00
   13    9    0      0.22      0.00
   -6   10    0      1.92      0.00
   -5   10    0     -0.67      0.00
   -4   10    0     -0.01      0.00
   -3   10    0      0.00      0.00
   -2   10    0     -0.53      0.00
   -1   10    0      1.05      0.00
    0   10    0      3.40      0.00
    1   10    0      1.19      0.00
    2   10    0     -4.89      0.00
    3   10    0     -5.20      0.00
    4   10    0      2.62      0.00
    5   10    0      1.41      0.00
    6   10    0     -3.71      0.00
    7   10    0     -3.72      0.00
    8   10    0      0.49      0.00
    9   10    0     -0.36      0.00
   10   10    0      0.73      0.00
   11   10    0      0.37      0.00
   12   10    0     -1.31      0.00
   -5   11    0     -0.54      0.00
   -4   11    0      1.24      0.00
   -3   11    0     -0.90      0.00
   -2   11    0      0.02      0.00
   -1   11    0      3.73      0.00
    0   11    0      5.02      0.00
    1   11    0     -0.08      0.00
    2   11    0     -3.36      0.00
    3   11    0      2.91      0.00
    4   11    0      3.66      0.00
    5   11    0     -1.55      0.00
    6   11    0     -1.94      0.00
    7   11    0     -1.09      0.00
    8   11    0     -0.64      0.00
    9   11    0      2.23      0.00
   10   11    0      1.16      0.00
   11   11    0     -0.10      0.00
   12   11    0     -1.17      0.00
   -4   12    0     -0.92      0.00
   -3   12    0     -2.86      0.00
   -2   12    0      1.40      0.00
   -1   12    0      3.55      0.00
    0   12    0      0.09      0.00
    1   12    0     -3.88      0.00
    2   12    0     -0.03      0.00
    3   12    0      2.99      0.00
    4   12    0     -0.05      0.00
    5   12    0      0.15      0.00
    6   12    0      0.44      0.00
    7   12    0     -2.77      0.00
    8   12    0      1.46      0.00
    9   12    0      3.30      0.00
   10   12    0     -0.79      0.00
   11   12    0      1.08      0.00
   -2   13    0      2.51      0.00
   -1   13    0      0.64      0.00
    0   13    0     -2.80      0.00
    1   13    0     -2.51      0.00
    2   13    0      1.25      0.00
    3   13    0     -0.44      0.00
    4   13    0      0.87      0.00
    5   13    0      0.00      0.00
    6   13    0     -2.84      0.00
    7   13    0     -2.91      0.00
    8   13    0      2.31      0.00
    9   13    0     -0.28      0.00
   10   13    0     -1.45      0.00
   -1   14    0      0.10      0.00
    0   14    0     -1.40      0.00
    1   14    0     -0.27      0.00
    2   14    0      1.93      0.00
    3   14    0      0.97      0.00
    4   14    0      2.47      0.00
    5   14    0     -1.71      0.00
    6   14    0     -1.18      0.00
    7   14    0     -0.04      0.00
    8   14    0      1.03      0.00
    9   14    0     -0.87      0.00
    2   15    0      1.47      0.00
    3   15    0      0.27      0.00
    4   15    0      0.42      0.00
    5   15    0     -0.69      0.00
    6   15    0      1.34      0.00
    7   15    0      1.04      0.00
   -6  -15    1     -1.43      0.00
   -5  -15    1      0.55      0.00
   -4  -15    1      1.25      0.00
   -3  -15    1      1.93      0.00
   -9  -14    1      0.63      0.00
   -8  -14    1     -0.72      0.00
   -7  -14    1     -1.69      0.00
   -6  -14    1     -2.19      0.00
   -5  -14    1      0.76      0.00
   -4  -14    1     -0.82      0.00
   -3  -14    1      0.36      0.00
   -2  -14    1     -1.30      0.00
   -1  -14    1     -1.04      0.00
    0  -14    1      1.78      0.00
  -10  -13    1      1.37      0.00
   -9  -13    1      2.85      0.00
   -8  -13    1     -1.51      0.00
   -7  -13    1      0.01      0.00
   -6  -13    1      0.13      0.00
   -5  -13    1     -0.25      0.00
   -4  -13    1     -0.92      0.00
   -3  -13    1      0.26      0.00
   -2  -13    1     -3.09      0.00
   -1  -13    1     -1.06      0.00
    0  -13    1      2.80      0.00
    1  -13    1      1.29      0.00
    2  -13    1     -2.15      0.00
  -11  -12    1     -1.30      0.00
  -10  -12    1      2.69      0.00
   -9  -12    1      0.14      0.00
   -8  -12    1     -1.85      0.00
   -7  -12    1      1.37      0.00
   -6  -12    1     -0.68      0.00
   -5  -12    1      1.31      0.00
   -4  -12    1      2.93      0.00
   -3  -12    1     -1.45      0.00
   -2  -12    1     -2.56      0.00
   -1  -12    1      2.93      0.00
    0  -12    1      4.01      0.00
    1  -12    1     -0.45      0.00
    2  -12    1     -2.52      0.00
    3  -12    1      0.89      0.00
    4  -12    1      0.35      0.00
  -12  -11    1     -0.54      0.00
  -11  -11    1     -0.64      0.00
  -10  -11    1      0.32      0.00
   -9  -11    1     -2.02      0.00
   -8  -11    1     -1.64      0.00
   -7  -11    1     -2.03      0.00
   -6  -11    1      0.15      0.00
   -5  -11    1      4.28      0.00
   -4  -11    1     -0.84      0.00
   -3  -11    1     -5.27      0.00
   -2  -11    1      0.54      0.00
   -1  -11    1      3.18      0.00
    0  -11    1      0.39      0.00
    1  -11    1     -1.71      0.00
    2  -11    1     -0.78      0.00
    3  -11    1      1.42      0.00
    4  -11    1     -0.14      0.00
    5  -11    1      1.67      0.00
  -12  -10    1      0.44      0.00
  -11  -10    1     -0.51      0.00
  -10  -10    1     -1.02      0.00
   -9  -10    1     -1.08      0.00
   -8  -10    1     -3.73      0.00
   -7  -10    1      0.34      0.00
   -6  -10    1      5.95      0.00
   -5  -10    1      2.31      0.00
   -4  -10    1     -6.08      0.00
   -3  -10    1     -3.21      0.00
   -2  -10    1      0.54      0.00
   -1  -10    1     -0.53      0.00
    0  -10    1     -2.08      0.00
    1  -10    1     -2.31      0.00
    2  -10    1     -2.14      0.00
    3  -10    1     -0.96      0.00
    4  -10    1      0.07      0.00
    5  -10    1      2.07      0.00
    6  -10    1     -0.49      0.00
  -12   -9    1      0.97      0.00
  -11   -9    1      0.46      0.00
  -10   -9    1      0.19      0.00
   -9   -9    1     -1.40      0.00
   -8   -9    1     -3.60      0.00
   -7   -9    1      7.02      0.00
   -6   -9    1      4.34      0.00
   -5   -9    1     -0.13      0.00
   -4   -9    1     -3.14      0.00
   -3   -9    1      3.13      0.00
   -2   -9    1      2.59      0.00
   -1   -9    1      2.04      0.00
    0   -9    1     -2.45      0.00
    1   -9    1     -3.22      0.00
    2   -9    1     -2.84      0.00
    3   -9    1     -0.80      0.00
    4   -9    1      1.79      0.00
    5   -9    1      0.98      0.00
    6   -9    1     -2.71      0.00
    7   -9    1     -1.31      0.00
  -13   -8    1     -0.71      0.00
  -12   -8    1      1.14      0.00
  -11   -8    1      0.20      0.00
  -10   -8    1      0.06      0.00
   -9   -8    1     -2.14      0.00
   -8   -8    1      0.36      0.00
   -7   -8    1      7.15      0.00
   -6   -8    1     -3.48      0.00
   -5   -8    1     -1.78      0.00
   -4   -8    1     -2.86      0.00
   -3   -8    1      7.61      0.00
   -2   -8    1      5.61      0.00
   -1   -8    1      4.33      0.00
    0   -8    1     -0.58      0.00
    1   -8    1      0.71      0.00
    2   -8    1     -1.49      0.00
    3   -8    1      1.41      0.00
    4   -8    1      3.07      0.00
    5   -8    1     -1.07      0.00
    6   -8    1     -3.15      0.00
    7   -8    1      1.06      0.00
    8   -8    1      1.71      0.00
  -13   -7    1     -0.38      0.00
  -12   -7    1      1.16      0.00
  -11   -7    1     -0.96      0.00
  -10   -7    1     -1.24      0.00
   -9   -7    1     -2.74      0.00
   -8   -7    1      3.59      0.00
   -7   -7    1      1.06      0.00
   -6   -7    1     -9.32      0.00
   -5   -7    1     -4.67      0.00
   -4   -7    1     -4.21      0.00
   -3   -7    1      6.41      0.00
   -2   -7    1     -2.65      0.00
   -1   -7    1      0.86      0.00
    0   -7    1     -0.33      0.00
    1   -7    1     -0.77      0.00
    2   -7    1      0.08      0.00
    3   -7    1      7.36      0.00
    4   -7    1      1.70      0.00
    5   -7    1     -4.50      0.00
    6   -7    1     -1.94      0.00
    7   -7    1      3.14      0.00
    8   -7    1      1.31      0.00
    9   -7    1     -0.25      0.00
  -13   -6    1     -0.41      0.00
  -12   -6    1      1.12      0.00
  -11   -6    1     -1.41      0.00
  -10   -6    1     -1.04      0.00
   -9   -6    1      1.60      0.00
   -8   -6    1      8.20      0.00
   -7   -6    1     -3.35      0.00
   -6   -6    1     -6.25      0.00
   -5   -6    1     -1.93      0.00
   -4   -6    1     -0.99      0.00
   -3   -6    1      1.76      0.00
   -2   -6    1     -7.48      0.00
   -1   -6    1      2.75      0.00
    0   -6    1     -5.45      0.00
    1   -6    1     -4.38      0.00
    2   -6    1      6.39      0.00
    3   -6    1      6.02      0.00
    4   -6    1     -6.39      0.00
    5   -6    1     -4.45      0.00
    6   -6    1      1.79      0.00
    7   -6    1      1.90      0.00
    8   -6    1     -1.52      0.00
    9   -6    1     -1.52      0.00
  -13   -5    1      0.67      0.00
  -12   -5    1      1.18      0.00
  -11   -5    1     -2.55      0.00
  -10   -5    1      0.44      0.00
   -9   -5    1      5.60      0.00
   -8   -5    1      6.57      0.00
   -7   -5    1     -3.16      0.00
   -6   -5    1      4.85      0.00
   -5   -5    1      5.12      0.00
   -4   -5    1      5.97      0.00
   -3   -5    1     -0.22      0.00
   -2   -5    1     -4.25      0.00
   -1   -5    1      0.31      0.00
    0   -5    1     -9.65      0.00
    1   -5    1      5.80      0.00
    2   -5    1     13.74      0.00
    3   -5    1     -2.95      0.00
    4   -5    1     -6.50      0.00
    5   -5    1      2.16      0.00
    6   -5    1      4.48      0.00
    7   -5    1     -0.72      0.00
    8   -5    1     -2.14      0.00
    9   -5    1     -1.72      0.00
   10   -5    1     -0.53      0.00
  -13   -4    1      0.86      0.00
  -12   -4    1     -0.27      0.00
  -11   -4    1     -1.97      0.00
  -10   -4    1      1.86      0.00
   -9   -4    1      2.05      0.00
   -8   -4    1     -2.97      0.00
   -7   -4    1     -5.15      0.00
   -6   -4    1      3.66      0.00
   -5   -4    1      5.87      0.00
   -4   -4    1      7.60      0.00
   -3   -4    1     -3.81      0.00
   -2   -4    1     -4.45      0.00
   -1   -4    1    -11.22      0.00
    0   -4    1     -6.75      0.00
    1   -4    1     15.45      0.00
    2   -4    1      5.82      0.00
    3   -4    1    -10.68      0.00
    4   -4    1      2.29      0.00
    5   -4    1      6.31      0.00
    6   -4    1      4.73      0.00
    7   -4    1     -0.79      0.00
    8   -4    1      1.02      0.00
    9   -4    1      0.05      0.00
   10   -4    1      0.07      0.00
  -13   -3    1     -0.11      0.00
  -12   -3    1     -1.03      0.00
  -11   -3    1      0.02      0.00
  -10   -3    1      1.68      0.00
   -9   -3    1     -0.47      0.00
   -8   -3    1     -6.96      0.00
   -7   -3    1     -5.68      0.00
   -6   -3    1     -3.28      0.00
   -5   -3    1      2.21      0.00
   -4   -3    1     -6.46      0.00
   -3   -3    1     -7.16      0.00
   -2   -3    1    -15.14      0.00
   -1   -3    1    -16.27      0.00
    0   -3    1      8.75      0.00
    1   -3    1     13.28      0.00
    2   -3    1    -15.45      0.00
    3   -3    1    -12.91      0.00
    4   -3    1      5.48      0.00
    5   -3    1      0.86      0.00
    6   -3    1     -0.63      0.00
    7   -3    1     -1.43      0.00
    8   -3    1      2.30      0.00
    9   -3    1      0.61      0.00
   10   -3    1      1.00      0.00
   11   -3    1      0.99      0.00
  -13   -2    1      0.22      0.00
  -12   -2    1     -0.34      0.00
  -11   -2    1      1.17      0.00
  -10   -2    1      1.17      0.00
   -9   -2    1     -0.15      0.00
   -8   -2    1     -4.69      0.00
   -7   -2    1      2.25      0.00
   -6   -2    1     -2.24      0.00
   -5   -2    1      3.27      0.00
   -4   -2    1     -7.88      0.00
   -3   -2    1      8.16      0.00
   -2   -2    1    -23.11      0.00
   -1   -2    1     26.30      0.00
    0   -2    1     32.76      0.00
    1   -2    1     -1.92      0.00
    2   -2    1    -30.26      0.00
    3   -2    1     -1.80      0.00
    4   -2    1      1.34      0.00
    5   -2    1     -5.04      0.00
    6   -2    1     -3.00      0.00
    7   -2    1     -0.54      0.00
    8   -2    1     -2.45      0.00
    9   -2    1     -0.90      0.00
   10   -2    1      2.44      0.00
   11   -2    1      2.59      0.00
  -12   -1    1     -0.77      0.00
  -11   -1    1      1.11      0.00
  -10   -1    1     -1.42      0.00
   -9   -1    1     -1.00      0.00
   -8   -1    1     -0.58      0.00
   -7   -1    1      6.57      0.00
   -6   -1    1     -5.66      0.00
   -5   -1    1      8.01      0.00
   -4   -1    1     -2.59      0.00
   -3   -1    1      7.55      0.00
   -2   -1    1    -11.61      0.00
   -1   -1    1     96.52      0.00
    0   -1    1     17.50      0.00
    1   -1    1     -4.82      0.00
    2   -1    1     -6.92      0.00
    3   -1    1     18.52      0.00
    4   -1    1     -7.95      0.00
    5   -1    1     -0.41      0.00
    6   -1    1      0.87      0.00
    7   -1    1     -0.05      0.00
    8   -1    1     -5.52      0.00
    9   -1    1      2.01      0.00
   10   -1    1      0.63      0.00
   11   -1    1     -0.56      0.00
   12   -1    1     -1.21      0.00
  -12    0    1      0.16      0.00
  -11    0    1      0.96      0.00
  -10    0    1     -3.05      0.00
   -9    0    1      1.26      0.00
   -8    0    1      0.06      0.00
   -7    0    1      1.33      0.00
   -6    0    1     -3.87      0.00
   -5    0    1     13.08      0.00
   -4    0    1    -17.18      0.00
   -3    0    1    -12.46      0.00
   -2    0    1      2.80      0.00
   -1    0    1     68.17      0.00
    1    0    1      5.51      0.00
    2    0    1      6.50      0.00
    3    0    1     18.84      0.00
    4    0    1     -4.99      0.00
    5    0    1     14.97      0.00
    6    0    1     -2.85      0.00
    7    0    1     -3.34      0.00
    8    0    1     -1.06      0.00
    9    0    1      6.60      0.00
   10    0    1     -2.62      0.00
   11    0    1     -2.16      0.00
   12    0    1     -2.10      0.00
  -12    1    1     -0.13      0.00
  -11    1    1      0.02      0.00
  -10    1    1      0.30      0.00
   -9    1    1      4.00      0.00
   -8    1    1     -2.95      0.00
   -7    1    1     -0.01      0.00
   -6    1    1      4.60      0.00
   -5    1    1      6.37      0.00
   -4    1    1    -19.96      0.00
   -3    1    1      7.06      0.00
   -2    1    1     13.00      0.00
   -1    1    1    -14.47      0.00
    1    1    1      6.64      0.00
    2    1    1    -32.38      0.00
    3    1    1      0.78      0.00
    4    1    1      0.14      0.00
    5    1    1     13.34      0.00
    6    1    1    -11.40      0.00
    7    1    1     -0.25      0.00
    8    1    1      3.01      0.00
    9    1    1      3.43      0.00
   10    1    1     -3.54      0.00
   11    1    1      0.60      0.00
   12    1    1     -0.87      0.00
  -11    2    1     -0.78      0.00
  -10    2    1      0.69      0.00
   -9    2    1      0.20      0.00
   -8    2    1     -1.14      0.00
   -7    2    1      5.14      0.00
   -6    2    1      4.45      0.00
   -5    2    1     -7.01      0.00
   -4    2    1     -3.10      0.00
   -3    2    1     26.98      0.00
   -2    2    1      8.47      0.00
   -1    2    1    -23.84      0.00
    0    2    1    -26.73      0.00
    1    2    1     11.93      0.00
    2    2    1    -28.27      0.00
    3    2    1     10.02      0.00
    4    2    1     -3.28      0.00
    5    2    1     -1.14      0.00
    6    2    1     -9.66      0.00
    7    2    1      6.02      0.00
    8    2    1      2.73      0.00
    9    2    1     -1.27      0.00
   10    2    1     -3.45      0.00
   11    2    1      0.25      0.00
   12    2    1     -0.03      0.00
   13    2    1      1.02      0.00
  -11    3    1      0.03      0.00
  -10    3    1     -1.70      0.00
   -9    3    1     -3.12      0.00
   -8    3    1      1.69      0.00
   -7    3    1      2.79      0.00
   -6    3    1     -1.15      0.00
   -5    3    1     -8.24      0.00
   -4    3    1      9.65      0.00
   -3    3    1     12.08      0.00
   -2    3    1     -6.60      0.00
   -1    3    1     -3.15      0.00
    0    3    1     14.76      0.00
    1    3    1     12.26      0.00
    2    3    1     15.32      0.00
    3    3    1     19.59      0.00
    4    3    1     -1.46      0.00
    5    3    1     -2.17      0.00
    6    3    1     -0.44      0.00
    7    3    1      8.81      0.00
    8    3    1      3.67      0.00
    9    3    1     -1.62      0.00
   10    3    1     -1.14      0.00
   11    3    1      0.25      0.00
   12    3    1      0.97      0.00
   13    3    1      0.45      0.00
  -11    4    1     -0.30      0.00
  -10    4    1     -0.93      0.00
   -9    4    1      0.02      0.00
   -8    4    1      2.19      0.00
   -7    4    1     -3.77      0.00
   -6    4    1     -6.26      0.00
   -5    4    1     -4.16      0.00
   -4    4    1      9.87      0.00
   -3    4    1     -4.87      0.00
   -2    4    1    -10.19      0.00
   -1    4    1      1.31      0.00
    0    4    1      3.42      0.00
    1    4    1      5.97      0.00
    2    4    1     20.36      0.00
    3    4    1      3.34      0.00
    4    4    1     -2.98      0.00
    5    4    1     -7.20      0.00
    6    4    1      2.67      0.00
    7    4    1      4.78      0.00
    8    4    1      0.50      0.00
    9    4    1     -1.69      0.00
   10    4    1      2.40      0.00
   11    4    1      0.46      0.00
   12    4    1      1.36      0.00
   13    4    1      0.57      0.00
  -10    5    1      0.85      0.00
   -9    5    1      2.88      0.00
   -8    5    1      2.00      0.00
   -7    5    1     -3.97      0.00
   -6    5    1     -3.58      0.00
   -5    5    1      2.79      0.00
   -4    5    1      2.98      0.00
   -3    5    1    -10.79      0.00
   -2    5    1     -4.24      0.00
   -1    5    1      0.86      0.00
    0    5    1     -6.07      0.00
    1    5    1      7.09      0.00
    2    5    1      8.77      0.00
    3    5    1     -4.15      0.00
    4    5    1     -6.99      0.00
    5    5    1     -7.24      0.00
    6    5    1      4.45      0.00
    7    5    1     -6.48      0.00
    8    5    1     -5.85      0.00
    9    5    1     -2.38      0.00
   10    5    1      1.55      0.00
   11    5    1     -1.44      0.00
   12    5    1      1.09      0.00
   13    5    1     -0.24      0.00
   -9    6    1      1.82      0.00
   -8    6    1     -0.77      0.00
   -7    6    1     -1.72      0.00
   -6    6    1      2.39      0.00
   -5    6    1      5.82      0.00
   -4    6    1     -2.62      0.00
   -3    6    1     -3.34      0.00
   -2    6    1      2.85      0.00
   -1    6    1     -1.05      0.00
    0    6    1     -4.01      0.00
    1    6    1     11.49      0.00
    2    6    1     -0.19      0.00
    3    6    1     -3.96      0.00
    4    6    1     -2.87      0.00
    5    6    1      8.52      0.00
    6    6    1      6.90      0.00
    7    6    1     -7.71      0.00
    8    6    1     -1.53      0.00
    9    6    1     -2.12      0.00
   10    6    1     -0.92      0.00
   11    6    1     -1.06      0.00
   12    6    1      1.41      0.00
   13    6    1     -0.48      0.00
   -9    7    1     -0.41      0.00
   -8    7    1     -2.47      0.00
   -7    7    1      0.74      0.00
   -6    7    1      2.51      0.00
   -5    7    1      1.16      0.00
   -4    7    1     -2.36      0.00
   -3    7    1      2.57      0.00
   -2    7    1     -0.86      0.00
   -1    7    1     -1.94      0.00
    0    7    1      2.70      0.00
    1    7    1      7.82      0.00
    2    7    1     -8.93      0.00
    3    7    1     -2.15      0.00
    4    7    1      2.24      0.00
    5    7    1     13.17      0.00
    6    7    1      1.60      0.00
    7    7    1     -0.47      0.00
    8    7    1      4.36      0.00
    9    7    1     -0.35      0.00
   10    7    1      1.15      0.00
   11    7    1      0.39      0.00
   12    7    1      0.72      0.00
   13    7    1     -0.19      0.00
   -8    8    1     -1.25      0.00
   -7    8    1      1.74      0.00
   -6    8    1     -0.38      0.00
   -5    8    1     -0.43      0.00
   -4    8    1      0.97      0.00
   -3    8    1      0.31      0.00
   -2    8    1     -3.71      0.00
   -1    8    1      1.24      0.00
    0    8    1      1.13      0.00
    1    8    1     -2.74      0.00
    2    8    1    -11.37      0.00
    3    8    1     -0.40      0.00
    4    8    1      0.79      0.00
    5    8    1      4.89      0.00
    6    8    1     -6.83      0.00
    7    8    1      0.58      0.00
    8    8    1      1.47      0.00
    9    8    1      0.40      0.00
   10    8    1      2.46      0.00
   11    8    1      0.08      0.00
   12    8    1     -0.04      0.00
   13    8    1     -0.63      0.00
   -7    9    1      1.36      0.00
   -6    9    1     -1.50      0.00
   -5    9    1      0.12      0.00
   -4    9    1      0.57      0.00
   -3    9    1     -1.50      0.00
   -2    9    1      0.71      0.00
   -1    9    1      4.84      0.00
    0    9    1      1.12      0.00
    1    9    1     -3.15      0.00
    2    9    1     -6.33      0.00
    3    9    1      1.44      0.00
    4    9    1     -0.56      0.00
    5    9    1     -3.11      0.00
    6    9    1     -8.81      0.00
    7    9    1      0.35      0.00
    8    9    1     -1.17      0.00
    9    9    1      0.80      0.00
   10    9    1      1.37      0.00
   11    9    1     -1.33      0.00
   12    9    1     -1.23      0.00
   13    9    1     -0.71      0.00
   -6   10    1     -0.97      0.00
   -5   10    1      1.30      0.00
   -4   10    1     -0.07      0.00
   -3   10    1     -1.22      0.00
   -2   10    1      2.53      0.00
   -1   10    1      4.77      0.00
    0   10    1      1.59      0.00
    1   10    1     -1.53      0.00
    2   10    1      2.00      0.00
    3   10    1      6.74      0.00
    4   10    1      0.32      0.00
    5   10    1     -3.79      0.00
    6   10    1     -3.09      0.00
    7   10    1     -0.04      0.00
    8   10    1     -0.50      0.00
    9   10    1      2.13      0.00
   10   10    1      0.44      0.00
   11   10    1     -1.85      0.00
   12   10    1     -0.84      0.00
   -5   11    1      0.38      0.00
   -4   11    1     -1.94      0.00
   -3   11    1     -0.24      0.00
   -2   11    1      3.02      0.00
   -1   11    1      1.24      0.00
    0   11    1     -3.68      0.00
    1   11    1     -2.05      0.00
    2   11    1      5.60      0.00
    3   11    1      3.87      0.00
    4   11    1      0.17      0.00
    5   11    1      0.78      0.00
    6   11    1     -0.65      0.00
    7   11    1     -0.79      0.00
    8   11    1      2.31      0.00
    9   11    1      0.67      0.00
   10   11    1     -0.74      0.00
   11   11    1     -0.20      0.00
   12   11    1      1.25      0.00
   -4   12    1     -1.53      0.00
   -3   12    1      1.62      0.00
   -2   12    1      0.68      0.00
   -1   12    1     -3.44      0.00
    0   12    1     -4.76      0.00
    1   12    1      0.41      0.00
    2   12    1      1.85      0.00
    3   12    1     -0.89      0.00
    4   12    1      0.84      0.00
    5   12    1     -0.90      0.00
    6   12    1     -3.25      0.00
    7   12    1      2.13      0.00
    8   12    1      2.04      0.00
    9   12    1     -2.47      0.00
   10   12    1      0.20      0.00
   11   12    1      0.48      0.00
   -3   13    1      1.89      0.00
   -2   13    1     -0.74      0.00
   -1   13    1     -1.88      0.00
    0   13    1     -0.78      0.00
    1   13    1      1.74      0.00
    2   13    1     -0.26      0.00
    3   13    1      1.13      0.00
    4   13    1     -0.96      0.00
    5   13    1     -3.33      0.00
    6   13    1     -0.35      0.00
    7   13    1      4.04      0.00
    8   13    1     -0.90      0.00
    9   13    1     -2.04      0.00
   10   13    1      0.57      0.00
   11   13    1     -1.30      0.00
   -1   14    1     -0.66      0.00
    0   14    1      0.19      0.00
    1   14    1      1.86      0.00
    2   14    1      0.48      0.00
    3   14    1      1.06      0.00
    4   14    1     -2.97      0.00
    5   14    1      0.26      0.00
    6   14    1      2.70      0.00
    7   14    1      3.37      0.00
    8   14    1      0.20      0.00
    9   14    1     -0.27      0.00
    2   15    1     -1.20      0.00
    3   15    1     -0.98      0.00
    4   15    1     -1.94      0.00
    5   15    1      0.92      0.00
    6   15    1      0.93      0.00
    7   15    1      2.03      0.00
    8   15    1     -0.52      0.00
   -5  -15    2      0.02      0.00
   -4  -15    2     -0.07      0.00
   -8  -14    2      0.04      0.00
   -7  -14    2     -0.81      0.00
   -6  -14    2      1.03      0.00
   -5  -14    2     -1.07      0.00
   -4  -14    2     -0.94      0.00
   -3  -14    2     -2.21      0.00
   -2  -14    2     -1.10      0.00
   -1  -14    2      1.14      0.00
    0  -14    2     -0.11      0.00
  -10  -13    2      1.07      0.00
   -9  -13    2     -1.62      0.00
   -8  -13    2      0.83      0.00
   -7  -13    2     -0.08      0.00
   -6  -13    2      1.61      0.00
   -5  -13    2      1.51      0.00
   -4  -13    2      1.04      0.00
   -3  -13    2     -1.93      0.00
   -2  -13    2      0.46      0.00
   -1  -13    2      2.10      0.00
    0  -13    2     -1.31      0.00
    1  -13    2     -2.29      0.00
    2  -13    2     -0.40      0.00
  -11  -12    2      1.36      0.00
  -10  -12    2     -2.24      0.00
   -9  -12    2     -2.52      0.00
   -8  -12    2     -0.22      0.00
   -7  -12    2     -1.97      0.00
   -6  -12    2      3.05      0.00
   -5  -12    2      2.24      0.00
   -4  -12    2     -2.08      0.00
   -3  -12    2     -0.68      0.00
   -2  -12    2      3.31      0.00
   -1  -12    2      1.27      0.00
    0  -12    2     -2.53      0.00
    1  -12    2     -0.79      0.00
    2  -12    2      2.00      0.00
    3  -12    2      0.45      0.00
  -11  -11    2      0.57      0.00
  -10  -11    2     -2.28      0.00
   -9  -11    2     -1.38      0.00
   -8  -11    2     -1.41      0.00
   -7  -11    2      1.70      0.00
   -6  -11    2      3.66      0.00
   -5  -11    2     -3.69      0.00
   -4  -11    2     -4.07      0.00
   -3  -11    2      2.09      0.00
   -2  -11    2      1.40      0.00
   -1  -11    2     -1.49      0.00
    0  -11    2     -2.08      0.00
    1  -11    2     -0.81      0.00
    2  -11    2     -0.25      0.00
    3  -11    2     -1.09      0.00
    4  -11    2      1.57      0.00
    5  -11    2      0.10      0.00
  -12  -10    2      0.84      0.00
  -11  -10    2      1.17      0.00
  -10  -10    2     -0.52      0.00
   -9  -10    2     -1.90      0.00
   -8  -10    2      2.59      0.00
   -7  -10    2      4.94      0.00
   -6  -10    2     -1.11      0.00
   -5  -10    2     -4.89      0.00
   -4  -10    2      1.62      0.00
   -3  -10    2      3.00      0.00
   -2  -10    2      1.01      0.00
   -1  -10    2      0.03      0.00
    0  -10    2     -1.67      0.00
    1  -10    2     -2.36      0.00
    2  -10    2     -0.45      0.00
    3  -10    2      0.62      0.00
    4  -10    2      0.74      0.00
    5  -10    2     -2.86      0.00
    6  -10    2     -1.72      0.00
  -12   -9    2      0.90      0.00
  -11   -9    2      0.99      0.00
  -10   -9    2     -0.63      0.00
   -9   -9    2      0.21      0.00
   -8   -9    2      6.81      0.00
   -7   -9    2     -0.98      0.00
   -6   -9    2     -4.08      0.00
   -5   -9    2     -2.43      0.00
   -4   -9    2      4.19      0.00
   -3   -9    2      3.62      0.00
   -2   -9    2      4.82      0.00
   -1   -9    2      0.44      0.00
    0   -9    2     -0.88      0.00
    1   -9    2     -0.01      0.00
    2   -9    2      2.91      0.00
    3   -9    2      2.83      0.00
    4   -9    2     -0.50      0.00
    5   -9    2     -2.64      0.00
    6   -9    2      0.39      0.00
    7   -9    2      1.15      0.00
  -13   -8    2      1.12      0.00
  -12   -8    2     -0.66      0.00
  -11   -8    2     -1.13      0.00
  -10   -8    2     -1.47      0.00
   -9   -8    2      2.88      0.00
   -8   -8    2      4.46      0.00
   -7   -8    2     -5.86      0.00
   -6   -8    2     -2.25      0.00
   -5   -8    2     -4.32      0.00
   -4   -8    2      2.79      0.00
   -3   -8    2     -0.05      0.00
   -2   -8    2      0.33      0.00
   -1   -8    2     -2.93      0.00
    0   -8    2      0.95      0.00
    1   -8    2      2.17      0.00
    2   -8    2      6.65      0.00
    3   -8    2      3.60      0.00
    4   -8    2     -2.83      0.00
    5   -8    2     -1.84      0.00
    6   -8    2      2.37      0.00
    7   -8    2      1.62      0.00
    8   -8    2      0.21      0.00
  -13   -7    2      0.78      0.00
  -12   -7    2     -1.72      0.00
  -11   -7    2     -1.04      0.00
  -10   -7    2     -0.36      0.00
   -9   -7    2      4.20      0.00
   -8   -7    2     -0.50      0.00
   -7   -7    2     -4.76      0.00
   -6   -7    2      0.32      0.00
   -5   -7    2     -2.13      0.00
   -4   -7    2      3.90      0.00
   -3   -7    2     -5.77      0.00
   -2   -7    2     -2.75      0.00
   -1   -7    2     -6.31      0.00
    0   -7    2     -3.40      0.00
    1   -7    2      1.88      0.00
    2   -7    2      7.17      0.00
    3   -7    2     -2.70      0.00
    4   -7    2     -5.36      0.00
    5   -7    2      1.27      0.00
    6   -7    2      3.10      0.00
    7   -7    2     -0.71      0.00
    8   -7    2     -1.25      0.00
  -13   -6    2      0.20      0.00
  -12   -6    2     -1.93      0.00
  -11   -6    2      0.18      0.00
  -10   -6    2      2.40      0.00
   -9   -6    2      4.08      0.00
   -8   -6    2     -3.93      0.00
   -7   -6    2      1.06      0.00
   -6   -6    2      4.49      0.00
   -5   -6    2      4.57      0.00
   -4   -6    2      5.63      0.00
   -3   -6    2     -2.94      0.00
   -2   -6    2      1.64      0.00
   -1   -6    2     -9.10      0.00
    0   -6    2     -0.10      0.00
    1   -6    2      8.11      0.00
    2   -6    2     -0.18      0.00
    3   -6    2    -10.71      0.00
    4   -6    2     -1.53      0.00
    5   -6    2      4.50      0.00
    6   -6    2      1.11      0.00
    7   -6    2     -1.81      0.00
    8   -6    2     -1.19      0.00
    9   -6    2     -0.92      0.00
  -13   -5    2      0.17      0.00
  -12   -5    2     -1.49      0.00
  -11   -5    2      1.86      0.00
  -10   -5    2      2.33      0.00
   -9   -5    2     -1.94      0.00
   -8   -5    2     -6.99      0.00
   -7   -5    2      3.11      0.00
   -6   -5    2      2.44      0.00
   -5   -5    2      6.51      0.00
   -4   -5    2      4.75      0.00
   -3   -5    2      0.47      0.00
   -2   -5    2     -1.77      0.00
   -1   -5    2     -8.72      0.00
    0   -5    2     11.14      0.00
    1   -5    2      6.25      0.00
    2   -5    2    -10.69      0.00
    3   -5    2     -4.46      0.00
    4   -5    2      6.16      0.00
    5   -5    2      3.89      0.00
    6   -5    2     -0.38      0.00
    7   -5    2      0.71      0.00
    8   -5    2      0.40      0.00
    9   -5    2      0.44      0.00
   10   -5    2      0.14      0.00
  -13   -4    2     -1.08      0.00
  -12   -4    2     -0.53      0.00
  -11   -4    2      2.38      0.00
  -10   -4    2      0.09      0.00
   -9   -4    2     -5.14      0.00
   -8   -4    2     -5.57      0.00
   -7   -4    2     -1.01      0.00
   -6   -4    2     -3.72      0.00
   -5   -4    2     -0.85      0.00
   -4   -4    2     -4.35      0.00
   -3   -4    2     -4.27      0.00
   -2   -4    2     -7.02      0.00
   -1   -4    2      3.91      0.00
    0   -4    2     16.03      0.00
    1   -4    2     -9.43      0.00
    2   -4    2    -15.43      0.00
    3   -4    2      3.15      0.00
    4   -4    2      2.55      0.00
    5   -4    2     -0.27      0.00
    6   -4    2     -1.19      0.00
    7   -4    2      1.75      0.00
    8   -4    2      0.00      0.00
    9   -4    2      1.46      0.00
   10   -4    2      1.18      0.00
  -13   -3    2     -0.84      0.00
  -12   -3    2      0.25      0.00
  -11   -3    2      0.86      0.00
  -10   -3    2     -0.29      0.00
   -9   -3    2     -2.72      0.00
   -8   -3    2      0.78      0.00
   -7   -3    2      1.33      0.00
   -6   -3    2      0.44      0.00
   -5   -3    2     -6.14      0.00
   -4   -3    2     -4.92      0.00
   -3   -3    2    -10.11      0.00
   -2   -3    2      2.32      0.00
   -1   -3    2     23.83      0.00
    0   -3    2      8.96      0.00
    1   -3    2    -21.17      0.00
    2   -3    2     -4.90      0.00
    3   -3    2      6.00      0.00
    4   -3    2     -4.33      0.00
    5   -3    2     -2.73      0.00
    6   -3    2     -2.57      0.00
    7   -3    2     -1.87      0.00
    8   -3    2     -3.15      0.00
    9   -3    2      1.12      0.00
   10   -3    2      1.78      0.00
   11   -3    2      0.48      0.00
  -13   -2    2     -0.50      0.00
  -12   -2    2     -0.10      0.00
  -11   -2    2      0.10      0.00
  -10   -2    2     -0.11      0.00
   -9   -2    2     -1.31      0.00
   -8   -2    2      5.13      0.00
   -7   -2    2      2.74      0.00
   -6   -2    2      6.59      0.00
   -5   -2    2     -1.77      0.00
   -4   -2    2      5.15      0.00
   -3   -2    2    -10.69      0.00
   -2   -2    2     38.51      0.00
   -1   -2    2     23.52      0.00
    0   -2    2     -7.77      0.00
    1   -2    2    -12.54      0.00
    2   -2    2     18.93      0.00
    3   -2    2      4.59      0.00
    4   -2    2     -1.60      0.00
    5   -2    2      2.12      0.00
    6   -2    2     -0.40      0.00
    7   -2    2     -4.64      0.00
    8   -2    2     -1.47      0.00
    9   -2    2      1.24      0.00
   10   -2    2     -0.81      0.00
   11   -2    2     -2.28      0.00
  -12   -1    2     -0.18      0.00
  -11   -1    2     -0.39      0.00
  -10   -1    2      0.07      0.00
   -9   -1    2     -0.53      0.00
   -8   -1    2      2.77      0.00
   -7   -1    2     -2.01      0.00
   -6   -1    2      9.22      0.00
   -5   -1    2     -5.82      0.00
   -4   -1    2     -2.60      0.00
   -3   -1    2     -7.84      0.00
   -2   -1    2     50.25      0.00
   -1   -1    2    -40.66      0.00
    0   -1    2    -15.86      0.00
    1   -1    2      3.12      0.00
    2   -1    2     25.26      0.00
    3   -1    2     -2.07      0.00
    4   -1    2     12.83      0.00
    5   -1    2      3.82      0.00
    6   -1    2     -2.15      0.00
    7   -1    2     -2.99      0.00
    8   -1    2      6.54      0.00
    9   -1    2      0.15      0.00
   10   -1    2     -3.43      0.00
   11   -1    2     -3.17      0.00
   12   -1    2      0.86      0.00
  -12    0    2      0.44      0.00
  -11    0    2      0.69      0.00
  -10    0    2      2.66      0.00
   -9    0    2     -1.59      0.00
   -8    0    2     -0.87      0.00
   -7    0    2     -0.23      0.00
   -6    0    2      7.61      0.00
   -5    0    2    -16.09      0.00
   -4    0    2      1.72      0.00
   -3    0    2      7.71      0.00
   -2    0    2      9.17      0.00
   -1    0    2    -97.24      0.00
    0    0    2      4.37      0.00
    1    0    2    -24.40      0.00
    2    0    2     -3.11      0.00
    3    0    2     -8.37      0.00
    4    0    2     17.67      0.00
    5    0    2     -9.12      0.00
    6    0    2     -2.02      0.00
    7    0    2      2.89      0.00
    8    0    2      7.32      0.00
    9    0    2     -3.75      0.00
   10    0    2      0.15      0.00
   11    0    2      0.20      0.00
   12    0    2      1.35      0.00
  -12    1    2     -0.10      0.00
  -11    1    2      1.22      0.00
  -10    1    2      1.18      0.00
   -9    1    2     -3.66      0.00
   -8    1    2      2.77      0.00
   -7    1    2      3.15      0.00
   -6    1    2     -3.40      0.00
   -5    1    2    -12.48      0.00
   -4    1    2     21.89      0.00
   -3    1    2     12.62      0.00
   -2    1    2    -13.17      0.00
   -1    1    2    -40.15      0.00
    0    1    2     43.80      0.00
    1    1    2    -40.41      0.00
    2    1    2      5.02      0.00
    3    1    2     -7.57      0.00
    4    1    2     -1.89      0.00
    5    1    2    -21.23      0.00
    6    1    2      6.42      0.00
    7    1    2      4.85      0.00
    8    1    2      0.69      0.00
    9    1    2     -5.33      0.00
   10    1    2      2.24      0.00
   11    1    2      0.61      0.00
   12    1    2      2.42      0.00
  -11    2    2     -0.19      0.00
  -10    2    2     -3.07      0.00
   -9    2    2     -2.23      0.00
   -8    2    2      4.49      0.00
   -7    2    2     -0.65      0.00
   -6    2    2     -7.74      0.00
   -5    2    2      2.80      0.00
   -4    2    2     15.16      0.00
   -3    2    2     -8.45      0.00
   -2    2    2     -6.14      0.00
   -1    2    2     20.57      0.00
    0    2    2     40.26      0.00
    1    2    2      0.55      0.00
    2    2    2     44.44      0.00
    3    2    2      0.15      0.00
    4    2    2     -5.85      0.00
    5    2    2    -10.63      0.00
    6    2    2     11.15      0.00
    7    2    2      1.41      0.00
    8    2    2     -1.42      0.00
    9    2    2     -2.10      0.00
   10    2    2      1.02      0.00
   11    2    2     -0.44      0.00
   12    2    2      1.46      0.00
   13    2    2     -0.79      0.00
  -11    3    2     -0.62      0.00
  -10    3    2     -0.75      0.00
   -9    3    2      1.68      0.00
   -8    3    2     -0.62      0.00
   -7    3    2     -5.13      0.00
   -6    3    2     -4.21      0.00
   -5    3    2      9.47      0.00
   -4    3    2     -2.71      0.00
   -3    3    2    -14.49      0.00
   -2    3    2     -2.05      0.00
   -1    3    2      7.15      0.00
    0    3    2      3.55      0.00
    1    3    2     19.64      0.00
    2    3    2     23.94      0.00
    3    3    2     -3.03      0.00
    4    3    2     -0.43      0.00
    5    3    2      1.35      0.00
    6    3    2      8.29      0.00
    7    3    2     -1.45      0.00
    8    3    2     -2.25      0.00
    9    3    2      1.22      0.00
   10    3    2      1.60      0.00
   11    3    2      1.57      0.00
   12    3    2      0.64      0.00
   13    3    2     -0.37      0.00
  -11    4    2     -0.01      0.00
  -10    4    2      2.38      0.00
   -9    4    2      2.83      0.00
   -8    4    2     -2.11      0.00
   -7    4    2     -2.26      0.00
   -6    4    2      0.14      0.00
   -5    4    2      5.16      0.00
   -4    4    2    -10.39      0.00
   -3    4    2     -4.64      0.00
   -2    4    2     -0.22      0.00
   -1    4    2     -6.65      0.00
    0    4    2     -3.33      0.00
    1    4    2      7.63      0.00
    2    4    2    -10.59      0.00
    3    4    2     -8.85      0.00
    4    4    2     -6.97      0.00
    5    4    2      4.54      0.00
    6    4    2      0.34      0.00
    7    4    2     -6.58      0.00
    8    4    2     -5.14      0.00
    9    4    2      0.98      0.00
   10    4    2     -0.81      0.00
   11    4    2      1.75      0.00
   12    4    2     -0.49      0.00
   13    4    2     -0.59      0.00
  -10    5    2      1.37      0.00
   -9    5    2      0.01      0.00
   -8    5    2     -1.67      0.00
   -7    5    2      2.47      0.00
   -6    5    2      5.29      0.00
   -5    5    2      1.33      0.00
   -4    5    2     -5.90      0.00
   -3    5    2      4.14      0.00
   -2    5    2      0.27      0.00
   -1    5    2     -4.04      0.00
    0    5    2      6.82      0.00
    1    5    2     -0.35      0.00
    2    5    2    -12.52      0.00
    3    5    2     -6.71      0.00
    4    5    2      0.33      0.00
    5    5    2     11.15      0.00
    6    5    2     -4.84      0.00
    7    5    2     -2.98      0.00
    8    5    2     -2.78      0.00
    9    5    2     -1.17      0.00
   10    5    2     -3.14      0.00
   11    5    2      1.61      0.00
   12    5    2     -1.80      0.00
   13    5    2     -1.47      0.00
   -9    6    2     -2.02      0.00
   -8    6    2     -1.37      0.00
   -7    6    2      2.31      0.00
   -6    6    2      2.71      0.00
   -5    6    2     -1.93      0.00
   -4    6    2      2.84      0.00
   -3    6    2      4.65      0.00
   -2    6    2     -1.66      0.00
   -1    6    2      2.26      0.00
    0    6    2     10.75      0.00
    1    6    2     -7.90      0.00
    2    6    2     -8.47      0.00
    3    6    2     -2.52      0.00
    4    6    2      9.38      0.00
    5    6    2      4.68      0.00
    6    6    2     -3.07      0.00
    7    6    2      7.44      0.00
    8    6    2      1.19      0.00
    9    6    2      1.29      0.00
   10    6    2      0.37      0.00
   11    6    2      1.59      0.00
   12    6    2     -1.70      0.00
   13    6    2     -0.20      0.00
   -9    7    2     -1.31      0.00
   -8    7    2      0.43      0.00
   -7    7    2      0.06      0.00
   -6    7    2     -0.77      0.00
   -5    7    2     -0.98      0.00
   -4    7    2      2.95      0.00
   -3    7    2     -3.43      0.00
   -2    7    2     -0.65      0.00
   -1    7    2      5.48      0.00
    0    7    2      2.86      0.00
    1    7    2    -12.84      0.00
    2    7    2     -1.36      0.00
    3    7    2      0.08      0.00
    4    7    2      3.67      0.00
    5    7    2     -9.07      0.00
    6    7    2     -1.71      0.00
    7    7    2      3.47      0.00
    8    7    2     -0.36      0.00
    9    7    2      4.62      0.00
   10    7    2      1.98      0.00
   11    7    2      0.26      0.00
   12    7    2     -1.13      0.00
   13    7    2     -0.02      0.00
   -8    8    2      0.81      0.00
   -7    8    2     -1.31      0.00
   -6    8    2      0.50      0.00
   -5    8    2      0.24      0.00
   -4    8    2     -1.89      0.00
   -3    8    2     -3.19      0.00
   -2    8    2      4.75      0.00
   -1    8    2      2.88      0.00
    0    8    2     -2.98      0.00
    1    8    2     -7.19      0.00
    2    8    2      4.49      0.00
    3    8    2     -0.62      0.00
    4    8    2     -1.16      0.00
    5    8    2    -11.12      0.00
    6    8    2     -1.07      0.00
    7    8    2     -4.17      0.00
    8    8    2     -1.46      0.00
    9    8    2      2.25      0.00
   10    8    2     -1.18      0.00
   11    8    2     -0.82      0.00
   12    8    2     -0.76      0.00
   13    8    2      0.10      0.00
   -7    9    2     -0.72      0.00
   -6    9    2      1.97      0.00
   -5    9    2     -0.89      0.00
   -4    9    2     -3.01      0.00
   -3    9    2      1.03      0.00
   -2    9    2      4.38      0.00
   -1    9    2      0.48      0.00
    0    9    2     -0.74      0.00
    1    9    2      1.14      0.00
    2    9    2      8.36      0.00
    3    9    2      2.08      0.00
    4    9    2     -0.02      0.00
    5    9    2     -4.72      0.00
    6    9    2      1.83      0.00
    7    9    2     -2.97      0.00
    8    9    2      1.27      0.00
    9    9    2      0.31      0.00
   10    9    2     -2.57      0.00
   11    9    2     -0.74      0.00
   12    9    2      0.31      0.00
   13    9    2      0.81      0.00
   -6   10    2      1.39      0.00
   -5   10    2     -1.67      0.00
   -4   10    2     -1.16      0.00
   -3   10    2      2.90      0.00
   -2   10    2      1.38      0.00
   -1   10    2     -2.97      0.00
    0   10    2     -2.93      0.00
    1   10    2      3.30      0.00
    2   10    2      6.66      0.00
    3   10    2      1.22      0.00
    4   10    2      1.64      0.00
    5   10    2      1.31      0.00
    6   10    2      1.98      0.00
    7   10    2      0.96      0.00
    8   10    2      2.81      0.00
    9   10    2     -0.90      0.00
   10   10    2     -1.72      0.00
   11   10    2      1.32      0.00
   12   10    2      1.80      0.00
   -5   11    2     -2.31      0.00
   -4   11    2      0.23      0.00
   -3   11    2      2.17      0.00
   -2   11    2     -2.10      0.00
   -1   11    2     -5.32      0.00
    0   11    2     -2.11      0.00
    1   11    2      2.35      0.00
    2   11    2     -1.80      0.00
    3   11    2     -2.37      0.00
    4   11    2      0.21      0.00
    5   11    2     -1.09      0.00
    6   11    2      1.43      0.00
    7   11    2      4.58      0.00
    8   11    2      0.30      0.00
    9   11    2     -1.80      0.00
   10   11    2     -0.05      0.00
   11   11    2      1.70      0.00
   12   11    2      0.96      0.00
   -4   12    2      2.08      0.00
   -3   12    2      0.19      0.00
   -2   12    2     -2.79      0.00
   -1   12    2     -1.90      0.00
    0   12    2      1.67      0.00
    1   12    2      0.07      0.00
    2   12    2     -3.14      0.00
    3   12    2     -1.51      0.00
    4   12    2     -4.01      0.00
    5   12    2     -2.82      0.00
    6   12    2      4.64      0.00
    7   12    2      2.62      0.00
    8   12    2     -2.35      0.00
    9   12    2      0.28      0.00
   10   12    2     -0.25      0.00
   11   12    2     -0.47      0.00
   -3   13    2     -0.37      0.00
   -2   13    2      0.10      0.00
   -1   13    2      0.98      0.00
    0   13    2      2.48      0.00
    1   13    2      0.60      0.00
    2   13    2      0.95      0.00
    3   13    2     -2.34      0.00
    4   13    2     -2.93      0.00
    5   13    2      2.28      0.00
    6   13    2      4.87      0.00
    7   13    2     -1.02      0.00
    8   13    2     -0.56      0.00
    9   13    2      1.53      0.00
   10   13    2     -1.10      0.00
   11   13    2     -0.27      0.00
   -1   14    2     -0.26      0.00
    0   14    2      1.56      0.00
    1   14    2      0.19      0.00
    2   14    2      0.04      0.00
    3   14    2     -3.02      0.00
    4   14    2      1.68      0.00
    5   14    2      2.50      0.00
    6   14    2      1.34      0.00
    7   14    2     -1.93      0.00
    8   14    2     -0.47      0.00
    9   14    2      1.21      0.00
   10   14    2      0.29      0.00
    1   15    2     -1.08      0.00
    2   15    2     -0.55      0.00
    3   15    2     -1.13      0.00
    4   15    2      1.78      0.00
    5   15    2      0.12      0.00
    6   15    2     -0.33      0.00
    7   15    2     -3.65      0.00
    8   15    2     -1.79      0.00
   -8  -14    3     -1.15      0.00
   -7  -14    3      1.62      0.00
   -6  -14    3      0.50      0.00
   -5  -14    3      0.77      0.00
   -4  -14    3     -0.05      0.00
   -3  -14    3     -0.15      0.00
   -2  -14    3      0.07      0.00
   -1  -14    3     -1.40      0.00
   -9  -13    3     -0.39      0.00
   -8  -13    3     -1.66      0.00
   -7  -13    3      1.95      0.00
   -6  -13    3      1.18      0.00
   -5  -13    3      0.80      0.00
   -4  -13    3     -0.13      0.00
   -3  -13    3      2.04      0.00
   -2  -13    3      2.21      0.00
   -1  -13    3     -0.66      0.00
    0  -13    3     -0.01      0.00
    1  -13    3      0.62      0.00
  -10  -12    3     -0.82      0.00
   -9  -12    3     -0.07      0.00
   -8  -12    3     -1.16      0.00
   -7  -12    3      3.49      0.00
   -6  -12    3     -1.53      0.00
   -5  -12    3     -3.79      0.00
   -4  -12    3     -0.15      0.00
   -3  -12    3      2.35      0.00
   -2  -12    3      0.25      0.00
   -1  -12    3     -1.18      0.00
    0  -12    3      1.07      0.00
    1  -12    3      0.48      0.00
    2  -12    3     -0.70      0.00
    3  -12    3      0.42      0.00
  -11  -11    3     -1.15      0.00
  -10  -11    3      0.80      0.00
   -9  -11    3      0.84      0.00
   -8  -11    3      3.68      0.00
   -7  -11    3      2.46      0.00
   -6  -11    3     -5.12      0.00
   -5  -11    3     -1.69      0.00
   -4  -11    3      2.47      0.00
   -3  -11    3      0.12      0.00
   -2  -11    3     -0.75      0.00
   -1  -11    3     -0.40      0.00
    0  -11    3     -0.34      0.00
    1  -11    3     -1.24      0.00
    2  -11    3     -0.37      0.00
    3  -11    3      1.06      0.00
    4  -11    3     -2.01      0.00
  -12  -10    3      0.78      0.00
  -11  -10    3     -0.83      0.00
  -10  -10    3      0.61      0.00
   -9  -10    3      4.12      0.00
   -8  -10    3      3.20      0.00
   -7  -10    3     -3.12      0.00
   -6  -10    3     -2.85      0.00
   -5  -10    3      3.26      0.00
   -4  -10    3      1.89      0.00
   -3  -10    3      1.22      0.00
   -2  -10    3      0.71      0.00
   -1  -10    3     -1.57      0.00
    0  -10    3     -0.78      0.00
    1  -10    3      2.32      0.00
    2  -10    3      3.08      0.00
    3  -10    3      0.93      0.00
    4  -10    3     -2.48      0.00
    5  -10    3      0.21      0.00
  -12   -9    3     -1.08      0.00
  -11   -9    3     -2.15      0.00
  -10   -9    3      1.44      0.00
   -9   -9    3      4.67      0.00
   -8   -9    3     -2.85      0.00
   -7   -9    3     -2.42      0.00
   -6   -9    3     -0.45      0.00
   -5   -9    3      1.89      0.00
   -4   -9    3     -0.01      0.00
   -3   -9    3      1.34      0.00
   -2   -9    3     -3.52      0.00
   -1   -9    3     -2.20      0.00
    0   -9    3      2.10      0.00
    1   -9    3      5.40      0.00
    2   -9    3      2.86      0.00
    3   -9    3     -1.05      0.00
    4   -9    3     -1.18      0.00
    5   -9    3      2.29      0.00
    6   -9    3      1.59      0.00
    7   -9    3      0.54      0.00
  -12   -8    3     -1.47      0.00
  -11   -8    3     -1.47      0.00
  -10   -8    3      1.73      0.00
   -9   -8    3     -0.08      0.00
   -8   -8    3     -5.33      0.00
   -7   -8    3      1.15      0.00
   -6   -8    3     -1.45      0.00
   -5   -8    3      3.60      0.00
   -4   -8    3     -1.26      0.00
   -3   -8    3     -3.23      0.00
   -2   -8    3     -7.76      0.00
   -1   -8    3     -2.13      0.00
    0   -8    3      0.93      0.00
    1   -8    3      4.33      0.00
    2   -8    3     -1.53      0.00
    3   -8    3     -4.82      0.00
    4   -8    3     -0.09      0.00
    5   -8    3      2.70      0.00
    6   -8    3      0.46      0.00
    7   -8    3     -0.56      0.00
  -13   -7    3     -1.41      0.00
  -12   -7    3      0.34      0.00
  -11   -7    3      0.78      0.00
  -10   -7    3      2.28      0.00
   -9   -7    3     -2.96      0.00
   -8   -7    3     -2.79      0.00
   -7   -7    3      1.64      0.00
   -6   -7    3      0.80      0.00
   -5   -7    3      7.42      0.00
   -4   -7    3     -1.46      0.00
   -3   -7    3      0.08      0.00
   -2   -7    3     -5.31      0.00
   -1   -7    3     -0.71      0.00
    0   -7    3      2.60      0.00
    1   -7    3      0.87      0.00
    2   -7    3    -10.61      0.00
    3   -7    3     -5.85      0.00
    4   -7    3      3.21      0.00
    5   -7    3      2.01      0.00
    6   -7    3     -1.21      0.00
    7   -7    3     -1.06      0.00
    8   -7    3     -1.06      0.00
  -13   -6    3     -0.45      0.00
  -12   -6    3      1.48      0.00
  -11   -6    3      1.43      0.00
  -10   -6    3      0.61      0.00
   -9   -6    3     -4.32      0.00
   -8   -6    3      0.86      0.00
   -7   -6    3      0.62      0.00
   -6   -6    3      2.75      0.00
   -5   -6    3      4.79      0.00
   -4   -6    3     -1.02      0.00
   -3   -6    3      2.19      0.00
   -2   -6    3     -4.77      0.00
   -1   -6    3      8.70      0.00
    0   -6    3      8.17      0.00
    1   -6    3     -5.67      0.00
    2   -6    3     -9.85      0.00
    3   -6    3      3.51      0.00
    4   -6    3      4.48      0.00
    5   -6    3     -0.97      0.00
    6   -6    3     -0.86      0.00
    7   -6    3      0.07      0.00
    8   -6    3     -0.24      0.00
    9   -6    3      0.14      0.00
  -13   -5    3      0.23      0.00
  -12   -5    3      2.06      0.00
  -11   -5    3      0.36      0.00
  -10   -5    3     -2.48      0.00
   -9   -5    3     -3.39      0.00
   -8   -5    3      1.81      0.00
   -7   -5    3     -3.60      0.00
   -6   -5    3     -0.04      0.00
   -5   -5    3     -2.89      0.00
   -4   -5    3     -5.88      0.00
   -3   -5    3     -4.68      0.00
   -2   -5    3     -0.97      0.00
   -1   -5    3     17.15      0.00
    0   -5    3     -0.88      0.00
    1   -5    3    -11.80      0.00
    2   -5    3      1.55      0.00
    3   -5    3      7.55      0.00
    4   -5    3      0.72      0.00
    5   -5    3     -0.92      0.00
    6   -5    3      0.60      0.00
    7   -5    3     -0.94      0.00
    8   -5    3      0.61      0.00
    9   -5    3      1.62      0.00
   10   -5    3      1.59      0.00
  -13   -4    3      0.16      0.00
  -12   -4    3      0.69      0.00
  -11   -4    3     -1.30      0.00
  -10   -4    3     -2.00      0.00
   -9   -4    3      1.11      0.00
   -8   -4    3      2.88      0.00
   -7   -4    3     -1.28      0.00
   -6   -4    3      0.04      0.00
   -5   -4    3     -7.29      0.00
   -4   -4    3    -10.52      0.00
   -3   -4    3     -5.93      0.00
   -2   -4    3     10.32      0.00
   -1   -4    3     13.31      0.00
    0   -4    3    -13.74      0.00
    1   -4    3     -4.52      0.00
    2   -4    3      9.30      0.00
    3   -4    3      0.14      0.00
    4   -4    3     -2.00      0.00
    5   -4    3     -1.19      0.00
    6   -4    3     -2.20      0.00
    7   -4    3     -4.01      0.00
    8   -4    3      0.47      0.00
    9   -4    3      1.02      0.00
   10   -4    3      0.90      0.00
  -13   -3    3      0.26      0.00
  -12   -3    3     -0.30      0.00
  -11   -3    3     -0.68      0.00
  -10   -3    3     -0.90      0.00
   -9   -3    3      3.00      0.00
   -8   -3    3      3.65      0.00
   -7   -3    3      4.81      0.00
   -6   -3    3      2.99      0.00
   -5   -3    3      0.82      0.00
   -4   -3    3     -5.43      0.00
   -3   -3    3      9.42      0.00
   -2   -3    3     17.20      0.00
   -1   -3    3     -4.50      0.00
    0   -3    3    -16.71      0.00
    1   -3    3     12.16      0.00
    2   -3    3     10.52      0.00
    3   -3    3     -0.72      0.00
    4   -3    3      3.25      0.00
    5   -3    3     -0.72      0.00
    6   -3    3     -4.18      0.00
    7   -3    3     -3.00      0.00
    8   -3    3      1.83      0.00
    9   -3    3     -0.47      0.00
   10   -3    3     -2.18      0.00
   11   -3    3     -1.28      0.00
  -13   -2    3     -0.20      0.00
  -12   -2    3      0.35      0.00
  -11   -2    3      0.10      0.00
  -10   -2    3     -1.01      0.00
   -9   -2    3      2.20      0.00
   -8   -2    3     -0.25      0.00
   -7   -2    3      3.58      0.00
   -6   -2    3     -0.74      0.00
   -5   -2    3      2.79      0.00
   -4   -2    3     -3.52      0.00
   -3   -2    3     28.85      0.00
   -2   -2    3     -4.55      0.00
   -1   -2    3    -21.50      0.00
    0   -2    3     -6.64      0.00
    1   -2    3     19.73      0.00
    2   -2    3     -0.80      0.00
    3   -2    3      4.90      0.00
    4   -2    3      6.93      0.00
    5   -2    3     -1.10      0.00
    6   -2    3     -2.39      0.00
    7   -2    3      5.12      0.00
    8   -2    3      4.35      0.00
    9   -2    3     -1.90      0.00
   10   -2    3     -3.28      0.00
   11   -2    3      0.42      0.00
  -12   -1    3      1.35      0.00
  -11   -1    3      0.41      0.00
  -10   -1    3     -0.80      0.00
   -9   -1    3      0.14      0.00
   -8   -1    3     -2.40      0.00
   -7   -1    3      2.82      0.00
   -6   -1    3    -10.00      0.00
   -5   -1    3     -2.17      0.00
   -4   -1    3      0.23      0.00
   -3   -1    3     22.35      0.00
   -2   -1    3    -52.47      0.00
   -1   -1    3     -8.18      0.00
    0   -1    3     -7.19      0.00
    1   -1    3      0.28      0.00
    2   -1    3    -16.94      0.00
    3   -1    3     10.24      0.00
    4   -1    3     -5.14      0.00
    5   -1    3     -5.59      0.00
    6   -1    3      1.45      0.00
    7   -1    3     10.12      0.00
    8   -1    3     -0.06      0.00
    9   -1    3     -1.23      0.00
   10   -1    3      0.91      0.00
   11   -1    3      2.67      0.00
   12   -1    3     -1.68      0.00
  -12    0    3      1.48      0.00
  -11    0    3      0.43      0.00
  -10    0    3     -1.97      0.00
   -9    0    3      0.61      0.00
   -8    0    3      1.55      0.00
   -7    0    3      0.34      0.00
   -6    0    3    -13.72      0.00
   -5    0    3      9.38      0.00
   -4    0    3      8.46      0.00
   -3    0    3      1.41      0.00
   -2    0    3    -44.04      0.00
   -1    0    3     43.80      0.00
    0    0    3    -24.07      0.00
    1    0    3     -0.43      0.00
    2    0    3    -11.22      0.00
    3    0    3      2.62      0.00
    4    0    3    -26.76      0.00
    5    0    3     -0.98      0.00
    6    0    3      5.38      0.00
    7    0    3      4.27      0.00
    8    0    3     -7.09      0.00
    9    0    3      1.39      0.00
   10    0    3      2.12      0.00
   11    0    3      2.71      0.00
   12    0    3     -0.83      0.00
  -12    1    3      0.38      0.00
  -11    1    3     -2.28      0.00
  -10    1    3     -3.06      0.00
   -9    1    3      3.80      0.00
   -8    1    3      1.35      0.00
   -7    1    3     -4.61      0.00
   -6    1    3     -3.45      0.00
   -5    1    3     16.25      0.00
   -4    1    3     -5.73      0.00
   -3    1    3     -7.98      0.00
   -2    1    3      5.91      0.00
   -1    1    3     56.29      0.00
    0    1    3    -18.74      0.00
    1    1    3     51.32      0.00
    2    1    3      8.88      0.00
    3    1    3     -1.54      0.00
    4    1    3    -20.17      0.00
    5    1    3     12.96      0.00
    6    1    3      0.44      0.00
    7    1    3     -2.70      0.00
    8    1    3     -5.22      0.00
    9    1    3      2.11      0.00
   10    1    3     -1.93      0.00
   11    1    3      0.94      0.00
   12    1    3     -0.80      0.00
  -11    2    3     -1.95      0.00
  -10    2    3      0.57      0.00
   -9    2    3      2.93      0.00
   -8    2    3     -4.11      0.00
   -7    2    3     -3.50      0.00
   -6    2    3      7.27      0.00
   -5    2    3      3.80      0.00
   -4    2    3    -16.41      0.00
   -3    2    3     -2.98      0.00
   -2    2    3      7.10      0.00
   -1    2    3      3.64      0.00
    0    2    3     -5.65      0.00
    1    2    3     49.63      0.00
    2    2    3     -6.15      0.00
    3    2    3      4.53      0.00
    4    2    3      4.43      0.00
    5    2    3     18.27      0.00
    6    2    3     -4.58      0.00
    7    2    3     -2.63      0.00
    8    2    3     -0.92      0.00
    9    2    3      1.63      0.00
   10    2    3     -0.51      0.00
   11    2    3      1.23      0.00
   12    2    3     -1.94      0.00
   13    2    3      0.22      0.00
  -11    3    3      0.94      0.00
  -10    3    3      3.00      0.00
   -9    3    3      0.21      0.00
   -8    3    3     -2.77      0.00
   -7    3    3      0.39      0.00
   -6    3    3      5.15      0.00
   -5    3    3     -7.94      0.00
   -4    3    3     -4.72      0.00
   -3    3    3      3.87      0.00
   -2    3    3     -6.42      0.00
   -1    3    3    -14.79      0.00
    0    3    3     -0.18      0.00
    1    3    3     -7.68      0.00
    2    3    3    -28.89      0.00
    3    3    3     -5.07      0.00
    4    3    3      4.44      0.00
    5    3    3      8.96      0.00
    6    3    3     -5.84      0.00
    7    3    3     -3.21      0.00
    8    3    3     -0.60      0.00
    9    3    3     -0.28      0.00
   10    3    3      1.67      0.00
   11    3    3      0.75      0.00
   12    3    3     -0.97      0.00
   13    3    3      0.10      0.00
  -11    4    3      1.03      0.00
  -10    4    3      0.04      0.00
   -9    4    3     -1.35      0.00
   -8    4    3      1.66      0.00
   -7    4    3      3.34      0.00
   -6    4    3      2.78      0.00
   -5    4    3     -6.50      0.00
   -4    4    3      5.33      0.00
   -3    4    3      2.19      0.00
   -2    4    3     -1.92      0.00
   -1    4    3      4.27      0.00
    0    4    3      3.98      0.00
    1    4    3    -20.55      0.00
    2    4    3    -15.79      0.00
    3    4    3     -8.89      0.00
    4    4    3      5.37      0.00
    5    4    3     -1.05      0.00
    6    4    3     -5.60      0.00
    7    4    3     -2.13      0.00
    8    4    3      0.25      0.00
    9    4    3     -3.08      0.00
   10    4    3      0.95      0.00
   11    4    3     -2.15      0.00
   12    4    3     -1.15      0.00
   13    4    3     -0.69      0.00
  -10    5    3     -1.75      0.00
   -9    5    3     -1.89      0.00
   -8    5    3      1.29      0.00
   -7    5    3      1.60      0.00
   -6    5    3      0.21      0.00
   -5    5    3      0.47      0.00
   -4    5    3      7.59      0.00
   -3    5    3     -0.93      0.00
   -2    5    3      2.94      0.00
   -1    5    3     11.07      0.00
    0    5    3     -0.77      0.00
    1    5    3     -9.48      0.00
    2    5    3     -1.83      0.00
    3    5    3      3.21      0.00
    4    5    3      8.57      0.00
    5    5    3     -6.82      0.00
    6    5    3      3.13      0.00
    7    5    3      2.79      0.00
    8    5    3      3.17      0.00
    9    5    3      0.21      0.00
   10    5    3      3.09      0.00
   11    5    3     -3.02      0.00
   12    5    3     -0.23      0.00
   13    5    3      0.33      0.00
   -9    6    3     -0.27      0.00
   -8    6    3      0.71      0.00
   -7    6    3     -1.49      0.00
   -6    6    3     -2.61      0.00
   -5    6    3      2.12      0.00
   -4    6    3     -0.98      0.00
   -3    6    3     -3.17      0.00
   -2    6    3      5.96      0.00
   -1    6    3      6.74      0.00
    0    6    3     -9.56      0.00
    1    6    3     -2.52      0.00
    2    6    3      3.08      0.00
    3    6    3      6.75      0.00
    4    6    3     -4.60      0.00
    5    6    3     -7.21      0.00
    6    6    3      5.03      0.00
    7    6    3     -1.56      0.00
    8    6    3      5.09      0.00
    9    6    3      4.30      0.00
   10    6    3      2.94      0.00
   11    6    3     -2.09      0.00
   12    6    3      1.20      0.00
   13    6    3      1.30      0.00
   -9    7    3      0.67      0.00
   -8    7    3      0.29      0.00
   -7    7    3     -0.22      0.00
   -6    7    3     -0.33      0.00
   -5    7    3     -0.59      0.00
   -4    7    3     -6.95      0.00
   -3    7    3      1.28      0.00
   -2    7    3      4.63      0.00
   -1    7    3     -2.88      0.00
    0    7    3    -10.28      0.00
    1    7    3      6.09      0.00
    2    7    3      3.79      0.00
    3    7    3      2.92      0.00
    4    7    3     -8.47      0.00
    5    7    3     -0.12      0.00
    6    7    3     -3.42      0.00
    7    7    3     -5.85      0.00
    8    7    3      2.88      0.00
    9    7    3     -0.80      0.00
   10    7    3     -0.85      0.00
   11    7    3     -1.04      0.00
   12    7    3      0.69      0.00
   13    7    3      0.61      0.00
   -8    8    3     -0.11      0.00
   -7    8    3      1.70      0.00
   -6    8    3     -0.64      0.00
   -5    8    3     -2.84      0.00
   -4    8    3     -1.71      0.00
   -3    8    3      5.62      0.00
   -2    8    3     -0.24      0.00
   -1    8    3     -4.44      0.00
    0    8    3     -1.91      0.00
    1    8    3      9.08      0.00
    2    8    3      1.47      0.00
    3    8    3      3.52      0.00
    4    8    3     -2.13      0.00
    5    8    3      5.53      0.00
    6    8    3     -3.60      0.00
    7    8    3      1.31      0.00
    8    8    3      0.53      0.00
    9    8    3     -4.69      0.00
   10    8    3     -1.82      0.00
   11    8    3     -0.49      0.00
   12    8    3      0.82      0.00
   13    8    3      0.59      0.00
   -7    9    3      1.49      0.00
   -6    9    3     -2.27      0.00
   -5    9    3     -0.95      0.00
   -4    9    3      3.26      0.00
   -3    9    3      2.80      0.00
   -2    9    3     -3.13      0.00
   -1    9    3     -3.00      0.00
    0    9    3      0.67      0.00
    1    9    3      5.83      0.00
    2    9    3      0.18      0.00
    3    9    3      3.16      0.00
    4    9    3      0.56      0.00
    5    9    3      5.91      0.00
    6    9    3      1.14      0.00
    7    9    3      6.75      0.00
    8    9    3      0.31      0.00
    9    9    3     -2.48      0.00
   10    9    3      0.38      0.00
   11    9    3      0.84      0.00
   12    9    3      0.84      0.00
   13    9    3     -0.27      0.00
   -6   10    3     -2.54      0.00
   -5   10    3      0.71      0.00
   -4   10    3      3.31      0.00
   -3   10    3     -0.42      0.00
   -2   10    3     -3.65      0.00
   -1   10    3     -2.96      0.00
    0   10    3      0.48      0.00
    1   10    3     -0.58      0.00
    2   10    3     -4.94      0.00
    3   10    3     -1.25      0.00
    4   10    3     -1.51      0.00
    5   10    3      2.03      0.00
    6   10    3      3.64      0.00
    7   10    3      4.60      0.00
    8   10    3     -1.59      0.00
    9   10    3     -1.08      0.00
   10   10    3      1.90      0.00
   11   10    3      0.77      0.00
   12   10    3     -0.61      0.00
   -5   11    3      1.86      0.00
   -4   11    3      1.38      0.00
   -3   11    3     -3.00      0.00
   -2   11    3     -2.61      0.00
   -1   11    3      0.70      0.00
    0   11    3      1.81      0.00
    1   11    3     -3.67      0.00
    2   11    3     -3.53      0.00
    3   11    3     -3.13      0.00
    4   11    3     -4.81      0.00
    5   11    3      1.22      0.00
    6   11    3      3.84      0.00
    7   11    3     -1.40      0.00
    8   11    3     -1.98      0.00
    9   11    3      0.28      0.00
   10   11    3      0.73      0.00
   11   11    3     -1.22      0.00
   12   11    3     -1.33      0.00
   -4   12    3      0.17      0.00
   -3   12    3     -1.18      0.00
   -2   12    3      1.23      0.00
   -1   12    3      3.10      0.00
    0   12    3      1.66      0.00
    1   12    3      0.25      0.00
    2   12    3      1.24      0.00
    3   12    3     -2.84      0.00
    4   12    3     -0.50      0.00
    5   12    3      4.73      0.00
    6   12    3     -0.98      0.00
    7   12    3     -4.15      0.00
    8   12    3      0.51      0.00
    9   12    3      0.00      0.00
   10   12    3     -0.21      0.00
   11   12    3     -0.70      0.00
   12   12    3     -1.00      0.00
   -3   13    3     -0.16      0.00
   -2   13    3      0.65      0.00
   -1   13    3      1.98      0.00
    0   13    3      1.50      0.00
    1   13    3      1.86      0.00
    2   13    3     -0.65      0.00
    3   13    3      0.77      0.00
    4   13    3      5.03      0.00
    5   13    3      2.79      0.00
    6   13    3     -4.38      0.00
    7   13    3     -1.71      0.00
    8   13    3      0.39      0.00
    9   13    3     -0.75      0.00
   10   13    3      1.57      0.00
   11   13    3      0.60      0.00
   -1   14    3      1.02      0.00
    0   14    3     -0.87      0.00
    1   14    3     -1.28      0.00
    2   14    3     -2.13      0.00
    3   14    3      3.55      0.00
    4   14    3      2.16      0.00
    5   14    3     -0.56      0.00
    6   14    3     -3.67      0.00
    7   14    3     -1.42      0.00
    8   14    3     -0.75      0.00
    9   14    3     -0.81      0.00
   10   14    3      0.89      0.00
    1   15    3     -0.40      0.00
    2   15    3     -0.43      0.00
    3   15    3      2.34      0.00
    4   15    3     -0.28      0.00
    5   15    3     -0.44      0.00
    6   15    3     -2.72      0.00
    7   15    3      0.27      0.00
    8   15    3      0.84      0.00
   -7  -14    4      0.13      0.00
   -6  -14    4      0.55      0.00
   -5  -14    4      0.54      0.00
   -4  -14    4      0.65      0.00
   -3  -14    4      1.64      0.00
   -2  -14    4      1.02      0.00
   -9  -13    4     -0.09      0.00
   -8  -13    4      2.82      0.00
   -7  -13    4     -0.84      0.00
   -6  -13    4     -1.42      0.00
   -5  -13    4     -1.80      0.00
   -4  -13    4      0.36      0.00
   -3  -13    4      1.77      0.00
   -2  -13    4      0.34      0.00
   -1  -13    4      1.01      0.00
    0  -13    4      0.52      0.00
    1  -13    4      0.74      0.00
  -10  -12    4      0.88      0.00
   -9  -12    4      1.43      0.00
   -8  -12    4      3.91      0.00
   -7  -12    4     -3.37      0.00
   -6  -12    4     -2.68      0.00
   -5  -12    4     -0.19      0.00
   -4  -12    4      0.13      0.00
   -3  -12    4     -1.15      0.00
   -2  -12    4     -1.73      0.00
   -1  -12    4     -0.37      0.00
    0  -12    4     -1.50      0.00
    1  -12    4     -0.25      0.00
    2  -12    4      0.53      0.00
    3  -12    4     -0.30      0.00
  -11  -11    4      1.27      0.00
  -10  -11    4      1.18      0.00
   -9  -11    4      3.37      0.00
   -8  -11    4      0.07      0.00
   -7  -11    4     -4.50      0.00
   -6  -11    4      1.82      0.00
   -5  -11    4      2.67      0.00
   -4  -11    4     -0.12      0.00
   -3  -11    4     -0.29      0.00
   -2  -11    4     -1.36      0.00
   -1  -11    4     -1.67      0.00
    0  -11    4     -0.56      0.00
    1  -11    4      2.69      0.00
    2  -11    4      1.43      0.00
    3  -11    4     -1.82      0.00
    4  -11    4     -0.32      0.00
  -11  -10    4      0.79      0.00
  -10  -10    4      2.09      0.00
   -9  -10    4     -0.12      0.00
   -8  -10    4     -4.51      0.00
   -7  -10    4     -1.09      0.00
   -6  -10    4      2.87      0.00
   -5  -10    4      0.51      0.00
   -4  -10    4      1.31      0.00
   -3  -10    4     -0.46      0.00
   -2  -10    4     -2.91      0.00
   -1  -10    4     -0.17      0.00
    0  -10    4      3.40      0.00
    1  -10    4      3.11      0.00
    2  -10    4     -0.70      0.00
    3  -10    4     -1.39      0.00
    4  -10    4      2.42      0.00
    5  -10    4      1.33      0.00
  -12   -9    4     -1.55      0.00
  -11   -9    4      1.20      0.00
  -10   -9    4      0.09      0.00
   -9   -9    4     -4.98      0.00
   -8   -9    4     -1.82      0.00
   -7   -9    4      0.10      0.00
   -6   -9    4      1.05      0.00
   -5   -9    4      0.42      0.00
   -4   -9    4      0.50      0.00
   -3   -9    4     -5.53      0.00
   -2   -9    4     -1.92      0.00
   -1   -9    4      2.49      0.00
    0   -9    4      2.99      0.00
    1   -9    4     -1.61      0.00
    2   -9    4     -4.43      0.00
    3   -9    4     -1.50      0.00
    4   -9    4      2.11      0.00
    5   -9    4      0.43      0.00
    6   -9    4      0.26      0.00
  -12   -8    4      0.58      0.00
  -11   -8    4      2.05      0.00
  -10   -8    4     -1.84      0.00
   -9   -8    4     -3.79      0.00
   -8   -8    4      0.72      0.00
   -7   -8    4     -2.06      0.00
   -6   -8    4      4.05      0.00
   -5   -8    4      0.24      0.00
   -4   -8    4     -1.18      0.00
   -3   -8    4     -4.32      0.00
   -2   -8    4      2.27      0.00
   -1   -8    4      2.30      0.00
    0   -8    4      0.68      0.00
    1   -8    4     -7.09      0.00
    2   -8    4     -6.30      0.00
    3   -8    4      0.54      0.00
    4   -8    4      1.77      0.00
    5   -8    4     -0.94      0.00
    6   -8    4     -1.06      0.00
    7   -8    4     -1.07      0.00
  -12   -7    4      0.94      0.00
  -11   -7    4      1.83      0.00
  -10   -7    4     -1.31      0.00
   -9   -7    4      0.64      0.00
   -8   -7    4      1.20      0.00
   -7   -7    4      0.06      0.00
   -6   -7    4      4.54      0.00
   -5   -7    4     -3.64      0.00
   -4   -7    4      0.66      0.00
   -3   -7    4     -0.91      0.00
   -2   -7    4      7.16      0.00
   -1   -7    4      6.94      0.00
    0   -7    4     -0.14      0.00
    1   -7    4     -9.08      0.00
    2   -7    4      0.24      0.00
    3   -7    4      5.03      0.00
    4   -7    4     -0.15      0.00
    5   -7    4     -1.96      0.00
    6   -7    4     -0.92      0.00
    7   -7    4     -0.85      0.00
    8   -7    4     -0.12      0.00
  -13   -6    4      1.01      0.00
  -12   -6    4      0.15      0.00
  -11   -6    4     -0.09      0.00
  -10   -6    4     -1.87      0.00
   -9   -6    4      2.20      0.00
   -8   -6    4     -0.09      0.00
   -7   -6    4      1.76      0.00
   -6   -6    4     -0.44      0.00
   -5   -6    4     -6.19      0.00
   -4   -6    4     -2.36      0.00
   -3   -6    4     -3.06      0.00
   -2   -6    4     12.06      0.00
   -1   -6    4      4.55      0.00
    0   -6    4     -6.33      0.00
    1   -6    4     -1.25      0.00
    2   -6    4     10.80      0.00
    3   -6    4      4.41      0.00
    4   -6    4     -1.30      0.00
    5   -6    4     -0.14      0.00
    6   -6    4     -0.96      0.00
    7   -6    4     -0.37      0.00
    8   -6    4      1.69      0.00
    9   -6    4      2.17      0.00
  -13   -5    4     -0.08      0.00
  -12   -5    4     -0.96      0.00
  -11   -5    4     -1.13      0.00
  -10   -5    4     -0.31      0.00
   -9   -5    4      2.20      0.00
   -8   -5    4     -1.27      0.00
   -7   -5    4      2.79      0.00
   -6   -5    4     -3.49      0.00
   -5   -5    4     -6.74      0.00
   -4   -5    4     -4.97      0.00
   -3   -5    4      1.94      0.00
   -2   -5    4     11.44      0.00
   -1   -5    4    -10.69      0.00
    0   -5    4     -7.77      0.00
    1   -5    4      7.72      0.00
    2   -5    4      5.97      0.00
    3   -5    4     -1.27      0.00
    4   -5    4      0.48      0.00
    5   -5    4     -0.30      0.00
    6   -5    4     -2.89      0.00
    7   -5    4      0.68      0.00
    8   -5    4      1.71      0.00
    9   -5    4      1.03      0.00
  -13   -4    4     -1.04      0.00
  -12   -4    4     -1.32      0.00
  -11   -4    4     -0.38      0.00
  -10   -4    4      1.30      0.00
   -9   -4    4      1.44      0.00
   -8   -4    4      1.57      0.00
   -7   -4    4      5.11      0.00
   -6   -4    4     -1.41      0.00
   -5   -4    4     -1.56      0.00
   -4   -4    4      4.64      0.00
   -3   -4    4     11.48      0.00
   -2   -4    4      0.62      0.00
   -1   -4    4    -19.15      0.00
    0   -4    4      3.29      0.00
    1   -4    4      8.39      0.00
    2   -4    4     -1.85      0.00
    3   -4    4      1.04      0.00
    4   -4    4      0.28      0.00
    5   -4    4     -4.20      0.00
    6   -4    4     -2.47      0.00
    7   -4    4      3.11      0.00
    8   -4    4      0.35      0.00
    9   -4    4     -1.83      0.00
   10   -4    4     -2.84      0.00
  -13   -3    4     -0.22      0.00
  -12   -3    4      0.51      0.00
  -11   -3    4      0.16      0.00
  -10   -3    4      0.98      0.00
   -9   -3    4     -0.19      0.00
   -8   -3    4      1.49      0.00
   -7   -3    4      0.54      0.00
   -6   -3    4     -0.81      0.00
   -5   -3    4      1.88      0.00
   -4   -3    4     17.36      0.00
   -3   -3    4     10.19      0.00
   -2   -3    4    -12.11      0.00
   -1   -3    4    -12.12      0.00
    0   -3    4     11.77      0.00
    1   -3    4     -1.57      0.00
    2   -3    4     -2.18      0.00
    3   -3    4      5.06      0.00
    4   -3    4     -2.16      0.00
    5   -3    4     -2.97      0.00
    6   -3    4      4.10      0.00
    7   -3    4      6.21      0.00
    8   -3    4     -0.37      0.00
    9   -3    4     -2.67      0.00
   10   -3    4     -1.09      0.00
   11   -3    4      0.52      0.00
  -12   -2    4      0.69      0.00
  -11   -2    4     -0.33      0.00
  -10   -2    4      0.71      0.00
   -9   -2    4     -1.57      0.00
   -8   -2    4     -0.01      0.00
   -7   -2    4     -6.23      0.00
   -6   -2    4     -5.04      0.00
   -5   -2    4     -2.48      0.00
   -4   -2    4     17.52      0.00
   -3   -2    4    -15.55      0.00
   -2   -2    4    -13.38      0.00
   -1   -2    4      1.36      0.00
    0   -2    4      7.38      0.00
    1   -2    4    -14.35      0.00
    2   -2    4      1.94      0.00
    3   -2    4     -2.87      0.00
    4   -2    4     -8.86      0.00
    5   -2    4     -0.48      0.00
    6   -2    4      9.45      0.00
    7   -2    4      3.49      0.00
    8   -2    4     -2.07      0.00
    9   -2    4     -0.21      0.00
   10   -2    4      3.21      0.00
   11   -2    4      0.18      0.00
  -12   -1    4     -0.17      0.00
  -11   -1    4     -0.30      0.00
  -10   -1    4      0.31      0.00
   -9   -1    4     -0.13      0.00
   -8   -1    4      1.31      0.00
   -7   -1    4     -8.70      0.00
   -6   -1    4     -0.18      0.00
   -5   -1    4      2.14      0.00
   -4   -1    4      7.24      0.00
   -3   -1    4    -35.60      0.00
   -2   -1    4     15.48      0.00
   -1   -1    4     -1.77      0.00
    0   -1    4      0.00      0.00
    1   -1    4     -9.55      0.00
    2   -1    4      8.88      0.00
    3   -1    4    -20.07      0.00
    4   -1    4     -8.87      0.00
    5   -1    4      3.54      0.00
    6   -1    4      6.17      0.00
    7   -1    4     -7.06      0.00
    8   -1    4     -2.71      0.00
    9   -1    4      1.76      0.00
   10   -1    4      2.97      0.00
   11   -1    4     -1.09      0.00
   12   -1    4      0.85      0.00
  -12    0    4     -1.54      0.00
  -11    0    4     -1.20      0.00
  -10    0    4      1.27      0.00
   -9    0    4      2.08      0.00
   -8    0    4     -0.94      0.00
   -7    0    4     -5.57      0.00
   -6    0    4     11.85      0.00
   -5    0    4      1.52      0.00
   -4    0    4     -3.85      0.00
   -3    0    4    -14.30      0.00
   -2    0    4     43.90      0.00
   -1    0    4    -19.20      0.00
    0    0    4     29.84      0.00
    1    0    4     13.39      0.00
    2    0    4      9.62      0.00
    3    0    4    -22.68      0.00
    4    0    4     11.27      0.00
    5    0    4      4.97      0.00
    6    0    4     -2.28      0.00
    7    0    4    -10.16      0.00
    8    0    4      1.08      0.00
    9    0    4     -1.46      0.00
   10    0    4     -0.80      0.00
   11    0    4     -1.17      0.00
   12    0    4      2.06      0.00
  -12    1    4     -2.02      0.00
  -11    1    4     -0.39      0.00
  -10    1    4      2.45      0.00
   -9    1    4     -1.39      0.00
   -8    1    4     -3.53      0.00
   -7    1    4      2.80      0.00
   -6    1    4      9.97      0.00
   -5    1    4    -10.80      0.00
   -4    1    4     -2.72      0.00
   -3    1    4      3.17      0.00
   -2    1    4     13.21      0.00
   -1    1    4    -28.79      0.00
    0    1    4     52.63      0.00
    1    1    4     -3.88      0.00
    2    1    4      2.96      0.00
    3    1    4     -0.01      0.00
    4    1    4     29.94      0.00
    5    1    4     -1.26      0.00
    6    1    4     -2.77      0.00
    7    1    4     -3.11      0.00
    8    1    4      3.13      0.00
    9    1    4     -2.58      0.00
   10    1    4      0.70      0.00
   11    1    4     -1.76      0.00
   12    1    4     -0.35      0.00
  -11    2    4      2.32      0.00
  -10    2    4      1.32      0.00
   -9    2    4     -3.47      0.00
   -8    2    4     -0.12      0.00
   -7    2    4      4.53      0.00
   -6    2    4     -2.98      0.00
   -5    2    4     -7.35      0.00
   -4    2    4      7.89      0.00
   -3    2    4     -2.73      0.00
   -2    2    4    -15.05      0.00
   -1    2    4    -11.63      0.00
    0    2    4     13.53      0.00
    1    2    4    -49.43      0.00
    2    2    4     -8.24      0.00
    3    2    4      2.33      0.00
    4    2    4     16.77      0.00
    5    2    4     -7.33      0.00
    6    2    4      2.08      0.00
    7    2    4      0.00      0.00
    8    2    4      1.15      0.00
    9    2    4      0.84      0.00
   10    2    4      3.19      0.00
   11    2    4     -1.42      0.00
   12    2    4      0.03      0.00
   13    2    4     -0.49      0.00
  -11    3    4      0.81      0.00
  -10    3    4     -1.14      0.00
   -9    3    4     -0.26      0.00
   -8    3    4      3.00      0.00
   -7    3    4      1.71      0.00
   -6    3    4     -5.87      0.00
   -5    3    4      4.34      0.00
   -4    3    4      5.02      0.00
   -3    3    4     -3.80      0.00
   -2    3    4      2.57      0.00
   -1    3    4     11.80      0.00
    0    3    4    -14.28      0.00
    1    3    4    -32.94      0.00
    2    3    4     -5.72      0.00
    3    3    4     -5.08      0.00
    4    3    4     -2.14      0.00
    5    3    4    -10.97      0.00
    6    3    4      0.06      0.00
    7    3    4     -0.06      0.00
    8    3    4     -0.32      0.00
    9    3    4      1.50      0.00
   10    3    4     -0.70      0.00
   11    3    4     -1.73      0.00
   12    3    4      0.47      0.00
   13    3    4      0.14      0.00
  -10    4    4     -1.42      0.00
   -9    4    4      0.59      0.00
   -8    4    4      0.60      0.00
   -7    4    4      0.49      0.00
   -6    4    4     -0.72      0.00
   -5    4    4      7.83      0.00
   -4    4    4     -2.51      0.00
   -3    4    4      1.29      0.00
   -2    4    4     11.03      0.00
   -1    4    4      7.43      0.00
    0    4    4     -8.35      0.00
    1    4    4      4.23      0.00
    2    4    4      7.37      0.00
    3    4    4      9.54      0.00
    4    4    4     -4.82      0.00
    5    4    4     -5.68      0.00
    6    4    4      1.04      0.00
    7    4    4      2.73      0.00
    8    4    4      0.88      0.00
    9    4    4      3.57      0.00
   10    4    4     -2.90      0.00
   11    4    4     -1.09      0.00
   12    4    4     -0.60      0.00
   13    4    4      0.31      0.00
  -10    5    4      0.25      0.00
   -9    5    4      0.58      0.00
   -8    5    4     -1.62      0.00
   -7    5    4     -1.77      0.00
   -6    5    4     -0.32      0.00
   -5    5    4      1.23      0.00
   -4    5    4     -5.35      0.00
   -3    5    4      4.54      0.00
   -2    5    4      5.40      0.00
   -1    5    4     -5.90      0.00
    0    5    4     -4.41      0.00
    1    5    4      8.12      0.00
    2    5    4     11.04      0.00
    3    5    4      8.65      0.00
    4    5    4     -7.27      0.00
    5    5    4      4.29      0.00
    6    5    4     -0.18      0.00
    7    5    4      3.18      0.00
    8    5    4      3.25      0.00
    9    5    4      5.13      0.00
   10    5    4     -2.55      0.00
   11    5    4      1.92      0.00
   12    5    4      0.58      0.00
   13    5    4      1.09      0.00
   -9    6    4      0.97      0.00
   -8    6    4     -0.54      0.00
   -7    6    4     -0.14      0.00
   -6    6    4     -0.27      0.00
   -5    6    4     -6.19      0.00
   -4    6    4     -3.15      0.00
   -3    6    4      4.27      0.00
   -2    6    4     -2.44      0.00
   -1    6    4    -11.74      0.00
    0    6    4      1.63      0.00
    1    6    4      6.19      0.00
    2    6    4      6.75      0.00
    3    6    4     -3.08      0.00
    4    6    4     -0.94      0.00
    5    6    4      4.06      0.00
    6    6    4     -7.48      0.00
    7    6    4      2.36      0.00
    8    6    4     -0.72      0.00
    9    6    4     -1.30      0.00
   10    6    4     -3.34      0.00
   11    6    4      2.45      0.00
   12    6    4      0.36      0.00
   13    6    4      0.27      0.00
   -9    7    4      0.12      0.00
   -8    7    4      0.38      0.00
   -7    7    4      0.92      0.00
   -6    7    4     -0.90      0.00
   -5    7    4     -3.42      0.00
   -4    7    4      5.81      0.00
   -3    7    4      1.35      0.00
   -2    7    4     -7.37      0.00
   -1    7    4     -6.76      0.00
    0    7    4      7.95      0.00
    1    7    4      1.31      0.00
    2    7    4      2.35      0.00
    3    7    4     -1.71      0.00
    4    7    4      7.68      0.00
    5    7    4     -1.21      0.00
    6    7    4     -0.91      0.00
    7    7    4      3.98      0.00
    8    7    4     -6.34      0.00
    9    7    4     -4.91      0.00
   10    7    4     -2.76      0.00
   11    7    4      0.93      0.00
   12    7    4      0.27      0.00
   13    7    4     -0.65      0.00
   -8    8    4      0.58      0.00
   -7    8    4     -1.53      0.00
   -6    8    4     -1.18      0.00
   -5    8    4      2.49      0.00
   -4    8    4      6.41      0.00
   -3    8    4     -2.93      0.00
   -2    8    4     -3.72      0.00
   -1    8    4      0.82      0.00
    0    8    4      6.12      0.00
    1    8    4     -2.96      0.00
    2    8    4      2.13      0.00
    3    8    4     -1.41      0.00
    4    8    4      4.76      0.00
    5    8    4     -1.61      0.00
    6    8    4      9.30      0.00
    7    8    4      2.73      0.00
    8    8    4     -3.22      0.00
    9    8    4     -0.24      0.00
   10    8    4     -0.36      0.00
   11    8    4      0.96      0.00
   12    8    4      0.40      0.00
   13    8    4     -0.72      0.00
   -7    9    4     -2.14      0.00
   -6    9    4      1.29      0.00
   -5    9    4      3.43      0.00
   -4    9    4      0.96      0.00
   -3    9    4     -3.28      0.00
   -2    9    4     -1.03      0.00
   -1    9    4      1.00      0.00
    0    9    4      1.50      0.00
    1    9    4     -4.38      0.00
    2    9    4     -1.01      0.00
    3    9    4     -5.22      0.00
    4    9    4      0.27      0.00
    5    9    4     -0.77      0.00
    6    9    4      6.79      0.00
    7    9    4     -2.43      0.00
    8    9    4     -0.41      0.00
    9    9    4      2.42      0.00
   10    9    4      1.45      0.00
   11    9    4      0.79      0.00
   12    9    4     -0.67      0.00
   13    9    4     -0.30      0.00
   -6   10    4      2.12      0.00
   -5   10    4      1.08      0.00
   -4   10    4     -2.42      0.00
   -3   10    4     -2.41      0.00
   -2   10    4     -0.13      0.00
   -1   10    4      2.43      0.00
    0   10    4      0.05      0.00
    1   10    4     -3.44      0.00
    2   10    4     -2.09      0.00
    3   10    4     -5.61      0.00
    4   10    4     -1.16      0.00
    5   10    4      0.00      0.00
    6   10    4     -0.57      0.00
    7   10    4     -5.96      0.00
    8   10    4     -0.91      0.00
    9   10    4      1.89      0.00
   10   10    4      0.10      0.00
   11   10    4     -0.57      0.00
   12   10    4     -0.08      0.00
   -5   11    4      0.00      0.00
   -4   11    4     -2.27      0.00
   -3   11    4      0.12      0.00
   -2   11    4      2.09      0.00
   -1   11    4      3.01      0.00
    0   11    4      0.55      0.00
    1   11    4      2.35      0.00
    2   11    4      0.32      0.00
    3   11    4     -1.65      0.00
    4   11    4      3.36      0.00
    5   11    4      0.19      0.00
    6   11    4     -6.02      0.00
    7   11    4     -3.77      0.00
    8   11    4      0.10      0.00
    9   11    4      0.95      0.00
   10   11    4     -0.66      0.00
   11   11    4      0.09      0.00
   12   11    4      0.57      0.00
   -4   12    4     -0.59      0.00
   -3   12    4      2.02      0.00
   -2   12    4      2.03      0.00
   -1   12    4      1.87      0.00
    0   12    4      1.71      0.00
    1   12    4      2.18      0.00
    2   12    4     -0.47      0.00
    3   12    4      4.68      0.00
    4   12    4      6.27      0.00
    5   12    4     -3.06      0.00
    6   12    4     -4.15      0.00
    7   12    4      0.29      0.00
    8   12    4     -0.74      0.00
    9   12    4      0.79      0.00
   10   12    4      0.91      0.00
   11   12    4      0.75      0.00
   12   12    4      0.61      0.00
   -3   13    4     -0.31      0.00
   -2   13    4      0.01      0.00
   -1   13    4     -0.35      0.00
    0   13    4     -1.57      0.00
    1   13    4     -3.17      0.00
    2   13    4      0.68      0.00
    3   13    4      4.85      0.00
    4   13    4      0.85      0.00
    5   13    4     -3.81      0.00
    6   13    4      0.84      0.00
    7   13    4      0.09      0.00
    8   13    4     -0.99      0.00
    9   13    4      1.40      0.00
   10   13    4     -0.22      0.00
   11   13    4      0.04      0.00
   -1   14    4     -1.97      0.00
    0   14    4     -2.73      0.00
    1   14    4     -2.27      0.00
    2   14    4      2.18      0.00
    3   14    4     -0.91      0.00
    4   14    4     -2.21      0.00
    5   14    4     -2.19      0.00
    6   14    4      1.47      0.00
    7   14    4      0.52      0.00
    8   14    4      0.56      0.00
    9   14    4      0.20      0.00
   10   14    4     -2.15      0.00
    1   15    4      0.54      0.00
    2   15    4      1.70      0.00
    3   15    4     -2.00      0.00
    4   15    4     -1.20      0.00
    5   15    4     -1.78      0.00
    6   15    4      2.51      0.00
    7   15    4      2.22      0.00
    8   15    4      0.75      0.00
    9   15    4      1.24      0.00
    5   16    4     -0.03      0.00
   -6  -14    5     -0.72      0.00
   -5  -14    5     -0.43      0.00
   -4  -14    5      1.47      0.00
   -3  -14    5      0.98      0.00
   -8  -13    5     -2.30      0.00
   -7  -13    5     -1.15      0.00
   -6  -13    5     -1.63      0.00
   -5  -13    5      0.16      0.00
   -4  -13    5      0.50      0.00
   -3  -13    5     -2.66      0.00
   -2  -13    5     -1.92      0.00
   -1  -13    5     -1.06      0.00
    0  -13    5      0.28      0.00
  -10  -12    5      1.13      0.00
   -9  -12    5      0.81      0.00
   -8  -12    5     -4.41      0.00
   -7  -12    5      0.35      0.00
   -6  -12    5      1.77      0.00
   -5  -12    5      1.92      0.00
   -4  -12    5      0.08      0.00
   -3  -12    5     -2.44      0.00
   -2  -12    5     -1.47      0.00
   -1  -12    5     -1.48      0.00
    0  -12    5      0.78      0.00
    1  -12    5      0.29      0.00
    2  -12    5     -0.58      0.00
  -11  -11    5      0.30      0.00
  -10  -11    5      0.90      0.00
   -9  -11    5     -3.36      0.00
   -8  -11    5     -3.76      0.00
   -7  -11    5      3.24      0.00
   -6  -11    5      2.01      0.00
   -5  -11    5      1.33      0.00
   -4  -11    5      1.30      0.00
   -3  -11    5     -0.94      0.00
   -2  -11    5     -0.02      0.00
   -1  -11    5      1.97      0.00
    0  -11    5      3.48      0.00
    1  -11    5     -0.58      0.00
    2  -11    5     -1.37      0.00
    3  -11    5      1.04      0.00
    4  -11    5      1.18      0.00
  -11  -10    5      0.08      0.00
  -10  -10    5     -2.06      0.00
   -9  -10    5     -4.27      0.00
   -8  -10    5      0.58      0.00
   -7  -10    5      1.83      0.00
   -6  -10    5     -0.10      0.00
   -5  -10    5      1.19      0.00
   -4  -10    5     -1.60      0.00
   -3  -10    5     -2.20      0.00
   -2  -10    5      2.39      0.00
   -1  -10    5      3.91      0.00
    0  -10    5      0.21      0.00
    1  -10    5     -4.46      0.00
    2  -10    5     -1.59      0.00
    3  -10    5      1.76      0.00
    4  -10    5      0.43      0.00
    5  -10    5      0.61      0.00
  -12   -9    5      1.46      0.00
  -11   -9    5     -0.78      0.00
  -10   -9    5     -2.68      0.00
   -9   -9    5      0.10      0.00
   -8   -9    5      0.84      0.00
   -7   -9    5      1.00      0.00
   -6   -9    5      1.21      0.00
   -5   -9    5     -0.64      0.00
   -4   -9    5     -5.23      0.00
   -3   -9    5      1.07      0.00
   -2   -9    5      3.77      0.00
   -1   -9    5      1.35      0.00
    0   -9    5     -4.01      0.00
    1   -9    5     -4.95      0.00
    2   -9    5     -0.14      0.00
    3   -9    5      1.17      0.00
    4   -9    5     -1.37      0.00
    5   -9    5     -0.68      0.00
    6   -9    5     -0.87      0.00
  -12   -8    5      1.59      0.00
  -11   -8    5     -0.28      0.00
  -10   -8    5      1.03      0.00
   -9   -8    5      2.49      0.00
   -8   -8    5     -0.02      0.00
   -7   -8    5      4.18      0.00
   -6   -8    5     -1.37      0.00
   -5   -8    5     -2.38      0.00
   -4   -8    5     -2.29      0.00
   -3   -8    5      5.63      0.00
   -2   -8    5      3.44      0.00
   -1   -8    5      0.44      0.00
    0   -8    5     -5.35      0.00
    1   -8    5     -1.08      0.00
    2   -8    5      4.45      0.00
    3   -8    5      1.85      0.00
    4   -8    5     -1.71      0.00
    5   -8    5     -1.21      0.00
    6   -8    5     -1.58      0.00
    7   -8    5     -0.75      0.00
  -12   -7    5      0.35      0.00
  -11   -7    5     -0.78      0.00
  -10   -7    5      1.67      0.00
   -9   -7    5      0.94      0.00
   -8   -7    5      2.03      0.00
   -7   -7    5      3.62      0.00
   -6   -7    5     -4.92      0.00
   -5   -7    5     -0.43      0.00
   -4   -7    5     -1.74      0.00
   -3   -7    5      6.24      0.00
   -2   -7    5      2.94      0.00
   -1   -7    5     -2.53      0.00
    0   -7    5     -3.75      0.00
    1   -7    5      7.90      0.00
    2   -7    5      7.14      0.00
    3   -7    5      0.15      0.00
    4   -7    5     -0.60      0.00
    5   -7    5     -0.17      0.00
    6   -7    5     -0.46      0.00
    7   -7    5      1.17      0.00
    8   -7    5      1.72      0.00
  -12   -6    5     -0.35      0.00
  -11   -6    5     -1.47      0.00
  -10   -6    5      0.30      0.00
   -9   -6    5     -1.76      0.00
   -8   -6    5      1.82      0.00
   -7   -6    5     -0.77      0.00
   -6   -6    5     -3.53      0.00
   -5   -6    5     -0.16      0.00
   -4   -6    5     -1.22      0.00
   -3   -6    5      7.17      0.00
   -2   -6    5     -6.62      0.00
   -1   -6    5     -9.99      0.00
    0   -6    5      1.43      0.00
    1   -6    5      8.71      0.00
    2   -6    5      0.32      0.00
    3   -6    5     -0.35      0.00
    4   -6    5      1.59      0.00
    5   -6    5     -0.73      0.00
    6   -6    5      0.81      0.00
    7   -6    5      2.50      0.00
    8   -6    5      1.24      0.00
    9   -6    5     -1.01      0.00
  -12   -5    5     -0.52      0.00
  -11   -5    5     -0.29      0.00
  -10   -5    5      0.31      0.00
   -9   -5    5     -1.20      0.00
   -8   -5    5      2.64      0.00
   -7   -5    5     -2.50      0.00
   -6   -5    5     -0.82      0.00
   -5   -5    5      2.43      0.00
   -4   -5    5      7.17      0.00
   -3   -5    5      4.82      0.00
   -2   -5    5    -16.05      0.00
   -1   -5    5     -3.42      0.00
    0   -5    5      5.30      0.00
    1   -5    5     -2.01      0.00
    2   -5    5     -4.13      0.00
    3   -5    5     -0.11      0.00
    4   -5    5     -3.02      0.00
    5   -5    5     -2.72      0.00
    6   -5    5      3.40      0.00
    7   -5    5      1.71      0.00
    8   -5    5     -1.61      0.00
    9   -5    5     -3.37      0.00
  -12   -4    5      0.46      0.00
  -11   -4    5      0.19      0.00
  -10   -4    5     -0.15      0.00
   -9   -4    5      0.72      0.00
   -8   -4    5      1.30      0.00
   -7   -4    5     -4.06      0.00
   -6   -4    5      1.24      0.00
   -5   -4    5      8.53      0.00
   -4   -4    5      9.88      0.00
   -3   -4    5     -3.64      0.00
   -2   -4    5    -11.32      0.00
   -1   -4    5     10.23      0.00
    0   -4    5      0.64      0.00
    1   -4    5     -5.19      0.00
    2   -4    5      1.53      0.00
    3   -4    5     -3.08      0.00
    4   -4    5     -6.24      0.00
    5   -4    5      1.37      0.00
    6   -4    5      5.57      0.00
    7   -4    5     -0.58      0.00
    8   -4    5     -2.56      0.00
    9   -4    5     -2.10      0.00
   10   -4    5      0.77      0.00
  -12   -3    5      0.40      0.00
  -11   -3    5      0.19      0.00
  -10   -3    5     -0.18      0.00
   -9   -3    5      0.49      0.00
   -8   -3    5     -3.61      0.00
   -7   -3    5     -5.72      0.00
   -6   -3    5     -0.50      0.00
   -5   -3    5      7.82      0.00
   -4   -3    5     -3.63      0.00
   -3   -3    5    -10.93      0.00
   -2   -3    5      0.58      0.00
   -1   -3    5     12.70      0.00
    0   -3    5     -6.73      0.00
    1   -3    5      0.91      0.00
    2   -3    5      0.48      0.00
    3   -3    5     -9.34      0.00
    4   -3    5     -2.58      0.00
    5   -3    5      7.52      0.00
    6   -3    5      3.98      0.00
    7   -3    5     -2.98      0.00
    8   -3    5     -1.46      0.00
    9   -3    5      2.29      0.00
   10   -3    5      2.80      0.00
  -12   -2    5     -0.59      0.00
  -11   -2    5      0.18      0.00
  -10   -2    5     -0.18      0.00
   -9   -2    5      0.68      0.00
   -8   -2    5     -4.69      0.00
   -7   -2    5     -1.96      0.00
   -6   -2    5      1.39      0.00
   -5   -2    5      4.74      0.00
   -4   -2    5    -22.03      0.00
   -3   -2    5     -5.25      0.00
   -2   -2    5      3.87      0.00
   -1   -2    5      3.13      0.00
    0   -2    5     -5.70      0.00
    1   -2    5     11.18      0.00
    2   -2    5     -8.49      0.00
    3   -2    5     -9.76      0.00
    4   -2    5      3.12      0.00
    5   -2    5      6.86      0.00
    6   -2    5     -4.77      0.00
    7   -2    5     -5.60      0.00
    8   -2    5     -0.16      0.00
    9   -2    5      3.36      0.00
   10   -2    5      0.00      0.00
   11   -2    5      0.29      0.00
  -12   -1    5     -0.59      0.00
  -11   -1    5     -0.09      0.00
  -10   -1    5      0.94      0.00
   -9   -1    5      0.84      0.00
   -8   -1    5     -3.84      0.00
   -7   -1    5      6.56      0.00
   -6   -1    5      6.51      0.00
   -5   -1    5      1.78      0.00
   -4   -1    5    -19.29      0.00
   -3   -1    5     20.21      0.00
   -2   -1    5     -7.62      0.00
   -1   -1    5      5.62      0.00
    0   -1    5      7.75      0.00
    1   -1    5     13.77      0.00
    2   -1    5    -17.36      0.00
    3   -1    5      7.16      0.00
    4   -1    5     10.94      0.00
    5   -1    5      1.79      0.00
    6   -1    5    -11.30      0.00
    7   -1    5     -1.90      0.00
    8   -1    5     -0.18      0.00
    9   -1    5     -0.48      0.00
   10   -1    5     -2.52      0.00
   11   -1    5      1.58      0.00
  -12    0    5     -0.56      0.00
  -11    0    5      0.06      0.00
  -10    0    5      0.58      0.00
   -9    0    5     -2.21      0.00
   -8    0    5     -0.79      0.00
   -7    0    5     10.42      0.00
   -6    0    5     -1.47      0.00
   -5    0    5     -2.18      0.00
   -4    0    5     -2.16      0.00
   -3    0    5     22.48      0.00
   -2    0    5    -25.63      0.00
   -1    0    5     31.09      0.00
    0    0    5      3.18      0.00
    1    0    5     -1.15      0.00
    2    0    5    -11.90      0.00
    3    0    5     30.85      0.00
    4    0    5      7.18      0.00
    5    0    5     -1.70      0.00
    6    0    5     -4.98      0.00
    7    0    5      5.62      0.00
    8    0    5     -1.64      0.00
    9    0    5     -0.29      0.00
   10    0    5     -0.94      0.00
   11    0    5     -0.04      0.00
   12    0    5     -1.90      0.00
  -12    1    5      1.03      0.00
  -11    1    5      0.87      0.00
  -10    1    5     -1.74      0.00
   -9    1    5     -2.20      0.00
   -8    1    5      3.13      0.00
   -7    1    5      2.55      0.00
   -6    1    5     -8.89      0.00
   -5    1    5      4.21      0.00
   -4    1    5      0.98      0.00
   -3    1    5     -3.09      0.00
   -2    1    5    -19.55      0.00
   -1    1    5     31.81      0.00
    0    1    5    -41.99      0.00
    1    1    5    -14.95      0.00
    2    1    5     -3.76      0.00
    3    1    5     23.74      0.00
    4    1    5    -10.71      0.00
    5    1    5      1.52      0.00
    6    1    5      1.58      0.00
    7    1    5      4.87      0.00
    8    1    5     -0.63      0.00
    9    1    5      4.76      0.00
   10    1    5      0.22      0.00
   11    1    5     -0.92      0.00
   12    1    5     -1.29      0.00
  -11    2    5     -0.21      0.00
  -10    2    5     -0.96      0.00
   -9    2    5      2.03      0.00
   -8    2    5      2.05      0.00
   -7    2    5     -4.46      0.00
   -6    2    5     -1.09      0.00
   -5    2    5      6.75      0.00
   -4    2    5     -6.05      0.00
   -3    2    5     -1.54      0.00
   -2    2    5     10.73      0.00
   -1    2    5      6.87      0.00
    0    2    5    -46.92      0.00
    1    2    5      2.80      0.00
    2    2    5     -5.94      0.00
    3    2    5     -1.83      0.00
    4    2    5    -21.11      0.00
    5    2    5      0.53      0.00
    6    2    5     -2.80      0.00
    7    2    5      1.01      0.00
    8    2    5      1.66      0.00
    9    2    5      2.53      0.00
   10    2    5     -2.30      0.00
   11    2    5      0.91      0.00
   12    2    5      1.07      0.00
  -11    3    5     -1.14      0.00
  -10    3    5      0.59      0.00
   -9    3    5      1.31      0.00
   -8    3    5     -0.48      0.00
   -7    3    5     -1.49      0.00
   -6    3    5      5.99      0.00
   -5    3    5     -2.34      0.00
   -4    3    5     -4.52      0.00
   -3    3    5      9.78      0.00
   -2    3    5     12.56      0.00
   -1    3    5     -7.13      0.00
    0    3    5     -1.14      0.00
    1    3    5     24.31      0.00
    2    3    5      6.67      0.00
    3    3    5      0.50      0.00
    4    3    5    -11.63      0.00
    5    3    5     -1.14      0.00
    6    3    5     -3.54      0.00
    7    3    5      1.07      0.00
    8    3    5      2.55      0.00
    9    3    5     -2.27      0.00
   10    3    5     -2.82      0.00
   11    3    5      0.13      0.00
   12    3    5      0.10      0.00
   13    3    5      0.41      0.00
  -10    4    5      0.67      0.00
   -9    4    5     -1.18      0.00
   -8    4    5     -0.99      0.00
   -7    4    5     -0.36      0.00
   -6    4    5      2.06      0.00
   -5    4    5     -6.96      0.00
   -4    4    5      3.21      0.00
   -3    4    5      5.06      0.00
   -2    4    5     -4.80      0.00
   -1    4    5     -9.29      0.00
    0    4    5     11.57      0.00
    1    4    5     14.35      0.00
    2    4    5     14.42      0.00
    3    4    5      2.39      0.00
    4    4    5      2.69      0.00
    5    4    5      3.63      0.00
    6    4    5      1.49      0.00
    7    4    5      1.72      0.00
    8    4    5      3.50      0.00
    9    4    5     -2.94      0.00
   10    4    5      1.15      0.00
   11    4    5      0.55      0.00
   12    4    5      1.06      0.00
   13    4    5      0.10      0.00
  -10    5    5      0.31      0.00
   -9    5    5     -0.43      0.00
   -8    5    5      0.54      0.00
   -7    5    5     -0.61      0.00
   -6    5    5     -3.23      0.00
   -5    5    5     -5.20      0.00
   -4    5    5      4.70      0.00
   -3    5    5     -2.43      0.00
   -2    5    5    -10.21      0.00
   -1    5    5     -3.96      0.00
    0    5    5      4.77      0.00
    1    5    5      3.07      0.00
    2    5    5      0.94      0.00
    3    5    5     -5.29      0.00
    4    5    5      7.73      0.00
    5    5    5     -1.81      0.00
    6    5    5      2.51      0.00
    7    5    5      0.18      0.00
    8    5    5     -0.62      0.00
    9    5    5     -5.64      0.00
   10    5    5      2.92      0.00
   11    5    5      0.71      0.00
   12    5    5      2.26      0.00
   13    5    5      0.23      0.00
   -9    6    5     -0.20      0.00
   -8    6    5      1.46      0.00
   -7    6    5      0.26      0.00
   -6    6    5     -2.16      0.00
   -5    6    5      3.59      0.00
   -4    6    5      3.82      0.00
   -3    6    5     -6.52      0.00
   -2    6    5     -8.02      0.00
   -1    6    5      4.57      0.00
    0    6    5      2.45      0.00
    1    6    5     -0.44      0.00
    2    6    5     -5.90      0.00
    3    6    5      1.22      0.00
    4    6    5      2.05      0.00
    5    6    5     -5.84      0.00
    6    6    5      6.83      0.00
    7    6    5     -3.88      0.00
    8    6    5     -5.69      0.00
    9    6    5     -5.42      0.00
   10    6    5      1.90      0.00
   11    6    5     -1.16      0.00
   12    6    5      0.56      0.00
   13    6    5     -0.73      0.00
   -9    7    5     -0.13      0.00
   -8    7    5     -0.14      0.00
   -7    7    5     -1.51      0.00
   -6    7    5      0.87      0.00
   -5    7    5      8.02      0.00
   -4    7    5     -0.48      0.00
   -3    7    5     -3.89      0.00
   -2    7    5      1.26      0.00
   -1    7    5      8.60      0.00
    0    7    5     -2.80      0.00
    1    7    5     -1.09      0.00
    2    7    5     -4.12      0.00
    3    7    5      1.57      0.00
    4    7    5     -6.54      0.00
    5    7    5      3.65      0.00
    6    7    5      7.35      0.00
    7    7    5     -4.94      0.00
    8    7    5     -0.41      0.00
    9    7    5      0.49      0.00
   10    7    5      2.09      0.00
   11    7    5     -0.51      0.00
   12    7    5     -0.58      0.00
   13    7    5     -0.40      0.00
   -8    8    5     -0.95      0.00
   -7    8    5     -0.06      0.00
   -6    8    5      2.60      0.00
   -5    8    5      2.27      0.00
   -4    8    5     -4.93      0.00
   -3    8    5      0.34      0.00
   -2    8    5      4.12      0.00
   -1    8    5      4.45      0.00
    0    8    5     -3.49      0.00
    1    8    5      1.42      0.00
    2    8    5     -5.87      0.00
    3    8    5     -3.05      0.00
    4    8    5     -5.96      0.00
    5    8    5      7.04      0.00
    6    8    5     -3.19      0.00
    7    8    5     -2.19      0.00
    8    8    5      4.15      0.00
    9    8    5      3.62      0.00
   10    8    5      3.27      0.00
   11    8    5     -0.01      0.00
   12    8    5     -1.35      0.00
   13    8    5      0.41      0.00
   -7    9    5      1.94      0.00
   -6    9    5      1.01      0.00
   -5    9    5     -1.97      0.00
   -4    9    5     -3.18      0.00
   -3    9    5      0.60      0.00
   -2    9    5      1.50      0.00
   -1    9    5      1.62      0.00
    0    9    5     -1.70      0.00
    1    9    5      0.22      0.00
    2    9    5     -5.95      0.00
    3    9    5     -0.39      0.00
    4    9    5     -1.56      0.00
    5    9    5      1.68      0.00
    6    9    5     -9.90      0.00
    7    9    5     -1.40      0.00
    8    9    5      1.15      0.00
    9    9    5      1.95      0.00
   10    9    5      1.53      0.00
   11    9    5     -0.75      0.00
   12    9    5     -0.56      0.00
   13    9    5      0.01      0.00
   -6   10    5     -0.89      0.00
   -5   10    5     -2.01      0.00
   -4   10    5     -0.87      0.00
   -3   10    5      0.33      0.00
   -2   10    5      2.01      0.00
   -1   10    5      1.10      0.00
    0   10    5      0.30      0.00
    1   10    5      1.05      0.00
    2   10    5     -1.25      0.00
    3   10    5      4.36      0.00
    4   10    5      1.87      0.00
    5   10    5     -2.26      0.00
    6   10    5     -7.18      0.00
    7   10    5      0.20      0.00
    8   10    5      0.55      0.00
    9   10    5     -0.38      0.00
   10   10    5     -0.29      0.00
   11   10    5     -0.18      0.00
   12   10    5     -0.28      0.00
   -5   11    5     -0.71      0.00
   -4   11    5      1.47      0.00
   -3   11    5      1.44      0.00
   -2   11    5      1.92      0.00
   -1   11    5      0.14      0.00
    0   11    5      1.00      0.00
    1   11    5     -0.77      0.00
    2   11    5      2.18      0.00
    3   11    5      7.80      0.00
    4   11    5      1.55      0.00
    5   11    5     -3.06      0.00
    6   11    5      0.01      0.00
    7   11    5      2.04      0.00
    8   11    5      1.14      0.00
    9   11    5     -0.51      0.00
   10   11    5      0.51      0.00
   11   11    5     -0.27      0.00
   12   11    5     -1.06      0.00
   -4   12    5      0.58      0.00
   -3   12    5     -0.55      0.00
   -2   12    5      0.19      0.00
   -1   12    5     -1.51      0.00
    0   12    5     -2.95      0.00
    1   12    5     -3.34      0.00
    2   12    5      4.15      0.00
    3   12    5      3.39      0.00
    4   12    5     -3.46      0.00
    5   12    5      0.67      0.00
    6   12    5      3.63      0.00
    7   12    5      0.95      0.00
    8   12    5      1.77      0.00
    9   12    5     -0.17      0.00
   10   12    5     -0.73      0.00
   11   12    5     -0.82      0.00
   12   12    5     -0.25      0.00
   -3   13    5     -0.81      0.00
   -2   13    5     -1.26      0.00
   -1   13    5     -3.81      0.00
    0   13    5     -3.93      0.00
    1   13    5      0.23      0.00
    2   13    5      1.45      0.00
    3   13    5     -4.12      0.00
    4   13    5     -4.30      0.00
    5   13    5      2.54      0.00
    6   13    5      0.76      0.00
    7   13    5      1.76      0.00
    8   13    5      2.42      0.00
    9   13    5     -1.75      0.00
   10   13    5     -1.68      0.00
   11   13    5     -0.46      0.00
   -1   14    5     -0.49      0.00
    0   14    5      1.32      0.00
    1   14    5      3.13      0.00
    2   14    5     -1.90      0.00
    3   14    5     -2.98      0.00
    4   14    5     -2.27      0.00
    5   14    5      0.87      0.00
    6   14    5      0.05      0.00
    7   14    5      2.69      0.00
    8   14    5      1.07      0.00
    9   14    5     -1.05      0.00
   10   14    5      0.45      0.00
    1   15    5      1.67      0.00
    2   15    5     -1.09      0.00
    3   15    5      0.38      0.00
    4   15    5     -0.87      0.00
    5   15    5      1.98      0.00
    6   15    5      0.17      0.00
    7   15    5      0.03      0.00
    8   15    5      0.58      0.00
    9   15    5      0.29      0.00
    4   16    5      1.04      0.00
    5   16    5      1.73      0.00
    6   16    5     -1.68      0.00
   -8  -13    6     -0.05      0.00
   -7  -13    6     -0.20      0.00
   -6  -13    6      2.18      0.00
   -5  -13    6      0.71      0.00
   -4  -13    6     -3.18      0.00
   -3  -13    6     -1.10      0.00
   -2  -13    6     -0.54      0.00
   -1  -13    6     -0.44      0.00
   -9  -12    6     -2.52      0.00
   -8  -12    6      2.57      0.00
   -7  -12    6      1.81      0.00
   -6  -12    6      2.28      0.00
   -5  -12    6      0.02      0.00
   -4  -12    6     -1.02      0.00
   -3  -12    6      2.45      0.00
   -2  -12    6      1.91      0.00
   -1  -12    6      2.23      0.00
    0  -12    6      0.28      0.00
    1  -12    6     -0.57      0.00
    2  -12    6     -0.38      0.00
  -10  -11    6     -2.86      0.00
   -9  -11    6     -0.16      0.00
   -8  -11    6      3.80      0.00
   -7  -11    6      0.06      0.00
   -6  -11    6     -0.14      0.00
   -5  -11    6     -1.23      0.00
   -4  -11    6     -1.85      0.00
   -3  -11    6      2.12      0.00
   -2  -11    6      3.18      0.00
   -1  -11    6      2.10      0.00
    0  -11    6     -2.24      0.00
    1  -11    6     -0.79      0.00
    2  -11    6      0.97      0.00
    3  -11    6      1.24      0.00
  -11  -10    6     -1.19      0.00
  -10  -10    6     -1.31      0.00
   -9  -10    6      3.17      0.00
   -8  -10    6      1.54      0.00
   -7  -10    6     -0.21      0.00
   -6  -10    6     -0.67      0.00
   -5  -10    6     -4.24      0.00
   -4  -10    6     -2.56      0.00
   -3  -10    6      2.67      0.00
   -2  -10    6      1.55      0.00
   -1  -10    6     -2.69      0.00
    0  -10    6     -4.41      0.00
    1  -10    6      0.53      0.00
    2  -10    6      0.72      0.00
    3  -10    6     -0.83      0.00
    4  -10    6     -0.97      0.00
    5  -10    6     -0.64      0.00
  -11   -9    6      0.23      0.00
  -10   -9    6      1.72      0.00
   -9   -9    6      1.83      0.00
   -8   -9    6      1.20      0.00
   -7   -9    6      0.98      0.00
   -6   -9    6     -2.72      0.00
   -5   -9    6     -4.32      0.00
   -4   -9    6      2.73      0.00
   -3   -9    6      2.67      0.00
   -2   -9    6     -1.11      0.00
   -1   -9    6     -4.26      0.00
    0   -9    6     -1.50      0.00
    1   -9    6      3.83      0.00
    2   -9    6      1.86      0.00
    3   -9    6     -0.79      0.00
    4   -9    6     -1.01      0.00
    5   -9    6     -2.08      0.00
    6   -9    6     -1.66      0.00
  -12   -8    6     -0.21      0.00
  -11   -8    6      0.95      0.00
  -10   -8    6      0.41      0.00
   -9   -8    6      0.44      0.00
   -8   -8    6      3.20      0.00
   -7   -8    6     -2.22      0.00
   -6   -8    6     -2.17      0.00
   -5   -8    6     -0.26      0.00
   -4   -8    6      5.56      0.00
   -3   -8    6      0.67      0.00
   -2   -8    6     -1.57      0.00
   -1   -8    6     -3.91      0.00
    0   -8    6      2.84      0.00
    1   -8    6      6.20      0.00
    2   -8    6      1.57      0.00
    3   -8    6     -0.33      0.00
    4   -8    6      0.57      0.00
    5   -8    6     -0.36      0.00
    6   -8    6      0.93      0.00
    7   -8    6      1.11      0.00
  -12   -7    6     -1.07      0.00
  -11   -7    6     -1.08      0.00
  -10   -7    6     -2.69      0.00
   -9   -7    6      0.26      0.00
   -8   -7    6      0.34      0.00
   -7   -7    6     -4.40      0.00
   -6   -7    6      1.64      0.00
   -5   -7    6      0.06      0.00
   -4   -7    6      5.14      0.00
   -3   -7    6     -2.42      0.00
   -2   -7    6     -5.85      0.00
   -1   -7    6     -3.09      0.00
    0   -7    6      6.41      0.00
    1   -7    6      2.36      0.00
    2   -7    6     -1.71      0.00
    3   -7    6      0.36      0.00
    4   -7    6      0.63      0.00
    5   -7    6      0.65      0.00
    6   -7    6      2.85      0.00
    7   -7    6      1.74      0.00
    8   -7    6     -0.13      0.00
  -12   -6    6     -0.78      0.00
  -11   -6    6     -0.57      0.00
  -10   -6    6     -1.90      0.00
   -9   -6    6      1.16      0.00
   -8   -6    6     -2.62      0.00
   -7   -6    6     -2.63      0.00
   -6   -6    6      1.24      0.00
   -5   -6    6      1.51      0.00
   -4   -6    6      6.05      0.00
   -3   -6    6     -8.34      0.00
   -2   -6    6     -5.45      0.00
   -1   -6    6      2.71      0.00
    0   -6    6      1.65      0.00
    1   -6    6     -5.80      0.00
    2   -6    6     -2.63      0.00
    3   -6    6     -1.91      0.00
    4   -6    6     -3.20      0.00
    5   -6    6      1.52      0.00
    6   -6    6      2.65      0.00
    7   -6    6     -0.80      0.00
    8   -6    6     -2.45      0.00
  -12   -5    6      0.10      0.00
  -11   -5    6      0.41      0.00
  -10   -5    6      0.52      0.00
   -9   -5    6      2.82      0.00
   -8   -5    6     -2.66      0.00
   -7   -5    6     -0.31      0.00
   -6   -5    6      1.82      0.00
   -5   -5    6      5.30      0.00
   -4   -5    6      0.60      0.00
   -3   -5    6     -9.16      0.00
   -2   -5    6      7.97      0.00
   -1   -5    6      5.50      0.00
    0   -5    6     -3.21      0.00
    1   -5    6     -1.64      0.00
    2   -5    6     -1.78      0.00
    3   -5    6     -7.39      0.00
    4   -5    6     -2.99      0.00
    5   -5    6      3.89      0.00
    6   -5    6     -0.52      0.00
    7   -5    6     -3.15      0.00
    8   -5    6     -2.13      0.00
    9   -5    6      1.01      0.00
  -12   -4    6      0.47      0.00
  -11   -4    6      0.59      0.00
  -10   -4    6      1.27      0.00
   -9   -4    6      0.22      0.00
   -8   -4    6     -3.65      0.00
   -7   -4    6      1.31      0.00
   -6   -4    6      3.24      0.00
   -5   -4    6      0.18      0.00
   -4   -4    6     -8.27      0.00
   -3   -4    6     -2.64      0.00
   -2   -4    6     13.15      0.00
   -1   -4    6     -2.15      0.00
    0   -4    6      1.78      0.00
    1   -4    6      5.16      0.00
    2   -4    6     -5.18      0.00
    3   -4    6     -4.04      0.00
    4   -4    6      6.00      0.00
    5   -4    6      4.51      0.00
    6   -4    6     -3.88      0.00
    7   -4    6     -2.46      0.00
    8   -4    6      0.94      0.00
    9   -4    6      3.61      0.00
   10   -4    6      0.84      0.00
  -12   -3    6     -0.04      0.00
  -11   -3    6      0.62      0.00
  -10   -3    6      0.56      0.00
   -9   -3    6     -2.44      0.00
   -8   -3    6     -1.36      0.00
   -7   -3    6      3.14      0.00
   -6   -3    6      2.38      0.00
   -5   -3    6     -9.79      0.00
   -4   -3    6     -8.86      0.00
   -3   -3    6      1.23      0.00
   -2   -3    6      3.53      0.00
   -1   -3    6     -6.93      0.00
    0   -3    6      9.54      0.00
    1   -3    6     -0.49      0.00
    2   -3    6     -7.27      0.00
    3   -3    6      4.86      0.00
    4   -3    6      9.48      0.00
    5   -3    6     -0.95      0.00
    6   -3    6     -5.44      0.00
    7   -3    6     -0.71      0.00
    8   -3    6      2.73      0.00
    9   -3    6      1.72      0.00
   10   -3    6     -0.43      0.00
  -12   -2    6     -0.27      0.00
  -11   -2    6      0.22      0.00
  -10   -2    6      0.25      0.00
   -9   -2    6     -2.04      0.00
   -8   -2    6      3.54      0.00
   -7   -2    6      5.76      0.00
   -6   -2    6      2.49      0.00
   -5   -2    6    -11.53      0.00
   -4   -2    6      5.87      0.00
   -3   -2    6     -0.02      0.00
   -2   -2    6     -2.79      0.00
   -1   -2    6     -0.91      0.00
    0   -2    6      9.92      0.00
    1   -2    6    -12.11      0.00
    2   -2    6      1.63      0.00
    3   -2    6     12.77      0.00
    4   -2    6      5.82      0.00
    5   -2    6     -8.03      0.00
    6   -2    6     -3.66      0.00
    7   -2    6      0.75      0.00
    8   -2    6      1.34      0.00
    9   -2    6     -2.66      0.00
   10   -2    6     -0.64      0.00
   11   -2    6      0.06      0.00
  -12   -1    6     -0.36      0.00
  -11   -1    6      0.44      0.00
  -10   -1    6     -0.75      0.00
   -9   -1    6     -1.57      0.00
   -8   -1    6      6.61      0.00
   -7   -1    6      2.46      0.00
   -6   -1    6     -1.81      0.00
   -5   -1    6     -4.52      0.00
   -4   -1    6     20.06      0.00
   -3   -1    6     -9.12      0.00
   -2   -1    6     11.68      0.00
   -1   -1    6      6.86      0.00
    0   -1    6     -1.78      0.00
    1   -1    6    -18.52      0.00
    2   -1    6     18.80      0.00
    3   -1    6     10.66      0.00
    4   -1    6     -0.80      0.00
    5   -1    6     -6.97      0.00
    6   -1    6      4.93      0.00
    7   -1    6      1.21      0.00
    8   -1    6      0.33      0.00
    9   -1    6     -1.66      0.00
   10   -1    6      0.78      0.00
   11   -1    6     -2.34      0.00
  -12    0    6      0.28      0.00
  -11    0    6      0.22      0.00
  -10    0    6     -2.53      0.00
   -9    0    6      0.58      0.00
   -8    0    6      4.34      0.00
   -7    0    6     -6.79      0.00
   -6    0    6     -2.68      0.00
   -5    0    6      0.77      0.00
   -4    0    6      7.55      0.00
   -3    0    6    -18.08      0.00
   -2    0    6     29.66      0.00
   -1    0    6    -15.04      0.00
    0    0    6    -15.33      0.00
    1    0    6     -9.15      0.00
    2    0    6     24.77      0.00
    3    0    6    -10.77      0.00
    4    0    6     -5.46      0.00
    5    0    6     -1.21      0.00
    6    0    6      7.67      0.00
    7    0    6     -1.00      0.00
    8    0    6      4.34      0.00
    9    0    6      1.81      0.00
   10    0    6     -0.12      0.00
   11    0    6     -2.20      0.00
   12    0    6      0.69      0.00
  -11    1    6      0.05      0.00
  -10    1    6      0.00      0.00
   -9    1    6      2.90      0.00
   -8    1    6     -2.07      0.00
   -7    1    6     -6.49      0.00
   -6    1    6      4.25      0.00
   -5    1    6     -3.56      0.00
   -4    1    6     -4.46      0.00
   -3    1    6     -1.39      0.00
   -2    1    6     22.77      0.00
   -1    1    6    -42.45      0.00
    0    1    6      1.11      0.00
    1    1    6      1.96      0.00
    2    1    6      6.98      0.00
    3    1    6    -28.71      0.00
    4    1    6     -2.49      0.00
    5    1    6     -4.69      0.00
    6    1    6      0.31      0.00
    7    1    6     -1.27      0.00
    8    1    6      5.50      0.00
    9    1    6     -1.46      0.00
   10    1    6     -0.54      0.00
   11    1    6      1.77      0.00
   12    1    6      1.99      0.00
  -11    2    6      0.25      0.00
  -10    2    6      1.70      0.00
   -9    2    6      0.84      0.00
   -8    2    6     -2.82      0.00
   -7    2    6      2.49      0.00
   -6    2    6      1.92      0.00
   -5    2    6     -7.88      0.00
   -4    2    6      4.63      0.00
   -3    2    6     12.03      0.00
   -2    2    6     -0.88      0.00
   -1    2    6    -20.72      0.00
    0    2    6     33.23      0.00
    1    2    6      5.97      0.00
    2    2    6      3.09      0.00
    3    2    6    -15.51      0.00
    4    2    6      3.25      0.00
    5    2    6     -8.79      0.00
    6    2    6     -0.44      0.00
    7    2    6      0.73      0.00
    8    2    6     -0.59      0.00
    9    2    6     -5.36      0.00
   10    2    6      0.11      0.00
   11    2    6      1.17      0.00
   12    2    6      0.70      0.00
  -11    3    6      0.56      0.00
  -10    3    6     -0.50      0.00
   -9    3    6     -1.06      0.00
   -8    3    6     -0.08      0.00
   -7    3    6      3.32      0.00
   -6    3    6     -5.25      0.00
   -5    3    6     -0.19      0.00
   -4    3    6      8.32      0.00
   -3    3    6     -1.52      0.00
   -2    3    6    -13.75      0.00
   -1    3    6      5.58      0.00
    0    3    6     21.64      0.00
    1    3    6      3.92      0.00
    2    3    6      9.72      0.00
    3    3    6      2.70      0.00
    4    3    6      9.51      0.00
    5    3    6      0.89      0.00
    6    3    6      5.14      0.00
    7    3    6      1.60      0.00
    8    3    6     -3.73      0.00
    9    3    6     -1.44      0.00
   10    3    6      1.18      0.00
   11    3    6     -0.18      0.00
   12    3    6     -0.31      0.00
   13    3    6     -0.72      0.00
  -10    4    6     -0.84      0.00
   -9    4    6      0.47      0.00
   -8    4    6     -0.08      0.00
   -7    4    6     -1.03      0.00
   -6    4    6     -5.02      0.00
   -5    4    6      6.09      0.00
   -4    4    6      0.08      0.00
   -3    4    6     -8.81      0.00
   -2    4    6     -6.99      0.00
   -1    4    6      5.42      0.00
    0    4    6     -3.13      0.00
    1    4    6     -2.88      0.00
    2    4    6     -5.20      0.00
    3    4    6      2.26      0.00
    4    4    6      5.15      0.00
    5    4    6      5.08      0.00
    6    4    6      4.68      0.00
    7    4    6      0.86      0.00
    8    4    6     -5.03      0.00
    9    4    6      2.05      0.00
   10    4    6      1.24      0.00
   11    4    6      2.20      0.00
   12    4    6      0.35      0.00
   13    4    6     -0.45      0.00
  -10    5    6     -0.21      0.00
   -9    5    6      1.07      0.00
   -8    5    6     -0.19      0.00
   -7    5    6     -0.76      0.00
   -6    5    6      1.20      0.00
   -5    5    6      5.64      0.00
   -4    5    6     -5.18      0.00
   -3    5    6     -5.42      0.00
   -2    5    6      2.17      0.00
   -1    5    6      3.81      0.00
    0    5    6     -3.35      0.00
    1    5    6     -6.11      0.00
    2    5    6     -9.10      0.00
    3    5    6      0.14      0.00
    4    5    6     -7.43      0.00
    5    5    6      3.90      0.00
    6    5    6     -0.05      0.00
    7    5    6     -2.94      0.00
    8    5    6     -5.90      0.00
    9    5    6      2.87      0.00
   10    5    6     -1.50      0.00
   11    5    6      0.99      0.00
   12    5    6     -1.89      0.00
   13    5    6     -0.50      0.00
   -9    6    6      0.29      0.00
   -8    6    6     -1.29      0.00
   -7    6    6     -0.07      0.00
   -6    6    6      5.51      0.00
   -5    6    6      2.13      0.00
   -4    6    6     -3.61      0.00
   -3    6    6      1.39      0.00
   -2    6    6      8.41      0.00
   -1    6    6      1.06      0.00
    0    6    6     -1.68      0.00
    1    6    6     -4.76      0.00
    2    6    6     -0.69      0.00
    3    6    6     -5.50      0.00
    4    6    6     -5.93      0.00
    5    6    6      8.42      0.00
    6    6    6     -5.67      0.00
    7    6    6     -2.10      0.00
    8    6    6      0.43      0.00
    9    6    6      4.75      0.00
   10    6    6     -1.93      0.00
   11    6    6     -0.30      0.00
   12    6    6     -2.95      0.00
   13    6    6     -0.88      0.00
   -9    7    6      0.04      0.00
   -8    7    6     -1.22      0.00
   -7    7    6      1.03      0.00
   -6    7    6      2.56      0.00
   -5    7    6     -5.14      0.00
   -4    7    6     -1.02      0.00
   -3    7    6      5.13      0.00
   -2    7    6      6.85      0.00
   -1    7    6     -2.62      0.00
    0    7    6      2.12      0.00
    1    7    6     -2.62      0.00
    2    7    6     -1.33      0.00
    3    7    6     -7.58      0.00
    4    7    6      5.63      0.00
    5    7    6      1.88      0.00
    6    7    6     -8.29      0.00
    7    7    6      3.84      0.00
    8    7    6      4.89      0.00
    9    7    6      4.82      0.00
   10    7    6      0.15      0.00
   11    7    6     -0.21      0.00
   12    7    6     -0.77      0.00
   13    7    6      0.09      0.00
   -8    8    6      0.71      0.00
   -7    8    6      1.71      0.00
   -6    8    6     -1.17      0.00
   -5    8    6     -4.92      0.00
   -4    8    6      1.10      0.00
   -3    8    6      0.64      0.00
   -2    8    6     -0.04      0.00
   -1    8    6     -2.57      0.00
    0    8    6      3.17      0.00
    1    8    6     -4.41      0.00
    2    8    6      1.06      0.00
    3    8    6      1.02      0.00
    4    8    6      7.94      0.00
    5    8    6     -9.02      0.00
    6    8    6     -3.54      0.00
    7    8    6      2.28      0.00
    8    8    6      1.54      0.00
    9    8    6      1.80      0.00
   10    8    6     -0.93      0.00
   11    8    6     -0.78      0.00
   12    8    6      0.86      0.00
   13    8    6     -0.37      0.00
   -7    9    6     -0.67      0.00
   -6    9    6     -1.67      0.00
   -5    9    6     -0.81      0.00
   -4    9    6      0.74      0.00
   -3    9    6     -0.70      0.00
   -2    9    6     -0.14      0.00
   -1    9    6     -1.53      0.00
    0    9    6     -0.42      0.00
    1    9    6     -3.26      0.00
    2    9    6      6.32      0.00
    3    9    6      4.77      0.00
    4    9    6      3.45      0.00
    5    9    6     -8.02      0.00
    6    9    6      2.68      0.00
    7    9    6     -0.77      0.00
    8    9    6     -0.33      0.00
    9    9    6     -1.97      0.00
   10    9    6     -2.79      0.00
   11    9    6     -0.28      0.00
   12    9    6      0.83      0.00
   13    9    6     -0.18      0.00
   -6   10    6     -0.41      0.00
   -5   10    6      0.42      0.00
   -4   10    6      0.45      0.00
   -3   10    6      1.55      0.00
   -2   10    6      0.33      0.00
   -1   10    6     -1.41      0.00
    0   10    6     -1.65      0.00
    1   10    6     -0.08      0.00
    2   10    6      7.17      0.00
    3   10    6      3.19      0.00
    4   10    6     -0.12      0.00
    5   10    6     -1.59      0.00
    6   10    6      5.91      0.00
    7   10    6      1.41      0.00
    8   10    6      0.17      0.00
    9   10    6     -1.79      0.00
   10   10    6     -1.92      0.00
   11   10    6     -0.78      0.00
   12   10    6      0.48      0.00
   -5   11    6      0.63      0.00
   -4   11    6      0.20      0.00
   -3   11    6      1.35      0.00
   -2   11    6     -0.83      0.00
   -1   11    6     -2.06      0.00
    0   11    6     -3.30      0.00
    1   11    6      1.65      0.00
    2   11    6      4.15      0.00
    3   11    6     -2.66      0.00
    4   11    6     -2.26      0.00
    5   11    6      3.12      0.00
    6   11    6      4.35      0.00
    7   11    6      2.21      0.00
    8   11    6      0.20      0.00
    9   11    6     -0.20      0.00
   10   11    6     -1.90      0.00
   11   11    6     -0.70      0.00
   12   11    6      1.60      0.00
   -4   12    6     -0.98      0.00
   -3   12    6      0.04      0.00
   -2   12    6     -2.74      0.00
   -1   12    6     -3.29      0.00
    0   12    6     -1.09      0.00
    1   12    6      3.73      0.00
    2   12    6     -2.50      0.00
    3   12    6     -7.15      0.00
    4   12    6     -0.47      0.00
    5   12    6      1.40      0.00
    6   12    6      0.63      0.00
    7   12    6      2.48      0.00
    8   12    6     -0.45      0.00
    9   12    6     -1.04      0.00
   10   12    6     -1.19      0.00
   11   12    6      0.74      0.00
   12   12    6      1.37      0.00
   -3   13    6      0.61      0.00
   -2   13    6     -1.63      0.00
   -1   13    6      0.81      0.00
    0   13    6      3.96      0.00
    1   13    6      1.56      0.00
    2   13    6     -4.80      0.00
    3   13    6     -3.06      0.00
    4   13    6      0.78      0.00
    5   13    6     -2.60      0.00
    6   13    6      0.98      0.00
    7   13    6      0.77      0.00
    8   13    6     -2.07      0.00
    9   13    6      0.05      0.00
   10   13    6      1.04      0.00
   11   13    6      0.57      0.00
   -1   14    6      3.56      0.00
    0   14    6      3.15      0.00
    1   14    6     -0.59      0.00
    2   14    6      0.31      0.00
    3   14    6      0.95      0.00
    4   14    6      1.61      0.00
    5   14    6     -0.60      0.00
    6   14    6      1.17      0.00
    7   14    6     -2.64      0.00
    8   14    6     -1.43      0.00
    9   14    6      1.62      0.00
   10   14    6      1.29      0.00
    0   15    6     -0.47      0.00
    1   15    6     -0.91      0.00
    2   15    6      1.33      0.00
    3   15    6      0.56      0.00
    4   15    6      3.36      0.00
    5   15    6      0.36      0.00
    6   15    6     -0.81      0.00
    7   15    6     -2.26      0.00
    8   15    6     -1.48      0.00
    9   15    6     -0.06      0.00
    4   16    6      1.31      0.00
    5   16    6     -1.19      0.00
    6   16    6     -0.04      0.00
   -7  -13    7      1.82      0.00
   -6  -13    7     -1.01      0.00
   -5  -13    7     -1.85      0.00
   -4  -13    7      2.43      0.00
   -3  -13    7      1.75      0.00
   -2  -13    7      0.94      0.00
   -8  -12    7      0.53      0.00
   -7  -12    7      0.32      0.00
   -6  -12    7     -2.46      0.00
   -5  -12    7     -0.84      0.00
   -4  -12    7      3.07      0.00
   -3  -12    7      0.90      0.00
   -2  -12    7      1.76      0.00
   -1  -12    7      0.66      0.00
    0  -12    7     -0.09      0.00
    1  -12    7      0.27      0.00
  -10  -11    7      1.41      0.00
   -9  -11    7      1.94      0.00
   -8  -11    7     -1.65      0.00
   -7  -11    7     -1.33      0.00
   -6  -11    7     -2.83      0.00
   -5  -11    7     -1.98      0.00
   -4  -11    7      1.10      0.00
   -3  -11    7     -0.91      0.00
   -2  -11    7     -1.65      0.00
   -1  -11    7     -3.51      0.00
    0  -11    7     -0.60      0.00
    1  -11    7      0.44      0.00
    2  -11    7      0.52      0.00
    3  -11    7     -1.44      0.00
  -10  -10    7      2.30      0.00
   -9  -10    7     -0.55      0.00
   -8  -10    7     -0.66      0.00
   -7  -10    7     -1.34      0.00
   -6  -10    7     -2.87      0.00
   -5  -10    7      0.51      0.00
   -4  -10    7      3.28      0.00
   -3  -10    7     -1.39      0.00
   -2  -10    7     -3.95      0.00
   -1  -10    7     -2.57      0.00
    0  -10    7      2.15      0.00
    1  -10    7      0.53      0.00
    2  -10    7     -0.06      0.00
    3  -10    7     -1.64      0.00
    4  -10    7     -1.12      0.00
  -11   -9    7      0.44      0.00
  -10   -9    7      0.31      0.00
   -9   -9    7     -0.23      0.00
   -8   -9    7      0.03      0.00
   -7   -9    7     -2.97      0.00
   -6   -9    7     -0.24      0.00
   -5   -9    7      5.74      0.00
   -4   -9    7      2.77      0.00
   -3   -9    7     -1.68      0.00
   -2   -9    7     -2.54      0.00
   -1   -9    7      1.18      0.00
    0   -9    7      4.22      0.00
    1   -9    7      0.99      0.00
    2   -9    7      0.74      0.00
    3   -9    7      0.22      0.00
    4   -9    7      0.26      0.00
    5   -9    7      0.89      0.00
  -11   -8    7     -1.74      0.00
  -10   -8    7     -0.29      0.00
   -9   -8    7      0.66      0.00
   -8   -8    7     -2.95      0.00
   -7   -8    7     -1.17      0.00
   -6   -8    7      2.48      0.00
   -5   -8    7      5.49      0.00
   -4   -8    7     -0.71      0.00
   -3   -8    7     -1.69      0.00
   -2   -8    7     -2.24      0.00
   -1   -8    7      3.51      0.00
    0   -8    7      3.25      0.00
    1   -8    7     -1.52      0.00
    2   -8    7     -0.81      0.00
    3   -8    7      0.11      0.00
    4   -8    7      0.64      0.00
    5   -8    7      3.12      0.00
    6   -8    7      2.35      0.00
  -12   -7    7     -1.01      0.00
  -11   -7    7     -1.08      0.00
  -10   -7    7      1.52      0.00
   -9   -7    7     -0.96      0.00
   -8   -7    7     -3.50      0.00
   -7   -7    7      1.28      0.00
   -6   -7    7      0.07      0.00
   -5   -7    7      3.82      0.00
   -4   -7    7     -3.97      0.00
   -3   -7    7     -3.50      0.00
   -2   -7    7     -0.24      0.00
   -1   -7    7      4.54      0.00
    0   -7    7     -1.84      0.00
    1   -7    7     -3.85      0.00
    2   -7    7     -2.00      0.00
    3   -7    7     -2.78      0.00
    4   -7    7     -0.71      0.00
    5   -7    7      2.40      0.00
    6   -7    7     -0.20      0.00
    7   -7    7     -1.03      0.00
  -12   -6    7      0.52      0.00
  -11   -6    7      1.48      0.00
  -10   -6    7      3.67      0.00
   -9   -6    7     -0.76      0.00
   -8   -6    7     -0.27      0.00
   -7   -6    7      0.99      0.00
   -6   -6    7      0.64      0.00
   -5   -6    7      2.51      0.00
   -4   -6    7     -7.63      0.00
   -3   -6    7      1.53      0.00
   -2   -6    7      5.57      0.00
   -1   -6    7      1.57      0.00
    0   -6    7     -2.80      0.00
    1   -6    7     -0.88      0.00
    2   -6    7     -4.49      0.00
    3   -6    7     -4.61      0.00
    4   -6    7      1.75      0.00
    5   -6    7      0.61      0.00
    6   -6    7     -3.60      0.00
    7   -6    7     -2.30      0.00
    8   -6    7      0.00      0.00
  -12   -5    7      0.66      0.00
  -11   -5    7      1.55      0.00
  -10   -5    7      2.44      0.00
   -9   -5    7     -1.92      0.00
   -8   -5    7      1.41      0.00
   -7   -5    7      2.11      0.00
   -6   -5    7      2.63      0.00
   -5   -5    7     -3.54      0.00
   -4   -5    7     -5.81      0.00
   -3   -5    7      8.63      0.00
   -2   -5    7      0.92      0.00
   -1   -5    7      0.35      0.00
    0   -5    7      5.03      0.00
    1   -5    7      0.32      0.00
    2   -5    7     -3.90      0.00
    3   -5    7      3.91      0.00
    4   -5    7      6.46      0.00
    5   -5    7     -2.68      0.00
    6   -5    7     -3.80      0.00
    7   -5    7     -0.22      0.00
    8   -5    7      2.09      0.00
    9   -5    7      0.32      0.00
  -12   -4    7      0.30      0.00
  -11   -4    7      0.57      0.00
  -10   -4    7     -0.94      0.00
   -9   -4    7     -2.96      0.00
   -8   -4    7      2.16      0.00
   -7   -4    7      1.87      0.00
   -6   -4    7     -1.76      0.00
   -5   -4    7     -6.36      0.00
   -4   -4    7      0.40      0.00
   -3   -4    7      3.82      0.00
   -2   -4    7     -8.74      0.00
   -1   -4    7      4.89      0.00
    0   -4    7      2.54      0.00
    1   -4    7     -5.92      0.00
    2   -4    7      3.43      0.00
    3   -4    7     11.95      0.00
    4   -4    7      3.85      0.00
    5   -4    7     -4.38      0.00
    6   -4    7     -0.27      0.00
    7   -4    7      2.09      0.00
    8   -4    7      2.16      0.00
    9   -4    7     -0.66      0.00
   10   -4    7      0.79      0.00
  -12   -3    7     -0.20      0.00
  -11   -3    7     -0.71      0.00
  -10   -3    7     -1.93      0.00
   -9   -3    7      0.14      0.00
   -8   -3    7      2.91      0.00
   -7   -3    7      0.36      0.00
   -6   -3    7     -4.97      0.00
   -5   -3    7      0.43      0.00
   -4   -3    7      3.18      0.00
   -3   -3    7     -2.05      0.00
   -2   -3    7     -5.09      0.00
   -1   -3    7      7.60      0.00
    0   -3    7    -10.30      0.00
    1   -3    7     -5.60      0.00
    2   -3    7      9.61      0.00
    3   -3    7      6.83      0.00
    4   -3    7     -5.15      0.00
    5   -3    7     -4.07      0.00
    6   -3    7      1.86      0.00
    7   -3    7      2.40      0.00
    8   -3    7     -0.48      0.00
    9   -3    7     -1.95      0.00
   10   -3    7     -0.16      0.00
  -12   -2    7     -0.06      0.00
  -11   -2    7     -0.88      0.00
  -10   -2    7     -1.22      0.00
   -9   -2    7      2.68      0.00
   -8   -2    7      1.51      0.00
   -7   -2    7     -1.46      0.00
   -6   -2    7     -3.69      0.00
   -5   -2    7     10.16      0.00
   -4   -2    7      0.42      0.00
   -3   -2    7      4.21      0.00
   -2   -2    7      6.43      0.00
   -1   -2    7      2.49      0.00
    0   -2    7    -17.41      0.00
    1   -2    7      5.87      0.00
    2   -2    7      8.30      0.00
    3   -2    7     -2.37      0.00
    4   -2    7     -9.20      0.00
    5   -2    7      0.83      0.00
    6   -2    7      2.47      0.00
    7   -2    7      1.46      0.00
    8   -2    7     -1.69      0.00
    9   -2    7      0.35      0.00
   10   -2    7     -1.36      0.00
   11   -2    7     -1.99      0.00
  -12   -1    7      0.56      0.00
  -11   -1    7     -1.11      0.00
  -10   -1    7     -0.56      0.00
   -9   -1    7      2.78      0.00
   -8   -1    7     -3.36      0.00
   -7   -1    7     -3.84      0.00
   -6   -1    7     -0.91      0.00
   -5   -1    7      8.28      0.00
   -4   -1    7    -10.50      0.00
   -3   -1    7     16.37      0.00
   -2   -1    7      2.47      0.00
   -1   -1    7     -8.16      0.00
    0   -1    7     -9.82      0.00
    1   -1    7     19.34      0.00
    2   -1    7     -4.96      0.00
    3   -1    7     -9.44      0.00
    4   -1    7     -6.46      0.00
    5   -1    7      6.25      0.00
    6   -1    7      0.09      0.00
    7   -1    7      2.58      0.00
    8   -1    7      0.95      0.00
    9   -1    7      1.73      0.00
   10   -1    7     -2.28      0.00
   11   -1    7      0.77      0.00
  -12    0    7      0.72      0.00
  -11    0    7     -0.60      0.00
  -10    0    7      2.11      0.00
   -9    0    7      0.46      0.00
   -8    0    7     -6.39      0.00
   -7    0    7      0.64      0.00
   -6    0    7      0.01      0.00
   -5    0    7     -2.95      0.00
   -4    0    7    -10.39      0.00
   -3    0    7     20.81      0.00
   -2    0    7    -25.31      0.00
   -1    0    7     -7.07      0.00
    0    0    7      5.44      0.00
    1    0    7     16.47      0.00
    2    0    7    -22.91      0.00
    3    0    7     -4.72      0.00
    4    0    7     -3.93      0.00
    5    0    7      1.75      0.00
    6    0    7     -4.18      0.00
    7    0    7      5.15      0.00
    8    0    7     -0.48      0.00
    9    0    7     -1.07      0.00
   10    0    7     -0.02      0.00
   11    0    7      3.62      0.00
   12    0    7      0.31      0.00
  -11    1    7      0.83      0.00
  -10    1    7      2.64      0.00
   -9    1    7     -2.19      0.00
   -8    1    7     -0.53      0.00
   -7    1    7      5.28      0.00
   -6    1    7     -4.75      0.00
   -5    1    7     -1.36      0.00
   -4    1    7      6.41      0.00
   -3    1    7      8.27      0.00
   -2    1    7    -33.27      0.00
   -1    1    7     21.17      0.00
    0    1    7      8.10      0.00
    1    1    7      3.73      0.00
    2    1    7    -18.58      0.00
    3    1    7     10.48      0.00
    4    1    7     -5.81      0.00
    5    1    7     -0.41      0.00
    6    1    7     -1.33      0.00
    7    1    7      2.40      0.00
    8    1    7     -7.29      0.00
    9    1    7     -1.92      0.00
   10    1    7      1.81      0.00
   11    1    7      1.33      0.00
   12    1    7     -0.61      0.00
  -11    2    7      0.08      0.00
  -10    2    7     -0.74      0.00
   -9    2    7     -1.73      0.00
   -8    2    7      4.27      0.00
   -7    2    7     -0.27      0.00
   -6    2    7     -4.05      0.00
   -5    2    7      8.61      0.00
   -4    2    7      5.37      0.00
   -3    2    7    -10.48      0.00
   -2    2    7     -8.98      0.00
   -1    2    7     29.56      0.00
    0    2    7     -6.27      0.00
    1    2    7      5.20      0.00
    2    2    7      0.48      0.00
    3    2    7     16.68      0.00
    4    2    7     -1.14      0.00
    5    2    7      9.92      0.00
    6    2    7      3.45      0.00
    7    2    7     -2.49      0.00
    8    2    7     -5.83      0.00
    9    2    7      1.37      0.00
   10    2    7     -0.07      0.00
   11    2    7     -1.70      0.00
   12    2    7     -1.24      0.00
  -11    3    7     -0.62      0.00
  -10    3    7     -0.74      0.00
   -9    3    7     -0.32      0.00
   -8    3    7      1.02      0.00
   -7    3    7     -4.69      0.00
   -6    3    7      4.03      0.00
   -5    3    7      5.82      0.00
   -4    3    7     -6.49      0.00
   -3    3    7     -9.45      0.00
   -2    3    7      6.76      0.00
   -1    3    7      2.91      0.00
    0    3    7    -13.48      0.00
    1    3    7      1.13      0.00
    2    3    7     -2.54      0.00
    3    3    7      6.68      0.00
    4    3    7      3.61      0.00
    5    3    7     11.43      0.00
    6    3    7      1.93      0.00
    7    3    7     -3.11      0.00
    8    3    7      1.09      0.00
    9    3    7      2.73      0.00
   10    3    7      0.73      0.00
   11    3    7      0.25      0.00
   12    3    7     -0.84      0.00
  -10    4    7      0.66      0.00
   -9    4    7     -0.59      0.00
   -8    4    7     -0.73      0.00
   -7    4    7     -1.17      0.00
   -6    4    7      6.12      0.00
   -5    4    7     -3.36      0.00
   -4    4    7     -5.21      0.00
   -3    4    7      1.33      0.00
   -2    4    7      6.45      0.00
   -1    4    7     -5.71      0.00
    0    4    7     -3.57      0.00
    1    4    7     -7.72      0.00
    2    4    7     -6.51      0.00
    3    4    7     -5.79      0.00
    4    4    7     -1.60      0.00
    5    4    7      0.56      0.00
    6    4    7     -3.09      0.00
    7    4    7     -4.38      0.00
    8    4    7      3.41      0.00
    9    4    7      0.11      0.00
   10    4    7      1.03      0.00
   11    4    7     -0.91      0.00
   12    4    7     -0.54      0.00
   13    4    7      0.66      0.00
  -10    5    7      0.34      0.00
   -9    5    7     -1.08      0.00
   -8    5    7     -0.07      0.00
   -7    5    7      2.16      0.00
   -6    5    7      2.75      0.00
   -5    5    7     -4.58      0.00
   -4    5    7      1.37      0.00
   -3    5    7      5.54      0.00
   -2    5    7      3.49      0.00
   -1    5    7     -0.85      0.00
    0    5    7      0.42      0.00
    1    5    7     -2.81      0.00
    2    5    7     -0.34      0.00
    3    5    7     -7.70      0.00
    4    5    7      2.92      0.00
    5    5    7     -5.59      0.00
    6    5    7     -5.78      0.00
    7    5    7     -2.85      0.00
    8    5    7      5.61      0.00
    9    5    7     -1.63      0.00
   10    5    7      0.11      0.00
   11    5    7     -3.70      0.00
   12    5    7     -0.43      0.00
   13    5    7     -0.09      0.00
   -9    6    7     -0.89      0.00
   -8    6    7      0.30      0.00
   -7    6    7      1.81      0.00
   -6    6    7     -2.98      0.00
   -5    6    7     -2.96      0.00
   -4    6    7      3.74      0.00
   -3    6    7      5.32      0.00
   -2    6    7     -0.59      0.00
   -1    6    7      1.00      0.00
    0    6    7     -0.03      0.00
    1    6    7      1.90      0.00
    2    6    7     -2.31      0.00
    3    6    7      2.72      0.00
    4    6    7      8.77      0.00
    5    6    7     -9.89      0.00
    6    6    7     -0.51      0.00
    7    6    7      2.87      0.00
    8    6    7      5.44      0.00
    9    6    7     -1.32      0.00
   10    6    7      1.61      0.00
   11    6    7     -1.27      0.00
   12    6    7      1.97      0.00
   13    6    7      0.39      0.00
   -9    7    7     -0.31      0.00
   -8    7    7      1.56      0.00
   -7    7    7      0.43      0.00
   -6    7    7     -4.70      0.00
   -5    7    7      0.17      0.00
   -4    7    7      0.64      0.00
   -3    7    7     -1.23      0.00
   -2    7    7     -4.61      0.00
   -1    7    7      2.97      0.00
    0    7    7     -1.90      0.00
    1    7    7      2.07      0.00
    2    7    7      1.70      0.00
    3    7    7     12.73      0.00
    4    7    7     -0.93      0.00
    5    7    7     -7.92      0.00
    6    7    7      5.70      0.00
    7    7    7      1.48      0.00
    8    7    7      0.80      0.00
    9    7    7     -1.89      0.00
   10    7    7      0.46      0.00
   11    7    7      0.79      0.00
   12    7    7      2.12      0.00
   13    7    7      0.93      0.00
   -8    8    7      0.45      0.00
   -7    8    7     -1.02      0.00
   -6    8    7     -0.83      0.00
   -5    8    7      2.75      0.00
   -4    8    7     -1.33      0.00
   -3    8    7     -1.85      0.00
   -2    8    7     -2.58      0.00
   -1    8    7     -0.30      0.00
    0    8    7     -6.53      0.00
    1    8    7      4.51      0.00
    2    8    7      5.81      0.00
    3    8    7      7.62      0.00
    4    8    7     -8.46      0.00
    5    8    7      2.73      0.00
    6    8    7      3.34      0.00
    7    8    7     -1.34      0.00
    8    8    7     -2.28      0.00
    9    8    7     -3.96      0.00
   10    8    7     -1.43      0.00
   11    8    7      0.93      0.00
   12    8    7     -0.14      0.00
   13    8    7      0.69      0.00
   -7    9    7     -0.62      0.00
   -6    9    7      0.44      0.00
   -5    9    7      0.52      0.00
   -4    9    7      0.48      0.00
   -3    9    7      1.99      0.00
   -2    9    7     -0.49      0.00
   -1    9    7     -2.34      0.00
    0    9    7     -3.03      0.00
    1    9    7      6.36      0.00
    2    9    7      1.22      0.00
    3    9    7     -0.89      0.00
    4    9    7     -5.77      0.00
    5    9    7      7.92      0.00
    6    9    7      0.56      0.00
    7    9    7      1.80      0.00
    8    9    7     -2.48      0.00
    9    9    7     -2.97      0.00
   10    9    7     -0.53      0.00
   11    9    7      0.25      0.00
   12    9    7     -0.18      0.00
   13    9    7      1.23      0.00
   -6   10    7      0.27      0.00
   -5   10    7      0.13      0.00
   -4   10    7      2.09      0.00
   -3   10    7      0.71      0.00
   -2   10    7     -1.42      0.00
   -1   10    7     -1.47      0.00
    0   10    7      1.37      0.00
    1   10    7      4.45      0.00
    2   10    7     -3.24      0.00
    3   10    7     -4.67      0.00
    4   10    7     -1.87      0.00
    5   10    7      5.74      0.00
    6   10    7      0.41      0.00
    7   10    7      2.28      0.00
    8   10    7     -0.74      0.00
    9   10    7     -0.25      0.00
   10   10    7      0.42      0.00
   11   10    7      0.82      0.00
   12   10    7      0.55      0.00
   -5   11    7      0.14      0.00
   -4   11    7      1.05      0.00
   -3   11    7     -1.70      0.00
   -2   11    7     -2.14      0.00
   -1   11    7     -0.43      0.00
    0   11    7      3.88      0.00
    1   11    7      0.92      0.00
    2   11    7     -6.69      0.00
    3   11    7     -4.32      0.00
    4   11    7      0.35      0.00
    5   11    7      0.37      0.00
    6   11    7     -0.68      0.00
    7   11    7     -0.24      0.00
    8   11    7     -0.14      0.00
    9   11    7     -0.49      0.00
   10   11    7      2.05      0.00
   11   11    7      2.34      0.00
   12   11    7     -0.67      0.00
   -4   12    7      0.74      0.00
   -3   12    7     -2.24      0.00
   -2   12    7     -0.65      0.00
   -1   12    7      2.80      0.00
    0   12    7      4.01      0.00
    1   12    7     -3.41      0.00
    2   12    7     -4.23      0.00
    3   12    7      1.03      0.00
    4   12    7     -0.66      0.00
    5   12    7     -1.90      0.00
    6   12    7     -0.65      0.00
    7   12    7     -2.86      0.00
    8   12    7     -1.17      0.00
    9   12    7      0.37      0.00
   10   12    7      2.98      0.00
   11   12    7      1.02      0.00
   12   12    7     -1.67      0.00
   -3   13    7     -0.55      0.00
   -2   13    7      3.19      0.00
   -1   13    7      3.81      0.00
    0   13    7      0.33      0.00
    1   13    7     -2.26      0.00
    2   13    7      2.29      0.00
    3   13    7      3.28      0.00
    4   13    7     -0.53      0.00
    5   13    7      1.78      0.00
    6   13    7     -2.27      0.00
    7   13    7     -3.76      0.00
    8   13    7     -0.21      0.00
    9   13    7      1.15      0.00
   10   13    7      1.14      0.00
   11   13    7      0.09      0.00
   -1   14    7     -0.83      0.00
    0   14    7     -1.87      0.00
    1   14    7      0.68      0.00
    2   14    7      1.69      0.00
    3   14    7      2.62      0.00
    4   14    7      1.99      0.00
    5   14    7      2.42      0.00
    6   14    7     -3.17      0.00
    7   14    7     -0.34      0.00
    8   14    7      0.10      0.00
    9   14    7     -0.52      0.00
   10   14    7      0.06      0.00
    0   15    7     -1.29      0.00
    1   15    7     -0.79      0.00
    2   15    7     -1.56      0.00
    3   15    7      1.66      0.00
    4   15    7     -0.51      0.00
    5   15    7     -0.18      0.00
    6   15    7     -0.45      0.00
    7   15    7      1.28      0.00
    8   15    7     -0.28      0.00
    9   15    7     -0.71      0.00
    4   16    7     -2.25      0.00
    5   16    7     -0.05      0.00
    6   16    7      0.55      0.00
   -5  -13    8      2.54      0.00
   -4  -13    8      0.29      0.00
   -3  -13    8      0.61      0.00
   -8  -12    8     -1.21      0.00
   -7  -12    8     -2.16      0.00
   -6  -12    8      0.64      0.00
   -5  -12    8      1.01      0.00
   -4  -12    8     -2.59      0.00
   -3  -12    8     -0.51      0.00
   -2  -12    8     -1.73      0.00
   -1  -12    8     -1.83      0.00
    0  -12    8     -0.03      0.00
   -9  -11    8     -1.91      0.00
   -8  -11    8     -0.98      0.00
   -7  -11    8     -1.11      0.00
   -6  -11    8      0.71      0.00
   -5  -11    8      1.62      0.00
   -4  -11    8     -1.50      0.00
   -3  -11    8     -1.13      0.00
   -2  -11    8     -3.19      0.00
   -1  -11    8     -0.62      0.00
    0  -11    8      0.22      0.00
    1  -11    8      0.11      0.00
    2  -11    8     -1.81      0.00
  -10  -10    8     -0.95      0.00
   -9  -10    8      0.06      0.00
   -8  -10    8     -0.80      0.00
   -7  -10    8     -0.07      0.00
   -6  -10    8      3.42      0.00
   -5  -10    8      4.01      0.00
   -4  -10    8     -0.85      0.00
   -3  -10    8     -0.22      0.00
   -2  -10    8      1.03      0.00
   -1  -10    8      3.48      0.00
    0  -10    8      1.09      0.00
    1  -10    8      1.10      0.00
    2  -10    8     -0.84      0.00
    3  -10    8      1.39      0.00
    4  -10    8      0.40      0.00
  -11   -9    8      0.03      0.00
  -10   -9    8      0.13      0.00
   -9   -9    8      0.18      0.00
   -8   -9    8     -2.21      0.00
   -7   -9    8      2.28      0.00
   -6   -9    8      4.78      0.00
   -5   -9    8      0.38      0.00
   -4   -9    8     -2.13      0.00
   -3   -9    8      0.15      0.00
   -2   -9    8      2.73      0.00
   -1   -9    8      3.20      0.00
    0   -9    8     -0.09      0.00
    1   -9    8      0.31      0.00
    2   -9    8     -1.05      0.00
    3   -9    8      1.27      0.00
    4   -9    8      1.96      0.00
    5   -9    8      2.33      0.00
  -11   -8    8      0.83      0.00
  -10   -8    8      0.43      0.00
   -9   -8    8     -1.98      0.00
   -8   -8    8     -0.46      0.00
   -7   -8    8      2.59      0.00
   -6   -8    8      1.64      0.00
   -5   -8    8     -4.04      0.00
   -4   -8    8     -2.49      0.00
   -3   -8    8     -1.25      0.00
   -2   -8    8      3.08      0.00
   -1   -8    8      1.09      0.00
    0   -8    8     -2.61      0.00
    1   -8    8     -1.94      0.00
    2   -8    8     -2.85      0.00
    3   -8    8     -0.97      0.00
    4   -8    8      1.11      0.00
    5   -8    8     -0.34      0.00
    6   -8    8     -0.72      0.00
  -11   -7    8      2.36      0.00
  -10   -7    8     -0.30      0.00
   -9   -7    8     -0.92      0.00
   -8   -7    8      1.60      0.00
   -7   -7    8      0.35      0.00
   -6   -7    8      1.02      0.00
   -5   -7    8     -5.91      0.00
   -4   -7    8     -1.99      0.00
   -3   -7    8      0.80      0.00
   -2   -7    8      3.57      0.00
   -1   -7    8     -1.76      0.00
    0   -7    8     -2.11      0.00
    1   -7    8     -1.95      0.00
    2   -7    8     -3.19      0.00
    3   -7    8      0.46      0.00
    4   -7    8      1.22      0.00
    5   -7    8     -3.52      0.00
    6   -7    8     -2.76      0.00
    7   -7    8     -1.88      0.00
  -12   -6    8      1.35      0.00
  -11   -6    8      1.30      0.00
  -10   -6    8     -1.59      0.00
   -9   -6    8      0.56      0.00
   -8   -6    8      1.51      0.00
   -7   -6    8      1.93      0.00
   -6   -6    8      1.07      0.00
   -5   -6    8     -6.16      0.00
   -4   -6    8      3.48      0.00
   -3   -6    8      2.61      0.00
   -2   -6    8      0.56      0.00
   -1   -6    8      0.11      0.00
    0   -6    8      0.99      0.00
    1   -6    8     -2.35      0.00
    2   -6    8      1.54      0.00
    3   -6    8      6.85      0.00
    4   -6    8      0.64      0.00
    5   -6    8     -4.15      0.00
    6   -6    8     -0.92      0.00
    7   -6    8      0.06      0.00
    8   -6    8      0.19      0.00
  -12   -5    8      0.02      0.00
  -11   -5    8     -1.12      0.00
  -10   -5    8     -3.91      0.00
   -9   -5    8      0.22      0.00
   -8   -5    8      0.73      0.00
   -7   -5    8      1.32      0.00
   -6   -5    8     -2.80      0.00
   -5   -5    8     -1.41      0.00
   -4   -5    8      5.86      0.00
   -3   -5    8     -4.28      0.00
   -2   -5    8      0.34      0.00
   -1   -5    8      1.71      0.00
    0   -5    8     -4.22      0.00
    1   -5    8     -1.05      0.00
    2   -5    8      9.97      0.00
    3   -5    8      7.48      0.00
    4   -5    8     -3.01      0.00
    5   -5    8     -0.87      0.00
    6   -5    8      2.54      0.00
    7   -5    8      1.97      0.00
    8   -5    8      0.41      0.00
    9   -5    8      1.02      0.00
  -12   -4    8     -0.62      0.00
  -11   -4    8     -2.12      0.00
  -10   -4    8     -2.64      0.00
   -9   -4    8      1.72      0.00
   -8   -4    8     -0.46      0.00
   -7   -4    8     -2.38      0.00
   -6   -4    8     -2.50      0.00
   -5   -4    8      3.19      0.00
   -4   -4    8      0.64      0.00
   -3   -4    8     -5.13      0.00
   -2   -4    8      6.40      0.00
   -1   -4    8     -6.76      0.00
    0   -4    8     -9.99      0.00
    1   -4    8      3.96      0.00
    2   -4    8      7.13      0.00
    3   -4    8     -3.48      0.00
    4   -4    8     -5.67      0.00
    5   -4    8      2.34      0.00
    6   -4    8      3.06      0.00
    7   -4    8      1.67      0.00
    8   -4    8     -0.52      0.00
    9   -4    8      0.52      0.00
  -12   -3    8     -0.73      0.00
  -11   -3    8     -1.06      0.00
  -10   -3    8      0.65      0.00
   -9   -3    8      2.17      0.00
   -8   -3    8     -0.87      0.00
   -7   -3    8     -2.21      0.00
   -6   -3    8      2.61      0.00
   -5   -3    8      1.85      0.00
   -4   -3    8     -0.01      0.00
   -3   -3    8      4.17      0.00
   -2   -3    8      6.94      0.00
   -1   -3    8    -13.74      0.00
    0   -3    8     -0.20      0.00
    1   -3    8      7.55      0.00
    2   -3    8     -2.73      0.00
    3   -3    8    -10.70      0.00
    4   -3    8     -3.55      0.00
    5   -3    8      1.85      0.00
    6   -3    8      1.01      0.00
    7   -3    8     -0.25      0.00
    8   -3    8     -0.56      0.00
    9   -3    8     -0.37      0.00
   10   -3    8     -2.39      0.00
  -12   -2    8     -0.10      0.00
  -11   -2    8      0.30      0.00
  -10   -2    8      1.80      0.00
   -9   -2    8      0.05      0.00
   -8   -2    8     -1.14      0.00
   -7   -2    8     -0.80      0.00
   -6   -2    8      4.52      0.00
   -5   -2    8     -4.12      0.00
   -4   -2    8      5.44      0.00
   -3   -2    8      5.55      0.00
   -2   -2    8     -2.02      0.00
   -1   -2    8     -9.46      0.00
    0   -2    8     15.00      0.00
    1   -2    8      3.47      0.00
    2   -2    8     -7.00      0.00
    3   -2    8     -7.48      0.00
    4   -2    8      2.93      0.00
    5   -2    8      0.68      0.00
    6   -2    8      0.43      0.00
    7   -2    8     -0.73      0.00
    8   -2    8      0.80      0.00
    9   -2    8     -1.58      0.00
   10   -2    8     -0.08      0.00
  -12   -1    8     -0.13      0.00
  -11   -1    8      1.18      0.00
  -10   -1    8      1.54      0.00
   -9   -1    8     -2.51      0.00
   -8   -1    8     -0.30      0.00
   -7   -1    8      0.18      0.00
   -6   -1    8      0.03      0.00
   -5   -1    8     -8.69      0.00
   -4   -1    8     10.89      0.00
   -3   -1    8    -10.50      0.00
   -2   -1    8    -10.18      0.00
   -1   -1    8      1.03      0.00
    0   -1    8     18.42      0.00
    1   -1    8     -9.21      0.00
    2   -1    8     -3.42      0.00
    3   -1    8     -1.36      0.00
    4   -1    8      5.09      0.00
    5   -1    8     -3.10      0.00
    6   -1    8      2.57      0.00
    7   -1    8     -0.54      0.00
    8   -1    8     -0.61      0.00
    9   -1    8     -2.37      0.00
   10   -1    8      3.66      0.00
   11   -1    8      2.11      0.00
  -11    0    8      2.00      0.00
  -10    0    8     -0.19      0.00
   -9    0    8     -1.42      0.00
   -8    0    8      4.06      0.00
   -7    0    8     -1.21      0.00
   -6    0    8     -2.83      0.00
   -5    0    8      0.65      0.00
   -4    0    8     11.45      0.00
   -3    0    8    -26.81      0.00
   -2    0    8      3.53      0.00
   -1    0    8      7.08      0.00
    0    0    8      5.10      0.00
    1    0    8    -17.49      0.00
    2    0    8      9.58      0.00
    3    0    8     -0.12      0.00
    4    0    8      2.84      0.00
    5    0    8     -2.61      0.00
    6    0    8      4.56      0.00
    7    0    8     -5.96      0.00
    8    0    8     -3.17      0.00
    9    0    8      0.00      0.00
   10    0    8      3.25      0.00
   11    0    8     -1.29      0.00
  -11    1    8     -0.22      0.00
  -10    1    8     -2.70      0.00
   -9    1    8      2.37      0.00
   -8    1    8      2.95      0.00
   -7    1    8     -4.49      0.00
   -6    1    8      4.32      0.00
   -5    1    8      9.12      0.00
   -4    1    8     -1.47      0.00
   -3    1    8    -18.54      0.00
   -2    1    8     27.30      0.00
   -1    1    8     -3.37      0.00
    0    1    8     -2.09      0.00
    1    1    8     -6.12      0.00
    2    1    8     17.80      0.00
    3    1    8     -4.55      0.00
    4    1    8      9.12      0.00
    5    1    8      4.74      0.00
    6    1    8      1.95      0.00
    7    1    8     -8.76      0.00
    8    1    8      0.84      0.00
    9    1    8      1.29      0.00
   10    1    8     -1.15      0.00
   11    1    8     -2.54      0.00
   12    1    8     -0.24      0.00
  -11    2    8     -1.58      0.00
  -10    2    8     -1.68      0.00
   -9    2    8      2.09      0.00
   -8    2    8     -4.04      0.00
   -7    2    8     -0.96      0.00
   -6    2    8      8.86      0.00
   -5    2    8     -0.80      0.00
   -4    2    8    -10.75      0.00
   -3    2    8      2.27      0.00
   -2    2    8     17.93      0.00
   -1    2    8    -18.31      0.00
    0    2    8      4.83      0.00
    1    2    8     -1.01      0.00
    2    2    8      6.37      0.00
    3    2    8     -5.78      0.00
    4    2    8     14.19      0.00
    5    2    8      2.33      0.00
    6    2    8     -2.14      0.00
    7    2    8     -1.28      0.00
    8    2    8      6.04      0.00
    9    2    8      0.78      0.00
   10    2    8     -0.57      0.00
   11    2    8     -0.36      0.00
   12    2    8     -0.48      0.00
  -10    3    8      0.18      0.00
   -9    3    8      0.10      0.00
   -8    3    8     -3.83      0.00
   -7    3    8      4.76      0.00
   -6    3    8      0.79      0.00
   -5    3    8     -7.77      0.00
   -4    3    8     -2.16      0.00
   -3    3    8      9.08      0.00
   -2    3    8     -2.70      0.00
   -1    3    8     -8.61      0.00
    0    3    8      5.39      0.00
    1    3    8     -8.98      0.00
    2    3    8     -5.12      0.00
    3    3    8     -5.66      0.00
    4    3    8      2.43      0.00
    5    3    8     -8.24      0.00
    6    3    8     -4.76      0.00
    7    3    8      3.17      0.00
    8    3    8      3.39      0.00
    9    3    8      0.85      0.00
   10    3    8      1.11      0.00
   11    3    8      0.26      0.00
   12    3    8      0.69      0.00
  -10    4    8     -0.39      0.00
   -9    4    8      0.35      0.00
   -8    4    8      0.31      0.00
   -7    4    8      3.67      0.00
   -6    4    8     -5.39      0.00
   -5    4    8     -1.67      0.00
   -4    4    8      3.83      0.00
   -3    4    8      3.96      0.00
   -2    4    8     -3.33      0.00
   -1    4    8      4.93      0.00
    0    4    8     -0.29      0.00
    1    4    8     -2.23      0.00
    2    4    8     -2.40      0.00
    3    4    8     -0.66      0.00
    4    4    8     -4.86      0.00
    5    4    8    -10.12      0.00
    6    4    8     -5.68      0.00
    7    4    8      3.15      0.00
    8    4    8     -0.87      0.00
    9    4    8      0.33      0.00
   10    4    8     -2.07      0.00
   11    4    8     -0.71      0.00
   12    4    8      0.63      0.00
  -10    5    8     -0.38      0.00
   -9    5    8      0.86      0.00
   -8    5    8      1.25      0.00
   -7    5    8     -0.22      0.00
   -6    5    8     -3.97      0.00
   -5    5    8      2.67      0.00
   -4    5    8      2.14      0.00
   -3    5    8      0.35      0.00
   -2    5    8     -0.24      0.00
   -1    5    8      2.35      0.00
    0    5    8     -0.88      0.00
    1    5    8      3.31      0.00
    2    5    8      1.98      0.00
    3    5    8      9.82      0.00
    4    5    8     -4.16      0.00
    5    5    8     -3.41      0.00
    6    5    8      0.24      0.00
    7    5    8      5.23      0.00
    8    5    8     -2.62      0.00
    9    5    8      1.17      0.00
   10    5    8     -1.69      0.00
   11    5    8      2.11      0.00
   12    5    8      0.08      0.00
   13    5    8     -0.15      0.00
   -9    6    8      0.95      0.00
   -8    6    8      1.23      0.00
   -7    6    8     -2.23      0.00
   -6    6    8     -0.64      0.00
   -5    6    8      1.49      0.00
   -4    6    8     -1.31      0.00
   -3    6    8     -3.32      0.00
   -2    6    8      0.21      0.00
   -1    6    8     -1.16      0.00
    0    6    8      0.87      0.00
    1    6    8      1.48      0.00
    2    6    8      9.07      0.00
    3    6    8      7.36      0.00
    4    6    8     -7.99      0.00
    5    6    8      6.17      0.00
    6    6    8      4.69      0.00
    7    6    8      2.90      0.00
    8    6    8     -3.51      0.00
    9    6    8      1.50      0.00
   10    6    8     -0.40      0.00
   11    6    8      3.29      0.00
   12    6    8      0.05      0.00
   13    6    8      0.87      0.00
   -8    7    8      0.07      0.00
   -7    7    8     -1.41      0.00
   -6    7    8      3.00      0.00
   -5    7    8      0.25      0.00
   -4    7    8     -1.64      0.00
   -3    7    8     -2.53      0.00
   -2    7    8      0.25      0.00
   -1    7    8     -6.59      0.00
    0    7    8      0.59      0.00
    1    7    8      2.65      0.00
    2    7    8      8.52      0.00
    3    7    8     -7.05      0.00
    4    7    8     -3.36      0.00
    5    7    8      9.60      0.00
    6    7    8     -0.16      0.00
    7    7    8     -0.62      0.00
    8    7    8     -3.12      0.00
    9    7    8     -0.86      0.00
   10    7    8     -1.32      0.00
   11    7    8     -0.10      0.00
   12    7    8     -1.33      0.00
   13    7    8     -0.07      0.00
   -8    8    8     -0.74      0.00
   -7    8    8     -0.19      0.00
   -6    8    8      1.40      0.00
   -5    8    8     -0.59      0.00
   -4    8    8      2.25      0.00
   -3    8    8      1.80      0.00
   -2    8    8     -0.63      0.00
   -1    8    8     -5.67      0.00
    0    8    8      4.84      0.00
    1    8    8     -0.14      0.00
    2    8    8     -2.60      0.00
    3    8    8    -11.99      0.00
    4    8    8      5.32      0.00
    5    8    8      2.15      0.00
    6    8    8     -1.28      0.00
    7    8    8     -0.48      0.00
    8    8    8     -2.31      0.00
    9    8    8     -0.79      0.00
   10    8    8     -0.20      0.00
   11    8    8     -1.49      0.00
   12    8    8     -0.20      0.00
   13    8    8     -0.75      0.00
   -7    9    8      0.06      0.00
   -6    9    8     -0.79      0.00
   -5    9    8      0.62      0.00
   -4    9    8      1.62      0.00
   -3    9    8     -0.66      0.00
   -2    9    8     -1.25      0.00
   -1    9    8      1.81      0.00
    0    9    8      7.36      0.00
    1    9    8     -3.40      0.00
    2    9    8     -5.31      0.00
    3    9    8     -6.13      0.00
    4    9    8      5.77      0.00
    5    9    8     -3.28      0.00
    6    9    8      2.33      0.00
    7    9    8     -1.21      0.00
    8    9    8      0.41      0.00
    9    9    8      1.76      0.00
   10    9    8      1.15      0.00
   11    9    8      0.10      0.00
   12    9    8      0.81      0.00
   -6   10    8      0.30      0.00
   -5   10    8      1.63      0.00
   -4   10    8     -1.49      0.00
   -3   10    8     -2.58      0.00
   -2   10    8     -0.31      0.00
   -1   10    8      3.95      0.00
    0   10    8      3.61      0.00
    1   10    8     -4.47      0.00
    2   10    8     -3.33      0.00
    3   10    8     -0.71      0.00
    4   10    8      2.44      0.00
    5   10    8     -3.72      0.00
    6   10    8      0.72      0.00
    7   10    8     -2.26      0.00
    8   10    8      1.31      0.00
    9   10    8      2.44      0.00
   10   10    8      2.51      0.00
   11   10    8      0.87      0.00
   12   10    8     -1.07      0.00
   -5   11    8      0.28      0.00
   -4   11    8     -2.53      0.00
   -3   11    8     -1.30      0.00
   -2   11    8      1.48      0.00
   -1   11    8      3.47      0.00
    0   11    8     -0.96      0.00
    1   11    8     -4.44      0.00
    2   11    8      0.49      0.00
    3   11    8      2.68      0.00
    4   11    8     -0.45      0.00
    5   11    8     -2.06      0.00
    6   11    8     -1.93      0.00
    7   11    8     -2.59      0.00
    8   11    8     -0.80      0.00
    9   11    8      2.68      0.00
   10   11    8      1.63      0.00
   11   11    8     -1.16      0.00
   12   11    8     -0.97      0.00
   -4   12    8     -1.65      0.00
   -3   12    8      1.46      0.00
   -2   12    8      3.17      0.00
   -1   12    8      1.01      0.00
    0   12    8     -3.68      0.00
    1   12    8     -0.09      0.00
    2   12    8      4.25      0.00
    3   12    8      1.97      0.00
    4   12    8      0.97      0.00
    5   12    8      0.88      0.00
    6   12    8     -2.61      0.00
    7   12    8     -1.56      0.00
    8   12    8     -0.30      0.00
    9   12    8      1.47      0.00
   10   12    8     -1.62      0.00
   11   12    8     -1.99      0.00
   -3   13    8      2.21      0.00
   -2   13    8      0.38      0.00
   -1   13    8     -2.12      0.00
    0   13    8     -1.52      0.00
    1   13    8      2.53      0.00
    2   13    8      1.75      0.00
    3   13    8      0.95      0.00
    4   13    8      3.75      0.00
    5   13    8     -0.33      0.00
    6   13    8     -0.07      0.00
    7   13    8      1.47      0.00
    8   13    8      0.51      0.00
    9   13    8     -0.70      0.00
   10   13    8     -1.69      0.00
   11   13    8     -1.11      0.00
   -1   14    8     -1.80      0.00
    0   14    8     -0.64      0.00
    1   14    8     -1.25      0.00
    2   14    8     -0.59      0.00
    3   14    8      0.09      0.00
    4   14    8      0.42      0.00
    5   14    8     -2.02      0.00
    6   14    8      3.59      0.00
    7   14    8      1.35      0.00
    8   14    8      0.66      0.00
    9   14    8     -0.08      0.00
   10   14    8     -1.03      0.00
    1   15    8     -1.09      0.00
    2   15    8      0.74      0.00
    3   15    8     -2.45      0.00
    4   15    8     -2.00      0.00
    5   15    8     -0.93      0.00
    6   15    8      1.87      0.00
    7   15    8      0.06      0.00
    8   15    8      1.81      0.00
    9   15    8      0.44      0.00
    4   16    8      0.12      0.00
    5   16    8     -0.51      0.00
    6   16    8     -0.22      0.00
   -7  -12    9      0.79      0.00
   -6  -12    9     -0.47      0.00
   -5  -12    9     -1.43      0.00
   -4  -12    9      0.94      0.00
   -3  -12    9     -2.10      0.00
   -2  -12    9     -1.68      0.00
   -1  -12    9      0.31      0.00
   -8  -11    9      0.72      0.00
   -7  -11    9      1.42      0.00
   -6  -11    9      1.51      0.00
   -5  -11    9      0.34      0.00
   -4  -11    9      1.73      0.00
   -3  -11    9     -0.60      0.00
   -2  -11    9      2.66      0.00
   -1  -11    9      2.35      0.00
    0  -11    9      0.65      0.00
    1  -11    9     -1.02      0.00
   -9  -10    9     -0.29      0.00
   -8  -10    9      1.10      0.00
   -7  -10    9      2.56      0.00
   -6  -10    9      1.41      0.00
   -5  -10    9     -2.13      0.00
   -4  -10    9      0.62      0.00
   -3  -10    9      1.02      0.00
   -2  -10    9      3.53      0.00
   -1  -10    9      1.34      0.00
    0  -10    9      0.99      0.00
    1  -10    9     -0.97      0.00
    2  -10    9      1.69      0.00
    3  -10    9     -0.25      0.00
  -10   -9    9     -0.36      0.00
   -9   -9    9     -1.59      0.00
   -8   -9    9      2.57      0.00
   -7   -9    9      1.29      0.00
   -6   -9    9     -3.03      0.00
   -5   -9    9     -3.60      0.00
   -4   -9    9     -0.47      0.00
   -3   -9    9     -0.12      0.00
   -2   -9    9      0.45      0.00
   -1   -9    9     -1.74      0.00
    0   -9    9     -1.58      0.00
    1   -9    9     -3.17      0.00
    2   -9    9      0.17      0.00
    3   -9    9     -0.57      0.00
    4   -9    9      0.15      0.00
  -11   -8    9     -0.18      0.00
  -10   -8    9     -1.49      0.00
   -9   -8    9      0.18      0.00
   -8   -8    9      2.42      0.00
   -7   -8    9     -1.01      0.00
   -6   -8    9     -4.31      0.00
   -5   -8    9     -1.57      0.00
   -4   -8    9     -1.05      0.00
   -3   -8    9      1.17      0.00
   -2   -8    9     -0.68      0.00
   -1   -8    9     -2.92      0.00
    0   -8    9     -2.24      0.00
    1   -8    9     -2.60      0.00
    2   -8    9      0.84      0.00
    3   -8    9      0.52      0.00
    4   -8    9     -2.15      0.00
    5   -8    9     -2.67      0.00
    6   -8    9     -2.27      0.00
  -11   -7    9     -0.86      0.00
  -10   -7    9     -0.39      0.00
   -9   -7    9      1.35      0.00
   -8   -7    9      1.25      0.00
   -7   -7    9      0.34      0.00
   -6   -7    9     -3.34      0.00
   -5   -7    9      1.57      0.00
   -4   -7    9      1.56      0.00
   -3   -7    9      2.64      0.00
   -2   -7    9     -1.86      0.00
   -1   -7    9     -1.47      0.00
    0   -7    9     -1.09      0.00
    1   -7    9      0.52      0.00
    2   -7    9      5.44      0.00
    3   -7    9      2.74      0.00
    4   -7    9     -2.60      0.00
    5   -7    9     -0.79      0.00
    6   -7    9     -0.62      0.00
    7   -7    9      0.93      0.00
  -11   -6    9     -1.99      0.00
  -10   -6    9     -0.21      0.00
   -9   -6    9      0.26      0.00
   -8   -6    9      1.15      0.00
   -7   -6    9     -0.58      0.00
   -6   -6    9     -2.93      0.00
   -5   -6    9      5.51      0.00
   -4   -6    9      1.19      0.00
   -3   -6    9      0.72      0.00
   -2   -6    9     -0.68      0.00
   -1   -6    9     -1.66      0.00
    0   -6    9     -2.00      0.00
    1   -6    9      5.36      0.00
    2   -6    9      7.67      0.00
    3   -6    9     -0.84      0.00
    4   -6    9     -2.12      0.00
    5   -6    9      2.85      0.00
    6   -6    9      2.29      0.00
    7   -6    9      2.47      0.00
  -11   -5    9     -1.73      0.00
  -10   -5    9      1.22      0.00
   -9   -5    9     -0.06      0.00
   -8   -5    9     -0.50      0.00
   -7   -5    9     -3.41      0.00
   -6   -5    9     -0.20      0.00
   -5   -5    9      3.42      0.00
   -4   -5    9     -3.44      0.00
   -3   -5    9      2.95      0.00
   -2   -5    9     -1.98      0.00
   -1   -5    9     -7.02      0.00
    0   -5    9      0.18      0.00
    1   -5    9      7.29      0.00
    2   -5    9     -0.76      0.00
    3   -5    9     -7.30      0.00
    4   -5    9      0.21      0.00
    5   -5    9      3.38      0.00
    6   -5    9      2.19      0.00
    7   -5    9      1.70      0.00
    8   -5    9      0.82      0.00
  -12   -4    9     -0.48      0.00
  -11   -4    9      0.60      0.00
  -10   -4    9      3.51      0.00
   -9   -4    9     -0.20      0.00
   -8   -4    9     -0.86      0.00
   -7   -4    9     -0.79      0.00
   -6   -4    9      1.28      0.00
   -5   -4    9     -1.52      0.00
   -4   -4    9     -0.22      0.00
   -3   -4    9      6.47      0.00
   -2   -4    9     -8.41      0.00
   -1   -4    9     -2.34      0.00
    0   -4    9      8.20      0.00
    1   -4    9      1.58      0.00
    2   -4    9     -9.94      0.00
    3   -4    9     -6.71      0.00
    4   -4    9      1.08      0.00
    5   -4    9     -0.19      0.00
    6   -4    9      0.03      0.00
    7   -4    9     -0.71      0.00
    8   -4    9     -0.89      0.00
    9   -4    9     -2.62      0.00
  -12   -3    9      0.61      0.00
  -11   -3    9      1.98      0.00
  -10   -3    9      2.54      0.00
   -9   -3    9     -0.63      0.00
   -8   -3    9      0.28      0.00
   -7   -3    9      2.10      0.00
   -6   -3    9     -0.82      0.00
   -5   -3    9      0.35      0.00
   -4   -3    9      4.37      0.00
   -3   -3    9      0.41      0.00
   -2   -3    9     -9.94      0.00
   -1   -3    9     11.85      0.00
    0   -3    9      9.48      0.00
    1   -3    9     -2.96      0.00
    2   -3    9     -6.02      0.00
    3   -3    9      1.17      0.00
    4   -3    9      1.05      0.00
    5   -3    9     -1.39      0.00
    6   -3    9     -1.24      0.00
    7   -3    9     -1.92      0.00
    8   -3    9     -1.98      0.00
    9   -3    9     -1.47      0.00
   10   -3    9      2.29      0.00
  -11   -2    9      1.24      0.00
  -10   -2    9      0.11      0.00
   -9   -2    9     -0.85      0.00
   -8   -2    9     -0.45      0.00
   -7   -2    9      0.99      0.00
   -6   -2    9     -3.51      0.00
   -5   -2    9      5.10      0.00
   -4   -2    9     -1.46      0.00
   -3   -2    9     -8.01      0.00
   -2   -2    9     -3.96      0.00
   -1   -2    9     16.02      0.00
    0   -2    9     -1.59      0.00
    1   -2    9     -2.97      0.00
    2   -2    9      0.47      0.00
    3   -2    9      6.35      0.00
    4   -2    9      0.30      0.00
    5   -2    9      1.58      0.00
    6   -2    9     -0.11      0.00
    7   -2    9     -1.16      0.00
    8   -2    9     -2.53      0.00
    9   -2    9      2.04      0.00
   10   -2    9      3.42      0.00
  -11   -1    9      0.14      0.00
  -10   -1    9     -1.20      0.00
   -9   -1    9      0.49      0.00
   -8   -1    9     -1.12      0.00
   -7   -1    9     -0.96      0.00
   -6   -1    9     -1.65      0.00
   -5   -1    9      8.21      0.00
   -4   -1    9    -12.91      0.00
   -3   -1    9     -4.50      0.00
   -2   -1    9      3.41      0.00
   -1   -1    9      6.86      0.00
    0   -1    9    -14.26      0.00
    1   -1    9      1.36      0.00
    2   -1    9      0.50      0.00
    3   -1    9      4.41      0.00
    4   -1    9     -1.90      0.00
    5   -1    9      5.15      0.00
    6   -1    9     -1.88      0.00
    7   -1    9     -2.10      0.00
    8   -1    9     -1.21      0.00
    9   -1    9      4.61      0.00
   10   -1    9     -0.40      0.00
   11   -1    9     -1.88      0.00
  -11    0    9     -1.68      0.00
  -10    0    9     -0.45      0.00
   -9    0    9      1.84      0.00
   -8    0    9     -2.59      0.00
   -7    0    9      1.46      0.00
   -6    0    9      6.03      0.00
   -5    0    9      4.04      0.00
   -4    0    9    -16.48      0.00
   -3    0    9     15.04      0.00
   -2    0    9      3.39      0.00
   -1    0    9     -2.02      0.00
    0    0    9    -11.45      0.00
    1    0    9      9.92      0.00
    2    0    9     -6.14      0.00
    3    0    9      3.98      0.00
    4    0    9      1.55      0.00
    5    0    9      5.68      0.00
    6    0    9     -7.42      0.00
    7    0    9     -0.27      0.00
    8    0    9      1.97      0.00
    9    0    9      2.29      0.00
   10    0    9     -3.97      0.00
   11    0    9     -1.23      0.00
  -11    1    9     -1.86      0.00
  -10    1    9      1.05      0.00
   -9    1    9     -2.10      0.00
   -8    1    9     -3.40      0.00
   -7    1    9      6.61      0.00
   -6    1    9      3.76      0.00
   -5    1    9     -7.89      0.00
   -4    1    9     -5.11      0.00
   -3    1    9     23.26      0.00
   -2    1    9    -11.43      0.00
   -1    1    9      3.20      0.00
    0    1    9      0.64      0.00
    1    1    9      7.91      0.00
    2    1    9    -12.18      0.00
    3    1    9     10.81      0.00
    4    1    9      1.74      0.00
    5    1    9     -0.80      0.00
    6    1    9     -5.79      0.00
    7    1    9      7.29      0.00
    8    1    9      2.36      0.00
    9    1    9     -0.32      0.00
   10    1    9     -1.60      0.00
   11    1    9      0.40      0.00
  -11    2    9      0.88      0.00
  -10    2    9      1.54      0.00
   -9    2    9     -3.95      0.00
   -8    2    9      2.13      0.00
   -7    2    9      4.23      0.00
   -6    2    9     -7.45      0.00
   -5    2    9     -7.69      0.00
   -4    2    9      7.56      0.00
   -3    2    9      5.65      0.00
   -2    2    9    -16.48      0.00
   -1    2    9     13.07      0.00
    0    2    9     -4.44      0.00
    1    2    9     -3.38      0.00
    2    2    9     -8.06      0.00
    3    2    9      9.49      0.00
    4    2    9    -10.53      0.00
    5    2    9     -7.02      0.00
    6    2    9      0.19      0.00
    7    2    9      7.04      0.00
    8    2    9     -0.23      0.00
    9    2    9      1.45      0.00
   10    2    9      1.14      0.00
   11    2    9      0.54      0.00
   12    2    9      0.39      0.00
  -10    3    9      0.71      0.00
   -9    3    9     -0.43      0.00
   -8    3    9      5.58      0.00
   -7    3    9     -3.41      0.00
   -6    3    9     -6.53      0.00
   -5    3    9      2.16      0.00
   -4    3    9      5.81      0.00
   -3    3    9     -6.06      0.00
   -2    3    9     -0.10      0.00
   -1    3    9      8.48      0.00
    0    3    9    -10.16      0.00
    1    3    9     -0.30      0.00
    2    3    9      1.28      0.00
    3    3    9      0.93      0.00
    4    3    9    -14.05      0.00
    5    3    9     -5.29      0.00
    6    3    9      1.11      0.00
    7    3    9     -0.45      0.00
    8    3    9     -1.80      0.00
    9    3    9     -0.12      0.00
   10    3    9     -1.13      0.00
   11    3    9      0.18      0.00
   12    3    9      0.75      0.00
  -10    4    9      0.56      0.00
   -9    4    9      0.91      0.00
   -8    4    9      2.15      0.00
   -7    4    9     -4.90      0.00
   -6    4    9      1.57      0.00
   -4    4    9      0.02      0.00
   -3    4    9     -2.53      0.00
   -2    4    9      5.50      0.00
   -1    4    9     -3.23      0.00
    0    4    9     -1.59      0.00
    1    4    9      5.13      0.00
    2    4    9      7.44      0.00
    3    4    9      0.33      0.00
    4    4    9     -3.56      0.00
    5    4    9      1.83      0.00
    6    4    9      4.58      0.00
    7    4    9     -2.41      0.00
    8    4    9     -0.84      0.00
    9    4    9     -2.62      0.00
   10    4    9     -0.52      0.00
   11    4    9     -0.07      0.00
   12    4    9     -0.64      0.00
   -9    5    9      0.54      0.00
   -8    5    9     -0.51      0.00
   -7    5    9     -1.68      0.00
   -6    5    9      3.13      0.00
   -5    5    9     -0.56      0.00
   -4    5    9     -0.76      0.00
   -3    5    9     -0.51      0.00
   -2    5    9     -0.27      0.00
   -1    5    9     -4.00      0.00
    0    5    9      2.65      0.00
    1    5    9      3.69      0.00
    2    5    9      7.73      0.00
    3    5    9     -3.98      0.00
    4    5    9      3.78      0.00
    5    5    9      7.72      0.00
    6    5    9      7.28      0.00
    7    5    9     -2.38      0.00
    8    5    9      1.39      0.00
    9    5    9     -1.69      0.00
   10    5    9      2.16      0.00
   11    5    9     -0.52      0.00
   12    5    9      0.54      0.00
   -9    6    9      0.17      0.00
   -8    6    9     -1.60      0.00
   -7    6    9      0.92      0.00
   -6    6    9      1.44      0.00
   -5    6    9     -0.63      0.00
   -4    6    9     -0.27      0.00
   -3    6    9     -0.25      0.00
   -2    6    9     -3.99      0.00
   -1    6    9     -1.72      0.00
    0    6    9      0.94      0.00
    1    6    9      4.66      0.00
    2    6    9     -2.45      0.00
    3    6    9     -9.08      0.00
    4    6    9      8.41      0.00
    5    6    9      3.48      0.00
    6    6    9      1.71      0.00
    7    6    9     -2.64      0.00
    8    6    9      1.83      0.00
    9    6    9     -2.48      0.00
   10    6    9      0.31      0.00
   11    6    9     -2.39      0.00
   12    6    9      0.79      0.00
   -8    7    9     -1.58      0.00
   -7    7    9      1.16      0.00
   -6    7    9     -0.95      0.00
   -5    7    9      0.99      0.00
   -4    7    9      2.08      0.00
   -3    7    9      1.02      0.00
   -2    7    9     -4.62      0.00
   -1    7    9      2.65      0.00
    0    7    9      0.31      0.00
    1    7    9     -1.07      0.00
    2    7    9    -13.89      0.00
    3    7    9     -1.83      0.00
    4    7    9      5.49      0.00
    5    7    9     -5.41      0.00
    6    7    9     -1.03      0.00
    7    7    9     -2.03      0.00
    8    7    9      0.04      0.00
    9    7    9     -1.56      0.00
   10    7    9     -0.22      0.00
   11    7    9     -1.33      0.00
   12    7    9      0.04      0.00
   13    7    9     -0.98      0.00
   -8    8    9     -0.46      0.00
   -7    8    9     -0.35      0.00
   -6    8    9     -1.48      0.00
   -5    8    9      1.08      0.00
   -4    8    9     -0.04      0.00
   -3    8    9     -1.49      0.00
   -2    8    9      0.39      0.00
   -1    8    9      9.71      0.00
    0    8    9     -0.61      0.00
    1    8    9     -3.90      0.00
    2    8    9     -8.62      0.00
    3    8    9      6.31      0.00
    4    8    9     -3.30      0.00
    5    8    9     -3.16      0.00
    6    8    9     -0.20      0.00
    7    8    9     -1.67      0.00
    8    8    9      0.73      0.00
    9    8    9      1.62      0.00
   10    8    9      1.29      0.00
   11    8    9      2.04      0.00
   12    8    9      0.16      0.00
   -7    9    9     -0.07      0.00
   -6    9    9      1.25      0.00
   -5    9    9     -0.48      0.00
   -4    9    9     -2.95      0.00
   -3    9    9     -2.07      0.00
   -2    9    9      3.58      0.00
   -1    9    9      5.86      0.00
    0    9    9     -3.65      0.00
    1    9    9     -0.23      0.00
    2    9    9      0.41      0.00
    3    9    9      6.67      0.00
    4    9    9     -4.41      0.00
    5    9    9      2.56      0.00
    6    9    9     -2.77      0.00
    7    9    9      0.36      0.00
    8    9    9      2.06      0.00
    9    9    9      2.38      0.00
   10    9    9      1.65      0.00
   11    9    9      1.24      0.00
   12    9    9     -1.38      0.00
   -6   10    9      0.94      0.00
   -5   10    9     -1.93      0.00
   -4   10    9     -0.76      0.00
   -3   10    9      1.13      0.00
   -2   10    9      2.95      0.00
   -1   10    9     -0.80      0.00
    0   10    9     -5.34      0.00
    1   10    9      0.33      0.00
    2   10    9      2.66      0.00
    3   10    9      3.62      0.00
    4   10    9     -1.64      0.00
    5   10    9      1.79      0.00
    6   10    9     -4.05      0.00
    7   10    9      0.39      0.00
    8   10    9      0.65      0.00
    9   10    9      1.09      0.00
   10   10    9     -0.33      0.00
   11   10    9     -1.39      0.00
   12   10    9     -0.51      0.00
   -5   11    9     -1.63      0.00
   -4   11    9      1.16      0.00
   -3   11    9      2.34      0.00
   -2   11    9      1.16      0.00
   -1   11    9     -3.41      0.00
    0   11    9     -3.37      0.00
    1   11    9      2.18      0.00
    2   11    9      2.76      0.00
    3   11    9      1.08      0.00
    4   11    9      1.81      0.00
    5   11    9      0.70      0.00
    6   11    9     -1.79      0.00
    7   11    9     -0.19      0.00
    8   11    9      0.71      0.00
    9   11    9     -2.06      0.00
   10   11    9     -3.09      0.00
   11   11    9     -0.96      0.00
   12   11    9      1.25      0.00
   -4   12    9      2.14      0.00
   -3   12    9      1.38      0.00
   -2   12    9     -1.43      0.00
   -1   12    9     -2.81      0.00
    0   12    9      0.94      0.00
    1   12    9      2.11      0.00
    2   12    9     -0.11      0.00
    3   12    9      1.24      0.00
    4   12    9      2.55      0.00
    5   12    9     -0.34      0.00
    6   12    9      1.45      0.00
    7   12    9      1.97      0.00
    8   12    9      0.99      0.00
    9   12    9     -3.12      0.00
   10   12    9     -1.71      0.00
   11   12    9      0.36      0.00
   -3   13    9     -1.58      0.00
   -2   13    9     -2.13      0.00
   -1   13    9     -0.45      0.00
    0   13    9      0.86      0.00
    1   13    9     -1.29      0.00
    2   13    9     -0.73      0.00
    3   13    9      0.80      0.00
    4   13    9     -2.18      0.00
    5   13    9      0.13      0.00
    6   13    9      2.21      0.00
    7   13    9      2.09      0.00
    8   13    9      0.86      0.00
    9   13    9      0.09      0.00
   10   13    9      0.22      0.00
   11   13    9      0.64      0.00
   -1   14    9      0.08      0.00
    0   14    9     -0.80      0.00
    1   14    9     -0.14      0.00
    2   14    9     -0.26      0.00
    3   14    9     -2.19      0.00
    4   14    9     -3.63      0.00
    5   14    9      1.05      0.00
    6   14    9     -1.72      0.00
    7   14    9      1.05      0.00
    8   14    9      0.94      0.00
    9   14    9      0.81      0.00
   10   14    9      0.19      0.00
    1   15    9      2.36      0.00
    2   15    9     -0.72      0.00
    3   15    9     -0.55      0.00
    4   15    9     -0.57      0.00
    5   15    9     -0.19      0.00
    6   15    9     -2.61      0.00
    7   15    9      0.80      0.00
    8   15    9     -0.88      0.00
    5   16    9      0.35      0.00
   -5  -12   10      1.21      0.00
   -4  -12   10     -1.58      0.00
   -3  -12   10      0.87      0.00
   -8  -11   10      0.97      0.00
   -7  -11   10      1.32      0.00
   -6  -11   10      0.20      0.00
   -5  -11   10      0.04      0.00
   -4  -11   10     -1.47      0.00
   -3  -11   10      3.27      0.00
   -2  -11   10      1.84      0.00
   -1  -11   10      0.26      0.00
    0  -11   10     -0.42      0.00
    1  -11   10      0.84      0.00
   -9  -10   10      0.49      0.00
   -8  -10   10      0.70      0.00
   -7  -10   10     -0.56      0.00
   -6  -10   10     -3.10      0.00
   -5  -10   10     -0.69      0.00
   -4  -10   10     -1.70      0.00
   -3  -10   10      0.79      0.00
   -2  -10   10     -2.06      0.00
   -1  -10   10     -1.74      0.00
    0  -10   10     -2.27      0.00
    1  -10   10      0.63      0.00
    2  -10   10     -1.07      0.00
  -10   -9   10     -0.76      0.00
   -9   -9   10      1.85      0.00
   -8   -9   10     -0.80      0.00
   -7   -9   10     -2.90      0.00
   -6   -9   10     -1.93      0.00
   -5   -9   10      0.40      0.00
   -4   -9   10     -0.98      0.00
   -3   -9   10      0.23      0.00
   -2   -9   10     -2.60      0.00
   -1   -9   10     -2.71      0.00
    0   -9   10     -3.09      0.00
    1   -9   10      1.03      0.00
    2   -9   10     -0.42      0.00
    3   -9   10      0.36      0.00
    4   -9   10     -1.91      0.00
  -10   -8   10      0.93      0.00
   -9   -8   10      1.66      0.00
   -8   -8   10     -1.77      0.00
   -7   -8   10     -1.50      0.00
   -6   -8   10      1.24      0.00
   -5   -8   10      0.88      0.00
   -4   -8   10      2.39      0.00
   -3   -8   10      0.97      0.00
   -2   -8   10     -1.47      0.00
   -1   -8   10     -0.67      0.00
    0   -8   10      0.53      0.00
    1   -8   10      4.39      0.00
    2   -8   10      1.96      0.00
    3   -8   10     -0.44      0.00
    4   -8   10     -0.90      0.00
    5   -8   10     -0.07      0.00
  -11   -7   10      0.03      0.00
  -10   -7   10      0.96      0.00
   -9   -7   10      0.45      0.00
   -8   -7   10     -1.09      0.00
   -7   -7   10     -1.23      0.00
   -6   -7   10      2.75      0.00
   -5   -7   10      1.78      0.00
   -4   -7   10      3.45      0.00
   -3   -7   10     -0.73      0.00
   -2   -7   10     -0.49      0.00
   -1   -7   10      0.28      0.00
    0   -7   10      3.08      0.00
    1   -7   10      5.89      0.00
    2   -7   10      0.50      0.00
    3   -7   10     -2.23      0.00
    4   -7   10      1.61      0.00
    5   -7   10      2.21      0.00
    6   -7   10      3.31      0.00
  -11   -6   10      0.20      0.00
  -10   -6   10      0.29      0.00
   -9   -6   10      0.03      0.00
   -8   -6   10     -2.36      0.00
   -7   -6   10     -1.80      0.00
   -6   -6   10      3.15      0.00
   -5   -6   10     -1.18      0.00
   -4   -6   10      1.09      0.00
   -3   -6   10     -1.37      0.00
   -2   -6   10     -1.80      0.00
   -1   -6   10     -0.03      0.00
    0   -6   10      5.23      0.00
    1   -6   10      1.77      0.00
    2   -6   10     -6.32      0.00
    3   -6   10     -3.06      0.00
    4   -6   10      2.41      0.00
    5   -6   10      1.66      0.00
    6   -6   10      2.32      0.00
    7   -6   10     -0.13      0.00
  -11   -5   10      1.92      0.00
  -10   -5   10      0.36      0.00
   -9   -5   10     -0.10      0.00
   -8   -5   10     -1.91      0.00
   -7   -5   10      0.84      0.00
   -6   -5   10      0.77      0.00
   -5   -5   10     -3.15      0.00
   -4   -5   10      2.52      0.00
   -3   -5   10     -4.04      0.00
   -2   -5   10     -2.90      0.00
   -1   -5   10      5.21      0.00
    0   -5   10      4.95      0.00
    1   -5   10     -6.42      0.00
    2   -5   10     -8.07      0.00
    3   -5   10     -0.06      0.00
    4   -5   10      0.10      0.00
    5   -5   10     -0.84      0.00
    6   -5   10     -0.86      0.00
    7   -5   10     -2.51      0.00
    8   -5   10     -2.25      0.00
  -11   -4   10      2.23      0.00
  -10   -4   10     -1.10      0.00
   -9   -4   10      0.45      0.00
   -8   -4   10      0.60      0.00
   -7   -4   10      1.40      0.00
   -6   -4   10     -0.17      0.00
   -5   -4   10      1.89      0.00
   -4   -4   10      2.02      0.00
   -3   -4   10     -8.16      0.00
   -2   -4   10      5.37      0.00
   -1   -4   10      9.63      0.00
    0   -4   10     -0.47      0.00
    1   -4   10     -6.63      0.00
    2   -4   10      0.09      0.00
    3   -4   10      2.58      0.00
    4   -4   10     -1.40      0.00
    5   -4   10     -0.71      0.00
    6   -4   10     -2.75      0.00
    7   -4   10     -3.40      0.00
    8   -4   10     -2.08      0.00
    9   -4   10      1.86      0.00
  -11   -3   10      0.22      0.00
  -10   -3   10     -2.29      0.00
   -9   -3   10      0.35      0.00
   -8   -3   10      0.32      0.00
   -7   -3   10     -0.67      0.00
   -6   -3   10      2.85      0.00
   -5   -3   10      2.82      0.00
   -4   -3   10     -4.14      0.00
   -3   -3   10     -5.59      0.00
   -2   -3   10     12.36      0.00
   -1   -3   10      0.17      0.00
    0   -3   10     -5.44      0.00
    1   -3   10     -0.99      0.00
    2   -3   10      5.70      0.00
    3   -3   10      2.62      0.00
    4   -3   10      2.10      0.00
    5   -3   10      1.96      0.00
    6   -3   10     -1.64      0.00
    7   -3   10     -1.62      0.00
    8   -3   10      1.10      0.00
    9   -3   10      3.79      0.00
  -11   -2   10     -1.15      0.00
  -10   -2   10     -2.02      0.00
   -9   -2   10     -0.83      0.00
   -8   -2   10     -0.51      0.00
   -7   -2   10     -1.41      0.00
   -6   -2   10      4.54      0.00
   -5   -2   10     -4.31      0.00
   -4   -2   10     -5.63      0.00
   -3   -2   10      1.37      0.00
   -2   -2   10      8.28      0.00
   -1   -2   10    -12.19      0.00
    0   -2   10     -4.64      0.00
    1   -2   10     -1.30      0.00
    2   -2   10      2.53      0.00
    3   -2   10     -0.52      0.00
    4   -2   10      5.03      0.00
    5   -2   10      1.55      0.00
    6   -2   10     -0.80      0.00
    7   -2   10      0.17      0.00
    8   -2   10      4.50      0.00
    9   -2   10      1.70      0.00
   10   -2   10     -2.49      0.00
  -11   -1   10     -0.97      0.00
  -10   -1   10     -0.40      0.00
   -9   -1   10     -0.94      0.00
   -8   -1   10      0.92      0.00
   -7   -1   10      1.31      0.00
   -6   -1   10      3.72      0.00
   -5   -1   10    -10.51      0.00
   -4   -1   10      3.29      0.00
   -3   -1   10      5.14      0.00
   -2   -1   10      1.64      0.00
   -1   -1   10    -12.07      0.00
    0   -1   10      3.18      0.00
    1   -1   10     -4.63      0.00
    2   -1   10      0.12      0.00
    3   -1   10     -1.66      0.00
    4   -1   10      5.26      0.00
    5   -1   10     -4.83      0.00
    6   -1   10     -1.75      0.00
    7   -1   10      1.77      0.00
    8   -1   10      4.71      0.00
    9   -1   10     -3.25      0.00
   10   -1   10     -2.64      0.00
  -11    0   10      0.00      0.00
  -10    0   10     -0.22      0.00
   -9    0   10     -1.77      0.00
   -8    0   10      3.41      0.00
   -7    0   10      2.96      0.00
   -6    0   10     -2.49      0.00
   -5    0   10     -8.08      0.00
   -4    0   10     15.47      0.00
   -3    0   10     -1.60      0.00
   -2    0   10      1.35      0.00
   -1    0   10     -1.28      0.00
    0    0   10      9.27      0.00
    1    0   10     -8.12      0.00
    2    0   10      6.47      0.00
    3    0   10      1.00      0.00
    4    0   10      1.22      0.00
    5    0   10     -9.60      0.00
    6    0   10      3.39      0.00
    7    0   10      3.07      0.00
    8    0   10      1.10      0.00
    9    0   10     -4.31      0.00
   10    0   10      0.80      0.00
   11    0   10      0.23      0.00
  -11    1   10      1.42      0.00
  -10    1   10     -1.38      0.00
   -9    1   10      0.29      0.00
   -8    1   10      4.14      0.00
   -7    1   10     -3.97      0.00
   -6    1   10     -8.31      0.00
   -5    1   10      2.36      0.00
   -4    1   10     11.50      0.00
   -3    1   10    -14.38      0.00
   -2    1   10      9.11      0.00
   -1    1   10     -0.33      0.00
    0    1   10      1.29      0.00
    1    1   10     -7.47      0.00
    2    1   10     14.40      0.00
    3    1   10     -5.55      0.00
    4    1   10     -6.14      0.00
    5    1   10     -5.28      0.00
    6    1   10      8.46      0.00
    7    1   10     -0.44      0.00
    8    1   10      0.00      0.00
    9    1   10     -0.53      0.00
   10    1   10      1.82      0.00
   11    1   10      0.11      0.00
  -10    2   10     -0.39      0.00
   -9    2   10      5.10      0.00
   -8    2   10      0.14      0.00
   -7    2   10     -7.48      0.00
   -6    2   10     -0.92      0.00
   -5    2   10      7.46      0.00
   -4    2   10     -3.52      0.00
   -3    2   10     -8.99      0.00
   -2    2   10     13.33      0.00
   -1    2   10    -12.99      0.00
    0    2   10     -2.76      0.00
    1    2   10      1.35      0.00
    2    2   10      9.79      0.00
    3    2   10    -14.96      0.00
    4    2   10     -4.00      0.00
    5    2   10      0.93      0.00
    6    2   10      2.63      0.00
    7    2   10     -4.99      0.00
    8    2   10      0.52      0.00
    9    2   10     -1.11      0.00
   10    2   10     -0.27      0.00
   11    2   10      0.65      0.00
   12    2   10      1.30      0.00
  -10    3   10      0.26      0.00
   -9    3   10      3.00      0.00
   -8    3   10     -4.95      0.00
   -7    3   10     -0.42      0.00
   -6    3   10      5.77      0.00
   -5    3   10      1.99      0.00
   -4    3   10     -5.55      0.00
   -3    3   10      5.00      0.00
   -2    3   10      1.99      0.00
   -1    3   10    -13.05      0.00
    0    3   10      6.90      0.00
    1    3   10      6.32      0.00
    2    3   10      1.29      0.00
    3    3   10     -7.94      0.00
    4    3   10      5.92      0.00
    5    3   10      4.89      0.00
    6    3   10     -0.87      0.00
    7    3   10     -2.76      0.00
    8    3   10     -1.57      0.00
    9    3   10     -3.44      0.00
   10    3   10     -0.71      0.00
   11    3   10     -0.07      0.00
   12    3   10      0.03      0.00
  -10    4   10      0.05      0.00
   -9    4   10     -0.69      0.00
   -8    4   10     -4.04      0.00
   -7    4   10      4.14      0.00
   -6    4   10      1.66      0.00
   -5    4   10     -0.66      0.00
   -4    4   10      0.19      0.00
   -3    4   10      3.55      0.00
   -2    4   10     -7.49      0.00
   -1    4   10     -0.48      0.00
    0    4   10      6.96      0.00
    1    4   10      3.19      0.00
    2    4   10     -3.10      0.00
    3    4   10      0.74      0.00
    4    4   10      9.00      0.00
    5    4   10      8.01      0.00
    6    4   10      0.88      0.00
    7    4   10      1.77      0.00
    8    4   10     -1.44      0.00
    9    4   10      0.12      0.00
   10    4   10      0.28      0.00
   11    4   10      0.04      0.00
   12    4   10      0.22      0.00
   -9    5   10     -1.21      0.00
   -8    5   10     -1.00      0.00
   -7    5   10      2.47      0.00
   -6    5   10     -1.03      0.00
   -5    5   10      1.24      0.00
   -4    5   10      0.45      0.00
   -3    5   10     -1.81      0.00
   -2    5   10     -4.01      0.00
   -1    5   10      3.97      0.00
    0    5   10      1.79      0.00
    1    5   10     -0.25      0.00
    2    5   10     -8.66      0.00
    3    5   10      2.76      0.00
    4    5   10      4.51      0.00
    5    5   10      2.85      0.00
    6    5   10     -2.57      0.00
    7    5   10      2.92      0.00
    8    5   10     -1.09      0.00
    9    5   10      1.89      0.00
   10    5   10     -0.80      0.00
   11    5   10      1.43      0.00
   12    5   10      0.39      0.00
   -9    6   10     -1.58      0.00
   -8    6   10      0.19      0.00
   -7    6   10     -0.14      0.00
   -6    6   10     -0.34      0.00
   -5    6   10      1.37      0.00
   -4    6   10     -0.18      0.00
   -3    6   10     -2.21      0.00
   -2    6   10      1.15      0.00
   -1    6   10      2.51      0.00
    0    6   10      0.09      0.00
    1    6   10     -8.21      0.00
    2    6   10     -7.56      0.00
    3    6   10      5.63      0.00
    4    6   10     -4.35      0.00
    5    6   10     -4.10      0.00
    6    6   10     -4.64      0.00
    7    6   10      0.74      0.00
    8    6   10     -2.85      0.00
    9    6   10      1.77      0.00
   10    6   10     -0.59      0.00
   11    6   10      1.47      0.00
   12    6   10     -1.46      0.00
   -8    7   10      0.91      0.00
   -7    7   10     -1.26      0.00
   -6    7   10      0.42      0.00
   -5    7   10     -0.32      0.00
   -4    7   10     -1.83      0.00
   -3    7   10     -1.12      0.00
   -2    7   10      7.25      0.00
   -1    7   10      2.57      0.00
    0    7   10     -1.32      0.00
    1    7   10     -8.77      0.00
    2    7   10      4.41      0.00
    3    7   10      2.03      0.00
    4    7   10     -7.62      0.00
    5    7   10     -0.88      0.00
    6    7   10     -3.38      0.00
    7    7   10     -1.29      0.00
    8    7   10     -1.00      0.00
    9    7   10      3.23      0.00
   10    7   10      1.75      0.00
   11    7   10      1.58      0.00
   12    7   10     -0.66      0.00
   -7    8   10      0.38      0.00
   -6    8   10      1.25      0.00
   -5    8   10     -1.93      0.00
   -4    8   10     -3.19      0.00
   -3    8   10      1.35      0.00
   -2    8   10      6.43      0.00
   -1    8   10     -3.01      0.00
    0    8   10     -0.12      0.00
    1    8   10      0.73      0.00
    2    8   10     11.17      0.00
    3    8   10     -2.07      0.00
    4    8   10      1.77      0.00
    5    8   10      1.79      0.00
    6    8   10     -1.89      0.00
    7    8   10      1.00      0.00
    8    8   10      1.99      0.00
    9    8   10      2.04      0.00
   10    8   10      1.15      0.00
   11    8   10     -0.82      0.00
   12    8   10      0.30      0.00
   -7    9   10      1.29      0.00
   -6    9   10     -0.10      0.00
   -5    9   10     -0.40      0.00
   -4    9   10      0.61      0.00
   -3    9   10      3.48      0.00
   -2    9   10     -0.74      0.00
   -1    9   10     -7.75      0.00
    0    9   10     -0.15      0.00
    1    9   10      1.17      0.00
    2    9   10      6.18      0.00
    3    9   10     -1.54      0.00
    4    9   10      6.16      0.00
    5    9   10     -2.66      0.00
    6    9   10      0.80      0.00
    7    9   10      1.48      0.00
    8    9   10      1.09      0.00
    9    9   10     -0.43      0.00
   10    9   10     -1.67      0.00
   11    9   10     -2.89      0.00
   12    9   10      0.67      0.00
   -6   10   10     -1.38      0.00
   -5   10   10      1.23      0.00
   -4   10   10      1.76      0.00
   -3   10   10      1.92      0.00
   -2   10   10     -3.20      0.00
   -1   10   10     -4.54      0.00
    0   10   10      0.54      0.00
    1   10   10     -0.17      0.00
    2   10   10      1.43      0.00
    3   10   10     -0.63      0.00
    4   10   10      2.41      0.00
    5   10   10     -3.67      0.00
    6   10   10      2.07      0.00
    7   10   10     -0.06      0.00
    8   10   10     -0.87      0.00
    9   10   10     -2.77      0.00
   10   10   10     -2.66      0.00
   11   10   10     -0.36      0.00
   12   10   10      1.33      0.00
   -5   11   10      1.43      0.00
   -4   11   10      0.33      0.00
   -3   11   10     -0.82      0.00
   -2   11   10     -2.75      0.00
   -1   11   10     -0.21      0.00
    0   11   10      2.66      0.00
    1   11   10      0.26      0.00
    2   11   10     -0.02      0.00
    3   11   10      0.86      0.00
    4   11   10     -1.06      0.00
    5   11   10     -1.09      0.00
    6   11   10      2.75      0.00
    7   11   10      1.86      0.00
    8   11   10     -1.63      0.00
    9   11   10     -1.87      0.00
   10   11   10     -0.31      0.00
   11   11   10      0.89      0.00
   12   11   10     -0.10      0.00
   -4   12   10     -0.73      0.00
   -3   12   10     -1.81      0.00
   -2   12   10     -0.64      0.00
   -1   12   10      1.96      0.00
    0   12   10      1.01      0.00
    1   12   10     -0.82      0.00
    2   12   10      0.59      0.00
    3   12   10     -0.96      0.00
    4   12   10     -4.43      0.00
    5   12   10      0.22      0.00
    6   12   10      2.23      0.00
    7   12   10      1.76      0.00
    8   12   10     -0.20      0.00
    9   12   10      2.14      0.00
   10   12   10      1.54      0.00
   11   12   10      0.28      0.00
   -3   13   10     -0.38      0.00
   -2   13   10      0.84      0.00
   -1   13   10      0.46      0.00
    0   13   10     -0.74      0.00
    1   13   10      0.74      0.00
    2   13   10      0.07      0.00
    3   13   10     -4.03      0.00
    4   13   10     -2.58      0.00
    5   13   10     -0.52      0.00
    6   13   10     -0.33      0.00
    7   13   10     -0.46      0.00
    8   13   10      1.00      0.00
    9   13   10      1.37      0.00
   10   13   10      1.33      0.00
   11   13   10      0.68      0.00
   -1   14   10      0.47      0.00
    0   14   10      1.51      0.00
    1   14   10      1.17      0.00
    2   14   10     -1.04      0.00
    3   14   10     -1.36      0.00
    4   14   10      1.20      0.00
    5   14   10     -1.97      0.00
    6   14   10      0.31      0.00
    7   14   10     -1.88      0.00
    8   14   10     -1.04      0.00
    9   14   10     -1.30      0.00
   10   14   10      0.90      0.00
    1   15   10     -0.70      0.00
    2   15   10      0.64      0.00
    3   15   10      1.36      0.00
    4   15   10      1.76      0.00
    5   15   10      0.32      0.00
    6   15   10      2.09      0.00
    7   15   10     -2.40      0.00
    8   15   10     -1.01      0.00
   -6  -11   11     -1.38      0.00
   -5  -11   11     -1.26      0.00
   -4  -11   11      2.18      0.00
   -3  -11   11     -1.30      0.00
   -2  -11   11     -1.75      0.00
   -1  -11   11     -1.16      0.00
   -8  -10   11     -1.27      0.00
   -7  -10   11     -2.62      0.00
   -6  -10   11      0.21      0.00
   -5  -10   11     -0.48      0.00
   -4  -10   11      1.56      0.00
   -3  -10   11     -2.51      0.00
   -2  -10   11     -1.86      0.00
   -1  -10   11     -2.40      0.00
    0  -10   11      0.23      0.00
    1  -10   11     -0.51      0.00
    2  -10   11      1.41      0.00
   -9   -9   11     -0.92      0.00
   -8   -9   11     -1.27      0.00
   -7   -9   11      0.01      0.00
   -6   -9   11      1.63      0.00
   -5   -9   11      0.73      0.00
   -4   -9   11      2.96      0.00
   -3   -9   11     -0.52      0.00
   -2   -9   11      0.05      0.00
   -1   -9   11      0.22      0.00
    0   -9   11      3.43      0.00
    1   -9   11      0.65      0.00
    2   -9   11      0.63      0.00
    3   -9   11     -1.83      0.00
  -10   -8   11      0.40      0.00
   -9   -8   11     -1.43      0.00
   -8   -8   11      0.29      0.00
   -7   -8   11      1.33      0.00
   -6   -8   11      0.96      0.00
   -5   -8   11      2.85      0.00
   -4   -8   11      1.40      0.00
   -3   -8   11     -1.13      0.00
   -2   -8   11      0.90      0.00
   -1   -8   11      2.83      0.00
    0   -8   11      4.94      0.00
    1   -8   11      0.46      0.00
    2   -8   11     -1.02      0.00
    3   -8   11     -0.59      0.00
    4   -8   11      1.37      0.00
    5   -8   11      1.95      0.00
  -10   -7   11     -0.52      0.00
   -9   -7   11     -1.15      0.00
   -8   -7   11     -0.18      0.00
   -7   -7   11      0.92      0.00
   -6   -7   11      0.16      0.00
   -5   -7   11      1.88      0.00
   -4   -7   11     -2.62      0.00
   -3   -7   11     -1.42      0.00
   -2   -7   11      0.28      0.00
   -1   -7   11      2.52      0.00
    0   -7   11      2.07      0.00
    1   -7   11     -3.99      0.00
    2   -7   11     -3.62      0.00
    3   -7   11      0.69      0.00
    4   -7   11      1.23      0.00
    5   -7   11      1.72      0.00
    6   -7   11     -0.84      0.00
  -10   -6   11     -0.33      0.00
   -9   -6   11     -1.14      0.00
   -8   -6   11      0.52      0.00
   -7   -6   11      1.50      0.00
   -6   -6   11     -1.71      0.00
   -5   -6   11      0.17      0.00
   -4   -6   11     -3.95      0.00
   -3   -6   11     -2.01      0.00
   -2   -6   11      0.87      0.00
   -1   -6   11      3.25      0.00
    0   -6   11     -2.61      0.00
    1   -6   11     -7.06      0.00
    2   -6   11     -1.62      0.00
    3   -6   11      1.35      0.00
    4   -6   11     -0.61      0.00
    5   -6   11     -0.86      0.00
    6   -6   11     -3.24      0.00
    7   -6   11     -1.39      0.00
  -11   -5   11     -0.11      0.00
  -10   -5   11     -0.20      0.00
   -9   -5   11     -0.15      0.00
   -8   -5   11      2.24      0.00
   -7   -5   11      0.72      0.00
   -6   -5   11     -0.38      0.00
   -5   -5   11      2.14      0.00
   -4   -5   11     -4.90      0.00
   -3   -5   11      0.19      0.00
   -2   -5   11      5.19      0.00
   -1   -5   11      1.01      0.00
    0   -5   11     -6.31      0.00
    1   -5   11     -1.96      0.00
    2   -5   11      3.47      0.00
    3   -5   11      0.89      0.00
    4   -5   11     -0.11      0.00
    5   -5   11     -1.72      0.00
    6   -5   11     -3.59      0.00
    7   -5   11     -1.41      0.00
    8   -5   11      0.65      0.00
  -11   -4   11     -2.02      0.00
  -10   -4   11      0.33      0.00
   -9   -4   11     -0.05      0.00
   -8   -4   11      0.68      0.00
   -7   -4   11      0.44      0.00
   -6   -4   11      2.35      0.00
   -5   -4   11     -0.24      0.00
   -4   -4   11     -4.90      0.00
   -3   -4   11      7.42      0.00
   -2   -4   11      2.71      0.00
   -1   -4   11     -5.46      0.00
    0   -4   11     -3.83      0.00
    1   -4   11      4.56      0.00
    2   -4   11      3.60      0.00
    3   -4   11      1.99      0.00
    4   -4   11      3.26      0.00
    5   -4   11     -0.89      0.00
    6   -4   11     -1.00      0.00
    7   -4   11      1.61      0.00
    8   -4   11      3.19      0.00
  -11   -3   11     -2.26      0.00
  -10   -3   11      0.50      0.00
   -9   -3   11     -1.27      0.00
   -8   -3   11     -0.60      0.00
   -7   -3   11      1.80      0.00
   -6   -3   11     -1.03      0.00
   -5   -3   11     -4.72      0.00
   -4   -3   11     -0.15      0.00
   -3   -3   11      8.75      0.00
   -2   -3   11     -7.84      0.00
   -1   -3   11     -5.72      0.00
    0   -3   11     -0.89      0.00
    1   -3   11      2.01      0.00
    2   -3   11     -0.58      0.00
    3   -3   11      3.77      0.00
    4   -3   11      2.73      0.00
    5   -3   11     -1.20      0.00
    6   -3   11      1.37      0.00
    7   -3   11      4.24      0.00
    8   -3   11      2.98      0.00
    9   -3   11     -2.13      0.00
  -11   -2   11     -0.88      0.00
  -10   -2   11      0.44      0.00
   -9   -2   11     -0.47      0.00
   -8   -2   11      0.02      0.00
   -7   -2   11      1.85      0.00
   -6   -2   11     -6.43      0.00
   -5   -2   11     -2.07      0.00
   -4   -2   11      4.02      0.00
   -3   -2   11      3.36      0.00
   -2   -2   11    -10.39      0.00
   -1   -2   11      2.58      0.00
    0   -2   11     -1.22      0.00
    1   -2   11     -0.71      0.00
    2   -2   11     -1.98      0.00
    3   -2   11      3.09      0.00
    4   -2   11     -4.06      0.00
    5   -2   11     -3.64      0.00
    6   -2   11      1.25      0.00
    7   -2   11      4.25      0.00
    8   -2   11     -1.13      0.00
    9   -2   11     -3.34      0.00
   10   -2   11      0.03      0.00
  -11   -1   11      0.30      0.00
  -10   -1   11      0.62      0.00
   -9   -1   11      1.63      0.00
   -8   -1   11      1.11      0.00
   -7   -1   11      0.73      0.00
   -6   -1   11     -6.66      0.00
   -5   -1   11      6.92      0.00
   -4   -1   11      3.10      0.00
   -3   -1   11      0.40      0.00
   -2   -1   11     -3.87      0.00
   -1   -1   11      9.23      0.00
    0   -1   11     -2.43      0.00
    1   -1   11      4.46      0.00
    2   -1   11      1.70      0.00
    3   -1   11      2.06      0.00
    4   -1   11    -10.10      0.00
    5   -1   11     -1.61      0.00
    6   -1   11      2.10      0.00
    7   -1   11      1.68      0.00
    8   -1   11     -5.25      0.00
    9   -1   11     -0.66      0.00
   10   -1   11      1.03      0.00
  -11    0   11      0.08      0.00
  -10    0   11      0.19      0.00
   -9    0   11      2.46      0.00
   -8    0   11     -0.95      0.00
   -7    0   11     -3.30      0.00
   -6    0   11     -1.66      0.00
   -5    0   11     11.23      0.00
   -4    0   11     -5.36      0.00
   -3    0   11      2.67      0.00
   -2    0   11     -0.46      0.00
   -1    0   11      4.95      0.00
    0    0   11     -5.29      0.00
    1    0   11     12.07      0.00
    2    0   11      0.84      0.00
    3    0   11     -2.06      0.00
    4    0   11     -8.48      0.00
    5    0   11      7.12      0.00
    6    0   11      1.50      0.00
    7    0   11     -1.02      0.00
    8    0   11     -3.71      0.00
    9    0   11      2.73      0.00
   10    0   11      0.29      0.00
   11    0   11      1.13      0.00
  -10    1   11      2.10      0.00
   -9    1   11      1.78      0.00
   -8    1   11     -4.25      0.00
   -7    1   11     -2.18      0.00
   -6    1   11      4.96      0.00
   -5    1   11      2.02      0.00
   -4    1   11    -11.18      0.00
   -3    1   11      8.50      0.00
   -2    1   11     -8.90      0.00
   -1    1   11     -3.32      0.00
    0    1   11     -2.70      0.00
    1    1   11     12.49      0.00
    2    1   11    -11.00      0.00
    3    1   11     -3.91      0.00
    4    1   11     -0.31      0.00
    5    1   11      8.42      0.00
    6    1   11     -4.46      0.00
    7    1   11     -0.40      0.00
    8    1   11     -1.22      0.00
    9    1   11      1.33      0.00
   10    1   11     -0.55      0.00
   11    1   11      1.79      0.00
  -10    2   11      1.86      0.00
   -9    2   11     -2.80      0.00
   -8    2   11     -1.95      0.00
   -7    2   11      5.20      0.00
   -6    2   11      4.64      0.00
   -5    2   11     -5.79      0.00
   -4    2   11     -0.59      0.00
   -3    2   11      7.10      0.00
   -2    2   11    -16.91      0.00
   -1    2   11      4.12      0.00
    0    2   11      4.66      0.00
    1    2   11      3.24      0.00
    2    2   11    -14.90      0.00
    3    2   11      5.40      0.00
    4    2   11      5.04      0.00
    5    2   11      2.41      0.00
    6    2   11     -4.80      0.00
    7    2   11      1.04      0.00
    8    2   11     -3.70      0.00
    9    2   11     -0.84      0.00
   10    2   11      0.03      0.00
   11    2   11      0.66      0.00
  -10    3   11     -1.02      0.00
   -9    3   11     -5.06      0.00
   -8    3   11      2.65      0.00
   -7    3   11      3.34      0.00
   -6    3   11     -1.27      0.00
   -5    3   11     -1.51      0.00
   -4    3   11      6.93      0.00
   -3    3   11     -4.29      0.00
   -2    3   11     -7.70      0.00
   -1    3   11     13.79      0.00
    0    3   11      1.83      0.00
    1    3   11     -4.19      0.00
    2    3   11     -4.79      0.00
    3    3   11     10.69      0.00
    4    3   11      4.51      0.00
    5    3   11      1.66      0.00
    6    3   11      1.52      0.00
    7    3   11      0.99      0.00
    8    3   11     -2.15      0.00
    9    3   11      1.53      0.00
   10    3   11      0.48      0.00
   11    3   11     -0.21      0.00
   12    3   11     -1.59      0.00
   -9    4   11     -1.24      0.00
   -8    4   11      3.75      0.00
   -7    4   11     -2.00      0.00
   -6    4   11     -0.89      0.00
   -5    4   11      1.56      0.00
   -4    4   11      0.63      0.00
   -3    4   11     -6.98      0.00
   -2    4   11      5.48      0.00
   -1    4   11      7.06      0.00
    0    4   11     -3.27      0.00
    1    4   11     -5.63      0.00
    2    4   11      0.54      0.00
    3    4   11      4.53      0.00
    4    4   11      0.62      0.00
    5    4   11     -1.67      0.00
    6    4   11      1.77      0.00
    7    4   11     -0.15      0.00
    8    4   11      2.47      0.00
    9    4   11      2.54      0.00
   10    4   11      1.51      0.00
   11    4   11      0.80      0.00
   12    4   11     -0.75      0.00
   -9    5   11      0.46      0.00
   -8    5   11      1.68      0.00
   -7    5   11     -1.55      0.00
   -6    5   11      1.25      0.00
   -5    5   11     -1.24      0.00
   -4    5   11     -2.76      0.00
   -3    5   11     -0.80      0.00
   -2    5   11      6.30      0.00
   -1    5   11     -0.35      0.00
    0    5   11     -3.74      0.00
    1    5   11     -6.30      0.00
    2    5   11      3.40      0.00
    3    5   11     -1.14      0.00
    4    5   11     -4.53      0.00
    5    5   11     -6.95      0.00
    6    5   11     -1.11      0.00
    7    5   11     -3.49      0.00
    8    5   11      2.13      0.00
    9    5   11      0.59      0.00
   10    5   11      1.98      0.00
   11    5   11     -0.84      0.00
   12    5   11     -0.85      0.00
   -8    6   11      0.24      0.00
   -7    6   11      0.00      0.00
   -6    6   11     -0.25      0.00
   -5    6   11     -2.93      0.00
   -4    6   11     -1.60      0.00
   -3    6   11      3.28      0.00
   -2    6   11      3.55      0.00
   -1    6   11     -1.10      0.00
    0    6   11     -5.39      0.00
    1    6   11     -0.07      0.00
    2    6   11      6.27      0.00
    3    6   11     -5.30      0.00
    4    6   11     -2.71      0.00
    5    6   11     -3.90      0.00
    6    6   11     -1.60      0.00
    7    6   11     -4.31      0.00
    8    6   11      2.69      0.00
    9    6   11      0.12      0.00
   10    6   11      1.17      0.00
   11    6   11     -2.02      0.00
   12    6   11      0.00      0.00
   -8    7   11      0.10      0.00
   -7    7   11      1.47      0.00
   -6    7   11     -1.04      0.00
   -5    7   11     -2.58      0.00
   -4    7   11      0.01      0.00
   -3    7   11      4.44      0.00
   -2    7   11     -1.19      0.00
   -1    7   11     -1.95      0.00
    0    7   11     -1.30      0.00
    1    7   11     10.49      0.00
    2    7   11      2.72      0.00
    3    7   11     -1.30      0.00
    4    7   11      5.01      0.00
    5    7   11     -0.86      0.00
    6    7   11      0.57      0.00
    7    7   11      0.92      0.00
    8    7   11      3.61      0.00
    9    7   11     -1.30      0.00
   10    7   11     -0.99      0.00
   11    7   11     -1.12      0.00
   12    7   11      1.07      0.00
   -7    8   11      1.03      0.00
   -6    8   11     -0.90      0.00
   -5    8   11      0.03      0.00
   -4    8   11      3.58      0.00
   -3    8   11      1.36      0.00
   -2    8   11     -7.53      0.00
   -1    8   11     -2.01      0.00
    0    8   11      0.40      0.00
    1    8   11      7.11      0.00
    2    8   11     -2.82      0.00
    3    8   11      6.05      0.00
    4    8   11      2.10      0.00
    5    8   11     -0.87      0.00
    6    8   11      3.75      0.00
    7    8   11      3.30      0.00
    8    8   11      0.94      0.00
    9    8   11     -2.77      0.00
   10    8   11     -3.11      0.00
   11    8   11     -0.67      0.00
   12    8   11     -0.10      0.00
   -6    9   11     -0.33      0.00
   -5    9   11      1.10      0.00
   -4    9   11      3.28      0.00
   -3    9   11     -2.09      0.00
   -2    9   11     -4.49      0.00
   -1    9   11      1.46      0.00
    0    9   11     -1.87      0.00
    1    9   11      0.16      0.00
    2    9   11     -4.74      0.00
    3    9   11      2.51      0.00
    4    9   11     -6.59      0.00
    5    9   11      1.23      0.00
    6    9   11      1.92      0.00
    7    9   11      0.54      0.00
    8    9   11     -1.67      0.00
    9    9   11     -2.63      0.00
   10    9   11     -1.54      0.00
   11    9   11      1.71      0.00
   12    9   11     -0.57      0.00
   -6   10   11      0.46      0.00
   -5   10   11     -0.76      0.00
   -4   10   11     -0.18      0.00
   -3   10   11     -2.90      0.00
   -2   10   11      0.47      0.00
   -1   10   11      3.67      0.00
    0   10   11      0.32      0.00
    1   10   11      1.20      0.00
    2   10   11     -2.32      0.00
    3   10   11     -1.86      0.00
    4   10   11     -5.75      0.00
    5   10   11      3.32      0.00
    6   10   11      0.44      0.00
    7   10   11     -0.01      0.00
    8   10   11     -1.75      0.00
    9   10   11     -0.89      0.00
   10   10   11      1.42      0.00
   11   10   11      1.82      0.00
   12   10   11     -0.47      0.00
   -5   11   11     -0.88      0.00
   -4   11   11     -0.66      0.00
   -3   11   11     -1.20      0.00
   -2   11   11      1.80      0.00
   -1   11   11      2.31      0.00
    0   11   11      0.36      0.00
    1   11   11      1.64      0.00
    2   11   11     -0.64      0.00
    3   11   11     -3.93      0.00
    4   11   11     -1.87      0.00
    5   11   11      2.62      0.00
    6   11   11      0.93      0.00
    7   11   11     -0.38      0.00
    8   11   11      1.09      0.00
    9   11   11      1.82      0.00
   10   11   11      1.66      0.00
   11   11   11     -0.12      0.00
   -4   12   11     -0.28      0.00
   -3   12   11      0.80      0.00
   -2   12   11      1.26      0.00
   -1   12   11     -0.28      0.00
    0   12   11     -0.12      0.00
    1   12   11      1.47      0.00
    2   12   11     -2.34      0.00
    3   12   11     -4.01      0.00
    4   12   11      1.46      0.00
    5   12   11      0.49      0.00
    6   12   11     -1.26      0.00
    7   12   11     -1.47      0.00
    8   12   11      1.65      0.00
    9   12   11      0.73      0.00
   10   12   11      0.92      0.00
   11   12   11      0.56      0.00
   -2   13   11     -0.31      0.00
   -1   13   11     -0.32      0.00
    0   13   11      1.29      0.00
    1   13   11     -0.24      0.00
    2   13   11     -2.65      0.00
    3   13   11      1.24      0.00
    4   13   11      3.20      0.00
    5   13   11      0.27      0.00
    6   13   11     -1.63      0.00
    7   13   11     -1.36      0.00
    8   13   11     -2.29      0.00
    9   13   11     -1.23      0.00
   10   13   11     -0.17      0.00
   -1   14   11      0.71      0.00
    0   14   11      0.18      0.00
    1   14   11     -1.24      0.00
    2   14   11      0.48      0.00
    3   14   11      3.50      0.00
    4   14   11      1.87      0.00
    5   14   11      2.65      0.00
    6   14   11     -0.88      0.00
    7   14   11     -0.43      0.00
    8   14   11     -2.50      0.00
    9   14   11     -0.25      0.00
    1   15   11     -0.31      0.00
    2   15   11      0.30      0.00
    3   15   11      1.05      0.00
    4   15   11      0.92      0.00
    5   15   11      1.79      0.00
    6   15   11     -1.31      0.00
    7   15   11      1.86      0.00
    8   15   11      0.10      0.00
   -4  -11   12     -1.81      0.00
   -3  -11   12     -1.11      0.00
   -7  -10   12      1.38      0.00
   -6  -10   12      0.42      0.00
   -5  -10   12      1.87      0.00
   -4  -10   12     -1.27      0.00
   -3  -10   12      0.65      0.00
   -2  -10   12     -0.05      0.00
   -1  -10   12      1.92      0.00
    0  -10   12      0.28      0.00
    1  -10   12      0.33      0.00
   -8   -9   12      0.85      0.00
   -7   -9   12      1.57      0.00
   -6   -9   12      0.64      0.00
   -5   -9   12      1.98      0.00
   -4   -9   12     -1.78      0.00
   -3   -9   12      0.52      0.00
   -2   -9   12      1.67      0.00
   -1   -9   12      4.35      0.00
    0   -9   12      0.59      0.00
    1   -9   12      0.08      0.00
    2   -9   12     -1.65      0.00
    3   -9   12      0.80      0.00
   -9   -8   12      0.49      0.00
   -8   -8   12      0.27      0.00
   -7   -8   12      0.46      0.00
   -6   -8   12      1.52      0.00
   -5   -8   12     -1.22      0.00
   -4   -8   12     -3.38      0.00
   -3   -8   12     -0.24      0.00
   -2   -8   12      1.27      0.00
   -1   -8   12      1.72      0.00
    0   -8   12     -2.59      0.00
    1   -8   12     -1.69      0.00
    2   -8   12     -0.38      0.00
    3   -8   12      1.51      0.00
    4   -8   12      1.07      0.00
  -10   -7   12     -0.10      0.00
   -9   -7   12      0.26      0.00
   -8   -7   12      0.00      0.00
   -7   -7   12      0.24      0.00
   -6   -7   12      0.30      0.00
   -5   -7   12     -4.40      0.00
   -4   -7   12     -1.71      0.00
   -3   -7   12      0.08      0.00
   -2   -7   12      1.12      0.00
   -1   -7   12     -1.10      0.00
    0   -7   12     -5.19      0.00
    1   -7   12     -2.11      0.00
    2   -7   12      1.06      0.00
    3   -7   12      0.66      0.00
    4   -7   12      0.07      0.00
    5   -7   12     -2.23      0.00
  -10   -6   12      0.18      0.00
   -9   -6   12      1.04      0.00
   -8   -6   12      0.65      0.00
   -7   -6   12     -0.07      0.00
   -6   -6   12      0.47      0.00
   -5   -6   12     -3.49      0.00
   -4   -6   12      0.45      0.00
   -3   -6   12      1.85      0.00
   -2   -6   12      1.91      0.00
   -1   -6   12     -3.21      0.00
    0   -6   12     -3.35      0.00
    1   -6   12      2.06      0.00
    2   -6   12      2.44      0.00
    3   -6   12      0.16      0.00
    4   -6   12     -0.70      0.00
    5   -6   12     -2.67      0.00
    6   -6   12     -0.59      0.00
  -10   -5   12      0.27      0.00
   -9   -5   12      0.87      0.00
   -8   -5   12     -0.73      0.00
   -7   -5   12      0.60      0.00
   -6   -5   12      1.05      0.00
   -5   -5   12     -3.06      0.00
   -4   -5   12      4.05      0.00
   -3   -5   12      4.15      0.00
   -2   -5   12     -1.24      0.00
   -1   -5   12     -4.03      0.00
    0   -5   12      2.10      0.00
    1   -5   12      3.84      0.00
    2   -5   12      1.73      0.00
    3   -5   12      1.87      0.00
    4   -5   12     -0.14      0.00
    5   -5   12     -0.76      0.00
    6   -5   12      1.75      0.00
    7   -5   12      2.14      0.00
  -10   -4   12     -0.54      0.00
   -9   -4   12     -0.21      0.00
   -8   -4   12     -0.53      0.00
   -7   -4   12      0.50      0.00
   -6   -4   12     -2.57      0.00
   -5   -4   12     -2.05      0.00
   -4   -4   12      7.20      0.00
   -3   -4   12     -1.34      0.00
   -2   -4   12     -4.40      0.00
   -1   -4   12     -0.44      0.00
    0   -4   12      3.23      0.00
    1   -4   12     -0.55      0.00
    2   -4   12      1.54      0.00
    3   -4   12      2.07      0.00
    4   -4   12     -1.86      0.00
    5   -4   12      0.76      0.00
    6   -4   12      3.57      0.00
    7   -4   12      2.86      0.00
    8   -4   12     -0.75      0.00
  -11   -3   12      1.27      0.00
  -10   -3   12     -1.19      0.00
   -9   -3   12      0.51      0.00
   -8   -3   12      0.63      0.00
   -7   -3   12     -2.63      0.00
   -6   -3   12     -3.11      0.00
   -5   -3   12      2.19      0.00
   -4   -3   12      4.13      0.00
   -3   -3   12     -7.88      0.00
   -2   -3   12      1.15      0.00
   -1   -3   12      1.50      0.00
    0   -3   12      0.01      0.00
    1   -3   12     -2.09      0.00
    2   -3   12      2.30      0.00
    3   -3   12     -3.24      0.00
    4   -3   12     -5.06      0.00
    5   -3   12      0.57      0.00
    6   -3   12      2.74      0.00
    7   -3   12     -0.08      0.00
    8   -3   12     -2.82      0.00
    9   -3   12      0.46      0.00
  -11   -2   12      1.42      0.00
  -10   -2   12      0.30      0.00
   -9   -2   12      1.71      0.00
   -8   -2   12      0.74      0.00
   -7   -2   12     -4.15      0.00
   -6   -2   12      2.67      0.00
   -5   -2   12      3.68      0.00
   -4   -2   12     -0.37      0.00
   -3   -2   12     -5.52      0.00
   -2   -2   12      7.49      0.00
   -1   -2   12     -1.34      0.00
    0   -2   12      2.24      0.00
    1   -2   12      2.43      0.00
    2   -2   12      2.64      0.00
    3   -2   12     -8.03      0.00
    4   -2   12     -3.55      0.00
    5   -2   12      1.32      0.00
    6   -2   12      1.19      0.00
    7   -2   12     -4.18      0.00
    8   -2   12     -2.54      0.00
    9   -2   12      1.10      0.00
  -10   -1   12      1.09      0.00
   -9   -1   12      1.00      0.00
   -8   -1   12      0.12      0.00
   -7   -1   12     -2.34      0.00
   -6   -1   12      8.12      0.00
   -5   -1   12     -0.11      0.00
   -4   -1   12     -0.55      0.00
   -3   -1   12     -1.35      0.00
   -2   -1   12      5.56      0.00
   -1   -1   12     -5.32      0.00
    0   -1   12      7.31      0.00
    1   -1   12      3.41      0.00
    2   -1   12      0.48      0.00
    3   -1   12     -7.47      0.00
    4   -1   12      5.15      0.00
    5   -1   12      3.55      0.00
    6   -1   12     -0.30      0.00
    7   -1   12     -5.03      0.00
    8   -1   12      1.27      0.00
    9   -1   12      0.80      0.00
   10   -1   12      0.43      0.00
  -10    0   12      0.91      0.00
   -9    0   12     -1.41      0.00
   -8    0   12     -1.31      0.00
   -7    0   12      0.52      0.00
   -6    0   12      5.21      0.00
   -5    0   12     -7.77      0.00
   -4    0   12      2.06      0.00
   -3    0   12     -3.78      0.00
   -2    0   12     -0.85      0.00
   -1    0   12     -5.67      0.00
    0    0   12      9.41      0.00
    1    0   12     -5.67      0.00
    2    0   12     -4.43      0.00
    3    0   12     -2.76      0.00
    4    0   12     11.31      0.00
    5    0   12     -0.48      0.00
    6    0   12     -1.08      0.00
    7    0   12     -1.82      0.00
    8    0   12      3.27      0.00
    9    0   12     -0.95      0.00
   10    0   12      1.50      0.00
  -10    1   12     -0.33      0.00
   -9    1   12     -2.13      0.00
   -8    1   12      1.53      0.00
   -7    1   12      3.11      0.00
   -6    1   12     -2.38      0.00
   -5    1   12     -5.93      0.00
   -4    1   12      5.83      0.00
   -3    1   12    -11.04      0.00
   -2    1   12      0.82      0.00
   -1    1   12      1.27      0.00
    0    1   12      6.02      0.00
    1    1   12    -15.55      0.00
    2    1   12     -0.41      0.00
    3    1   12      2.76      0.00
    4    1   12      6.22      0.00
    5    1   12     -6.39      0.00
    6    1   12      1.37      0.00
    7    1   12     -1.53      0.00
    8    1   12      0.79      0.00
    9    1   12     -1.07      0.00
   10    1   12      1.75      0.00
   11    1   12     -1.76      0.00
  -10    2   12     -2.86      0.00
   -9    2   12     -0.10      0.00
   -8    2   12      2.42      0.00
   -7    2   12     -0.65      0.00
   -6    2   12     -3.48      0.00
   -5    2   12      5.20      0.00
   -4    2   12      2.11      0.00
   -3    2   12    -10.04      0.00
   -2    2   12     13.44      0.00
   -1    2   12      3.52      0.00
    0    2   12     -1.72      0.00
    1    2   12    -10.78      0.00
    2    2   12     10.40      0.00
    3    2   12      2.20      0.00
    4    2   12      0.61      0.00
    5    2   12     -2.40      0.00
    6    2   12      3.39      0.00
    7    2   12     -3.14      0.00
    8    2   12      1.75      0.00
    9    2   12      0.71      0.00
   10    2   12      0.30      0.00
   11    2   12     -2.56      0.00
  -10    3   12     -0.67      0.00
   -9    3   12      3.19      0.00
   -8    3   12     -1.46      0.00
   -7    3   12     -3.23      0.00
   -6    3   12      0.34      0.00
   -5    3   12      3.89      0.00
   -4    3   12     -6.71      0.00
   -3    3   12      1.99      0.00
   -2    3   12     14.55      0.00
   -1    3   12     -5.05      0.00
    0    3   12     -4.15      0.00
    1    3   12     -0.51      0.00
    2    3   12      8.56      0.00
    3    3   12     -2.66      0.00
    4    3   12     -0.52      0.00
    5    3   12      0.52      0.00
    6    3   12      0.19      0.00
    7    3   12     -0.21      0.00
    8    3   12      5.00      0.00
    9    3   12      1.42      0.00
   10    3   12      0.37      0.00
   11    3   12     -1.14      0.00
   -9    4   12      2.78      0.00
   -8    4   12     -1.97      0.00
   -7    4   12      1.15      0.00
   -6    4   12      0.33      0.00
   -5    4   12     -3.29      0.00
   -4    4   12     -4.71      0.00
   -3    4   12      8.23      0.00
   -2    4   12      1.68      0.00
   -1    4   12     -7.06      0.00
    0    4   12     -1.81      0.00
    1    4   12      2.49      0.00
    2    4   12      1.33      0.00
    3    4   12     -4.00      0.00
    4    4   12     -4.10      0.00
    5    4   12     -2.99      0.00
    6    4   12     -4.18      0.00
    7    4   12      1.07      0.00
    8    4   12      1.96      0.00
    9    4   12      0.56      0.00
   10    4   12     -0.09      0.00
   11    4   12     -0.96      0.00
   12    4   12      1.40      0.00
   -9    5   12      0.26      0.00
   -8    5   12     -0.88      0.00
   -7    5   12      1.21      0.00
   -6    5   12     -2.65      0.00
   -5    5   12     -2.15      0.00
   -4    5   12      1.68      0.00
   -3    5   12      4.45      0.00
   -2    5   12     -4.06      0.00
   -1    5   12     -3.48      0.00
    0    5   12     -1.10      0.00
    1    5   12      4.86      0.00
    2    5   12     -1.14      0.00
    3    5   12     -2.13      0.00
    4    5   12     -3.41      0.00
    5    5   12     -1.42      0.00
    6    5   12     -4.42      0.00
    7    5   12      1.11      0.00
    8    5   12     -1.39      0.00
    9    5   12     -0.68      0.00
   10    5   12     -2.80      0.00
   11    5   12     -0.89      0.00
   12    5   12      0.76      0.00
   -8    6   12      0.05      0.00
   -7    6   12     -0.92      0.00
   -6    6   12     -2.21      0.00
   -5    6   12      1.07      0.00
   -4    6   12      3.31      0.00
   -3    6   12      0.38      0.00
   -2    6   12     -3.40      0.00
   -1    6   12     -2.14      0.00
    0    6   12      4.37      0.00
    1    6   12      5.39      0.00
    2    6   12     -2.43      0.00
    3    6   12      3.20      0.00
    4    6   12      0.93      0.00
    5    6   12      1.85      0.00
    6    6   12      0.49      0.00
    7    6   12      5.01      0.00
    8    6   12     -1.86      0.00
    9    6   12     -1.61      0.00
   10    6   12     -2.79      0.00
   11    6   12      1.11      0.00
   12    6   12      0.64      0.00
   -8    7   12      0.47      0.00
   -7    7   12     -1.25      0.00
   -6    7   12      0.15      0.00
   -5    7   12      3.51      0.00
   -4    7   12      2.94      0.00
   -3    7   12     -3.68      0.00
   -2    7   12     -3.10      0.00
   -1    7   12     -0.30      0.00
    0    7   12      6.11      0.00
    1    7   12     -2.00      0.00
    2    7   12      0.95      0.00
    3    7   12      4.78      0.00
    4    7   12     -1.26      0.00
    5    7   12      3.67      0.00
    6    7   12      5.19      0.00
    7    7   12      4.68      0.00
    8    7   12     -3.02      0.00
    9    7   12     -1.16      0.00
   10    7   12     -1.05      0.00
   11    7   12      0.94      0.00
   12    7   12      0.23      0.00
   -7    8   12     -1.63      0.00
   -6    8   12      0.87      0.00
   -5    8   12      3.62      0.00
   -4    8   12     -0.19      0.00
   -3    8   12     -3.93      0.00
   -2    8   12      1.69      0.00
   -1    8   12     -0.05      0.00
    0    8   12     -0.21      0.00
    1    8   12     -7.41      0.00
    2    8   12      1.69      0.00
    3    8   12     -5.83      0.00
    4    8   12     -3.34      0.00
    5    8   12      3.91      0.00
    6    8   12      2.09      0.00
    7    8   12     -0.74      0.00
    8    8   12     -2.87      0.00
    9    8   12      0.40      0.00
   10    8   12      1.31      0.00
   11    8   12      0.36      0.00
   12    8   12     -0.17      0.00
   -6    9   12      0.08      0.00
   -5    9   12      0.63      0.00
   -4    9   12     -3.41      0.00
   -3    9   12     -0.17      0.00
   -2    9   12      4.56      0.00
   -1    9   12      0.07      0.00
    0    9   12      1.19      0.00
    1    9   12     -2.90      0.00
    2    9   12     -0.42      0.00
    3    9   12     -9.61      0.00
    4    9   12      2.11      0.00
    5    9   12      0.73      0.00
    6    9   12     -1.50      0.00
    7    9   12     -2.88      0.00
    8    9   12     -1.64      0.00
    9    9   12      1.65      0.00
   10    9   12      2.89      0.00
   11    9   12      0.12      0.00
   12    9   12      0.65      0.00
   -5   10   12      0.26      0.00
   -4   10   12     -2.29      0.00
   -3   10   12      1.27      0.00
   -2   10   12      1.39      0.00
   -1   10   12     -0.23      0.00
    0   10   12      3.28      0.00
    1   10   12      0.38      0.00
    2   10   12     -0.11      0.00
    3   10   12     -2.30      0.00
    4   10   12      5.87      0.00
    5   10   12     -0.75      0.00
    6   10   12     -0.76      0.00
    7   10   12     -1.63      0.00
    8   10   12      0.57      0.00
    9   10   12      2.31      0.00
   10   10   12      0.88      0.00
   11   10   12     -0.98      0.00
   -4   11   12     -0.09      0.00
   -3   11   12      1.37      0.00
   -2   11   12     -0.51      0.00
   -1   11   12     -0.91      0.00
    0   11   12      1.27      0.00
    1   11   12     -1.49      0.00
    2   11   12     -1.47      0.00
    3   11   12      2.20      0.00
    4   11   12      3.80      0.00
    5   11   12     -1.28      0.00
    6   11   12     -2.18      0.00
    7   11   12     -0.39      0.00
    8   11   12      0.78      0.00
    9   11   12      1.16      0.00
   10   11   12     -0.20      0.00
   11   11   12      0.10      0.00
   -3   12   12     -0.01      0.00
   -2   12   12     -0.89      0.00
   -1   12   12      0.23      0.00
    0   12   12      0.30      0.00
    1   12   12     -3.22      0.00
    2   12   12      0.00      0.00
    3   12   12      5.09      0.00
    4   12   12      1.48      0.00
    5   12   12     -0.95      0.00
    6   12   12     -1.72      0.00
    7   12   12     -0.49      0.00
    8   12   12     -1.92      0.00
    9   12   12     -0.31      0.00
   10   12   12     -0.18      0.00
   11   12   12      0.24      0.00
   -2   13   12      0.21      0.00
   -1   13   12      0.88      0.00
    0   13   12     -1.47      0.00
    1   13   12     -1.86      0.00
    2   13   12      3.40      0.00
    3   13   12      3.40      0.00
    4   13   12      0.11      0.00
    5   13   12      0.60      0.00
    6   13   12      0.77      0.00
    7   13   12     -0.98      0.00
    8   13   12     -0.33      0.00
    9   13   12     -0.72      0.00
   10   13   12     -1.31      0.00
   -1   14   12     -0.43      0.00
    0   14   12     -1.43      0.00
    1   14   12      0.58      0.00
    2   14   12      1.79      0.00
    3   14   12     -0.85      0.00
    4   14   12     -0.54      0.00
    5   14   12     -1.07      0.00
    6   14   12      1.35      0.00
    7   14   12      0.34      0.00
    8   14   12      3.05      0.00
    9   14   12     -0.36      0.00
    2   15   12     -0.45      0.00
    3   15   12     -1.65      0.00
    4   15   12     -2.02      0.00
    5   15   12     -2.63      0.00
    6   15   12      1.38      0.00
    7   15   12     -0.17      0.00
   -6  -10   13      0.97      0.00
   -5  -10   13     -1.23      0.00
   -4  -10   13      0.85      0.00
   -3  -10   13      0.36      0.00
   -2  -10   13      2.44      0.00
   -1  -10   13      0.62      0.00
   -7   -9   13      0.16      0.00
   -6   -9   13      0.61      0.00
   -5   -9   13     -2.59      0.00
   -4   -9   13      0.10      0.00
   -3   -9   13      0.45      0.00
   -2   -9   13      1.79      0.00
   -1   -9   13     -1.69      0.00
    0   -9   13     -0.41      0.00
    1   -9   13     -0.46      0.00
    2   -9   13      1.64      0.00
   -8   -8   13      0.23      0.00
   -7   -8   13      0.28      0.00
   -6   -8   13     -2.13      0.00
   -5   -8   13     -2.20      0.00
   -4   -8   13      1.26      0.00
   -3   -8   13      0.93      0.00
   -2   -8   13     -0.67      0.00
   -1   -8   13     -4.15      0.00
    0   -8   13     -1.57      0.00
    1   -8   13     -0.52      0.00
    2   -8   13      1.17      0.00
    3   -8   13      0.65      0.00
   -9   -7   13      0.19      0.00
   -8   -7   13      0.75      0.00
   -7   -7   13     -0.44      0.00
   -6   -7   13     -3.07      0.00
   -5   -7   13      1.07      0.00
   -4   -7   13      1.92      0.00
   -3   -7   13      1.74      0.00
   -2   -7   13     -1.17      0.00
   -1   -7   13     -2.95      0.00
    0   -7   13      0.39      0.00
    1   -7   13      1.07      0.00
    2   -7   13      0.39      0.00
    3   -7   13     -0.32      0.00
    4   -7   13     -2.10      0.00
    5   -7   13     -0.44      0.00
   -9   -6   13      0.05      0.00
   -8   -6   13      0.35      0.00
   -7   -6   13     -0.06      0.00
   -6   -6   13     -1.52      0.00
   -5   -6   13      3.29      0.00
   -4   -6   13      2.48      0.00
   -3   -6   13      1.46      0.00
   -2   -6   13     -2.46      0.00
   -1   -6   13     -0.23      0.00
    0   -6   13      3.10      0.00
    1   -6   13      1.88      0.00
    2   -6   13      0.56      0.00
    3   -6   13     -0.16      0.00
    4   -6   13     -1.38      0.00
    5   -6   13      0.90      0.00
    6   -6   13      1.33      0.00
  -10   -5   13     -0.22      0.00
   -9   -5   13     -0.91      0.00
   -8   -5   13      0.48      0.00
   -7   -5   13     -0.99      0.00
   -6   -5   13     -2.00      0.00
   -5   -5   13      4.47      0.00
   -4   -5   13      1.29      0.00
   -3   -5   13     -2.05      0.00
   -2   -5   13     -1.92      0.00
   -1   -5   13      2.53      0.00
    0   -5   13      1.10      0.00
    1   -5   13      0.58      0.00
    2   -5   13      0.96      0.00
    3   -5   13     -1.06      0.00
    4   -5   13     -0.41      0.00
    5   -5   13      2.19      0.00
    6   -5   13      2.35      0.00
    7   -5   13      0.45      0.00
  -10   -4   13      0.17      0.00
   -9   -4   13     -0.01      0.00
   -8   -4   13      0.26      0.00
   -7   -4   13     -2.66      0.00
   -6   -4   13      0.04      0.00
   -5   -4   13      4.21      0.00
   -4   -4   13     -4.62      0.00
   -3   -4   13     -2.35      0.00
   -2   -4   13      1.02      0.00
   -1   -4   13      0.99      0.00
    0   -4   13     -1.99      0.00
    1   -4   13      1.82      0.00
    2   -4   13     -1.25      0.00
    3   -4   13     -4.28      0.00
    4   -4   13     -0.21      0.00
    5   -4   13      1.73      0.00
    6   -4   13      0.44      0.00
    7   -4   13     -1.87      0.00
  -10   -3   13      1.68      0.00
   -9   -3   13      0.16      0.00
   -8   -3   13     -1.60      0.00
   -7   -3   13     -0.27      0.00
   -6   -3   13      3.17      0.00
   -5   -3   13      0.54      0.00
   -4   -3   13     -6.11      0.00
   -3   -3   13      3.63      0.00
   -2   -3   13     -0.72      0.00
   -1   -3   13     -0.48      0.00
    0   -3   13      1.16      0.00
    1   -3   13      3.68      0.00
    2   -3   13     -5.29      0.00
    3   -3   13     -3.56      0.00
    4   -3   13      1.43      0.00
    5   -3   13      0.91      0.00
    6   -3   13     -2.53      0.00
    7   -3   13     -3.10      0.00
    8   -3   13      0.01      0.00
  -10   -2   13      1.75      0.00
   -9   -2   13     -0.41      0.00
   -8   -2   13     -1.40      0.00
   -7   -2   13      4.42      0.00
   -6   -2   13      1.35      0.00
   -5   -2   13     -1.60      0.00
   -4   -2   13     -1.66      0.00
   -3   -2   13      5.21      0.00
   -2   -2   13     -5.52      0.00
   -1   -2   13      3.56      0.00
    0   -2   13      3.55      0.00
    1   -2   13      1.13      0.00
    2   -2   13     -6.16      0.00
    3   -2   13      3.37      0.00
    4   -2   13      4.18      0.00
    5   -2   13      0.91      0.00
    6   -2   13     -3.80      0.00
    7   -2   13     -0.63      0.00
    8   -2   13      0.81      0.00
    9   -2   13     -0.42      0.00
  -10   -1   13     -0.38      0.00
   -9   -1   13     -1.52      0.00
   -8   -1   13     -0.98      0.00
   -7   -1   13      4.97      0.00
   -6   -1   13     -4.15      0.00
   -5   -1   13     -0.02      0.00
   -4   -1   13     -0.30      0.00
   -3   -1   13      1.30      0.00
   -2   -1   13     -5.86      0.00
   -1   -1   13      7.55      0.00
    0   -1   13     -2.20      0.00
    1   -1   13     -4.53      0.00
    2   -1   13     -4.38      0.00
    3   -1   13      9.25      0.00
    4   -1   13      2.24      0.00
    5   -1   13     -0.28      0.00
    6   -1   13     -2.26      0.00
    7   -1   13      3.36      0.00
    8   -1   13      0.34      0.00
    9   -1   13      0.94      0.00
  -10    0   13     -1.41      0.00
   -9    0   13     -1.28      0.00
   -8    0   13     -0.18      0.00
   -7    0   13      0.86      0.00
   -6    0   13     -7.11      0.00
   -5    0   13      3.27      0.00
   -4    0   13     -4.36      0.00
   -3    0   13     -0.36      0.00
   -2    0   13     -1.16      0.00
   -1    0   13      7.57      0.00
    0    0   13    -10.84      0.00
    1    0   13     -4.70      0.00
    2    0   13     -0.23      0.00
    3    0   13      7.44      0.00
    4    0   13     -5.74      0.00
    5    0   13     -0.30      0.00
    6    0   13     -0.37      0.00
    7    0   13      2.94      0.00
    8    0   13     -1.35      0.00
    9    0   13      2.29      0.00
   10    0   13     -1.04      0.00
  -10    1   13     -1.11      0.00
   -9    1   13      0.68      0.00
   -8    1   13      0.13      0.00
   -7    1   13     -2.06      0.00
   -6    1   13      0.01      0.00
   -5    1   13      5.50      0.00
   -4    1   13     -6.99      0.00
   -3    1   13      7.07      0.00
   -2    1   13      3.41      0.00
   -1    1   13      2.46      0.00
    0    1   13    -12.33      0.00
    1    1   13      6.15      0.00
    2    1   13      2.91      0.00
    3    1   13      1.53      0.00
    4    1   13     -7.06      0.00
    5    1   13      3.23      0.00
    6    1   13     -2.24      0.00
    7    1   13      1.09      0.00
    8    1   13     -0.40      0.00
    9    1   13      1.81      0.00
   10    1   13     -3.11      0.00
  -10    2   13      0.75      0.00
   -9    2   13      0.08      0.00
   -8    2   13     -2.11      0.00
   -7    2   13     -0.94      0.00
   -6    2   13      4.73      0.00
   -5    2   13     -2.04      0.00
   -4    2   13     -2.46      0.00
   -3    2   13     14.33      0.00
   -2    2   13     -2.21      0.00
   -1    2   13     -2.88      0.00
    0    2   13     -3.96      0.00
    1    2   13     12.46      0.00
    2    2   13     -1.65      0.00
    3    2   13      0.31      0.00
    4    2   13     -1.04      0.00
    5    2   13      2.35      0.00
    6    2   13     -3.57      0.00
    7    2   13      4.00      0.00
    8    2   13      1.09      0.00
    9    2   13      0.40      0.00
   10    2   13     -2.16      0.00
   11    2   13      1.48      0.00
   -9    3   13     -0.91      0.00
   -8    3   13      0.59      0.00
   -7    3   13      1.97      0.00
   -6    3   13     -0.37      0.00
   -5    3   13     -7.41      0.00
   -4    3   13      5.20      0.00
   -3    3   13      5.39      0.00
   -2    3   13    -10.77      0.00
   -1    3   13     -0.71      0.00
    0    3   13      1.92      0.00
    1    3   13      5.24      0.00
    2    3   13     -5.37      0.00
    3    3   13      0.93      0.00
    4    3   13     -1.91      0.00
    5    3   13     -3.34      0.00
    6    3   13     -1.11      0.00
    7    3   13      3.85      0.00
    8    3   13     -1.10      0.00
    9    3   13     -0.34      0.00
   10    3   13     -0.74      0.00
   11    3   13      2.09      0.00
   -9    4   13     -1.38      0.00
   -8    4   13      2.23      0.00
   -7    4   13     -0.08      0.00
   -6    4   13     -2.04      0.00
   -5    4   13      0.00      0.00
   -4    4   13      6.49      0.00
   -3    4   13     -5.69      0.00
   -2    4   13     -6.88      0.00
   -1    4   13      1.64      0.00
    0    4   13      1.47      0.00
    1    4   13      0.24      0.00
    2    4   13     -2.06      0.00
    3    4   13     -0.37      0.00
    4    4   13     -2.78      0.00
    5    4   13     -3.16      0.00
    6    4   13      1.52      0.00
    7    4   13     -0.64      0.00
    8    4   13     -2.92      0.00
    9    4   13     -2.27      0.00
   10    4   13     -1.48      0.00
   11    4   13      1.36      0.00
   -8    5   13     -0.58      0.00
   -7    5   13     -2.58      0.00
   -6    5   13      1.17      0.00
   -5    5   13      4.10      0.00
   -4    5   13      1.96      0.00
   -3    5   13     -4.93      0.00
   -2    5   13     -0.73      0.00
   -1    5   13      1.03      0.00
    0    5   13      2.69      0.00
    1    5   13     -1.05      0.00
    2    5   13      0.74      0.00
    3    5   13      0.36      0.00
    4    5   13      1.60      0.00
    6    5   13      5.40      0.00
    7    5   13     -0.66      0.00
    8    5   13     -1.60      0.00
    9    5   13     -2.94      0.00
   10    5   13      0.23      0.00
   11    5   13      1.13      0.00
   -8    6   13     -0.78      0.00
   -7    6   13      0.10      0.00
   -6    6   13      3.32      0.00
   -5    6   13      2.33      0.00
   -4    6   13     -1.41      0.00
   -3    6   13     -2.38      0.00
   -2    6   13      0.29      0.00
   -1    6   13      3.23      0.00
    0    6   13      0.91      0.00
    1    6   13     -2.35      0.00
    2    6   13      2.73      0.00
    3    6   13     -0.77      0.00
    4    6   13      2.33      0.00
    5    6   13      4.56      0.00
    6    6   13      6.82      0.00
    7    6   13     -1.23      0.00
    8    6   13      0.29      0.00
    9    6   13     -0.28      0.00
   10    6   13      2.51      0.00
   11    6   13      0.45      0.00
   -7    7   13      1.39      0.00
   -6    7   13      2.81      0.00
   -5    7   13     -0.11      0.00
   -4    7   13     -3.05      0.00
   -3    7   13      0.10      0.00
   -2    7   13      1.39      0.00
   -1    7   13      1.67      0.00
    0    7   13     -5.15      0.00
    1    7   13     -0.20      0.00
    2    7   13     -1.67      0.00
    3    7   13     -5.50      0.00
    4    7   13      2.63      0.00
    5    7   13      2.93      0.00
    6    7   13      0.16      0.00
    7    7   13     -4.34      0.00
    8    7   13      1.81      0.00
    9    7   13      1.30      0.00
   10    7   13      1.98      0.00
   11    7   13     -0.26      0.00
   12    7   13     -0.76      0.00
   -7    8   13      1.19      0.00
   -6    8   13      0.65      0.00
   -5    8   13     -3.48      0.00
   -4    8   13     -2.15      0.00
   -3    8   13      3.16      0.00
   -2    8   13      0.57      0.00
   -1    8   13      0.32      0.00
    0    8   13     -2.20      0.00
    1    8   13      2.49      0.00
    2    8   13     -8.22      0.00
    3    8   13     -1.37      0.00
    4    8   13      3.05      0.00
    5    8   13     -2.76      0.00
    6    8   13     -5.26      0.00
    7    8   13     -3.94      0.00
    8    8   13      1.76      0.00
    9    8   13      0.92      0.00
   10    8   13      1.13      0.00
   11    8   13      0.34      0.00
   12    8   13     -0.71      0.00
   -6    9   13      0.03      0.00
   -5    9   13     -3.12      0.00
   -4    9   13      0.51      0.00
   -3    9   13      0.94      0.00
   -2    9   13     -2.09      0.00
   -1    9   13      2.59      0.00
    0    9   13      2.42      0.00
    1    9   13      2.82      0.00
    2    9   13     -3.09      0.00
    3    9   13      8.78      0.00
    4    9   13      0.77      0.00
    5    9   13     -2.79      0.00
    6    9   13     -3.35      0.00
    7    9   13     -0.85      0.00
    8    9   13      1.70      0.00
    9    9   13      0.12      0.00
   10    9   13     -0.83      0.00
   11    9   13      0.42      0.00
   -5   10   13     -0.92      0.00
   -4   10   13      1.80      0.00
   -3   10   13     -0.93      0.00
   -2   10   13     -1.48      0.00
   -1   10   13      1.61      0.00
    0   10   13     -1.16      0.00
    1   10   13     -0.30      0.00
    2   10   13      1.45      0.00
    3   10   13      8.02      0.00
    4   10   13     -1.78      0.00
    5   10   13     -0.45      0.00
    6   10   13     -1.31      0.00
    7   10   13      1.59      0.00
    8   10   13      1.76      0.00
    9   10   13     -0.91      0.00
   10   10   13     -1.18      0.00
   11   10   13      0.33      0.00
   -4   11   13      0.94      0.00
   -3   11   13     -0.50      0.00
   -2   11   13      0.51      0.00
   -1   11   13      0.57      0.00
    0   11   13     -3.38      0.00
    1   11   13     -1.62      0.00
    2   11   13      1.78      0.00
    3   11   13      2.18      0.00
    4   11   13     -2.40      0.00
    5   11   13     -0.77      0.00
    6   11   13      0.40      0.00
    7   11   13      0.94      0.00
    8   11   13      0.09      0.00
    9   11   13     -1.19      0.00
   10   11   13      0.14      0.00
   11   11   13     -0.11      0.00
   -3   12   13     -0.19      0.00
   -2   12   13      0.94      0.00
   -1   12   13     -0.42      0.00
    0   12   13     -2.65      0.00
    1   12   13      1.49      0.00
    2   12   13      2.41      0.00
    3   12   13     -1.21      0.00
    4   12   13     -0.86      0.00
    5   12   13      0.51      0.00
    6   12   13      1.89      0.00
    7   12   13      0.20      0.00
    8   12   13      0.37      0.00
    9   12   13     -1.28      0.00
   10   12   13     -0.80      0.00
   -2   13   13      0.34      0.00
   -1   13   13     -1.51      0.00
    0   13   13     -0.15      0.00
    1   13   13      2.90      0.00
    2   13   13     -0.93      0.00
    3   13   13     -2.95      0.00
    4   13   13     -0.65      0.00
    5   13   13     -0.28      0.00
    6   13   13      0.30      0.00
    7   13   13      2.13      0.00
    8   13   13      0.92      0.00
    9   13   13     -0.20      0.00
   10   13   13     -0.10      0.00
    0   14   13      1.31      0.00
    1   14   13      0.50      0.00
    2   14   13     -2.48      0.00
    3   14   13     -1.61      0.00
    4   14   13     -1.81      0.00
    5   14   13     -1.01      0.00
    6   14   13     -1.10      0.00
    7   14   13      2.08      0.00
    8   14   13     -0.68      0.00
    9   14   13      2.27      0.00
    2   15   13     -0.52      0.00
    3   15   13     -0.26      0.00
    4   15   13     -0.25      0.00
    5   15   13      0.85      0.00
    6   15   13     -1.74      0.00
    7   15   13      0.37      0.00
   -6   -9   14     -1.68      0.00
   -5   -9   14      0.97      0.00
   -4   -9   14      0.22      0.00
   -3   -9   14      0.11      0.00
   -2   -9   14     -2.80      0.00
   -1   -9   14     -1.06      0.00
    0   -9   14     -1.20      0.00
   -7   -8   14     -1.70      0.00
   -6   -8   14     -0.51      0.00
   -5   -8   14      1.95      0.00
   -4   -8   14      0.54      0.00
   -3   -8   14     -0.78      0.00
   -2   -8   14     -2.15      0.00
   -1   -8   14      0.13      0.00
    0   -8   14     -0.70      0.00
    1   -8   14      0.52      0.00
    2   -8   14     -0.30      0.00
   -8   -7   14     -0.62      0.00
   -7   -7   14     -1.00      0.00
   -6   -7   14      2.20      0.00
   -5   -7   14      1.13      0.00
   -4   -7   14      0.33      0.00
   -3   -7   14     -1.56      0.00
   -2   -7   14     -0.48      0.00
   -1   -7   14      2.13      0.00
    0   -7   14      1.53      0.00
    1   -7   14      1.52      0.00
    2   -7   14     -0.14      0.00
    3   -7   14     -2.01      0.00
    4   -7   14      0.15      0.00
   -9   -6   14     -0.36      0.00
   -8   -6   14     -0.75      0.00
   -7   -6   14     -0.54      0.00
   -6   -6   14      2.64      0.00
   -5   -6   14      0.27      0.00
   -4   -6   14     -0.35      0.00
   -3   -6   14     -2.53      0.00
   -2   -6   14      1.03      0.00
   -1   -6   14      2.09      0.00
    0   -6   14      1.20      0.00
    1   -6   14      1.21      0.00
    2   -6   14     -0.11      0.00
    3   -6   14     -1.02      0.00
    4   -6   14      1.50      0.00
    5   -6   14      1.74      0.00
   -9   -5   14      0.26      0.00
   -8   -5   14     -1.37      0.00
   -7   -5   14     -0.76      0.00
   -6   -5   14      2.63      0.00
   -5   -5   14     -2.09      0.00
   -4   -5   14     -2.55      0.00
   -3   -5   14     -1.06      0.00
   -2   -5   14      1.73      0.00
   -1   -5   14     -0.56      0.00
    0   -5   14      0.69      0.00
    1   -5   14     -0.06      0.00
    2   -5   14     -2.33      0.00
    3   -5   14     -0.87      0.00
    4   -5   14      1.71      0.00
    5   -5   14      1.29      0.00
    6   -5   14     -1.20      0.00
   -9   -4   14      0.08      0.00
   -8   -4   14     -1.38      0.00
   -7   -4   14      2.07      0.00
   -6   -4   14      2.04      0.00
   -5   -4   14     -4.69      0.00
   -4   -4   14      0.05      0.00
   -3   -4   14      0.49      0.00
   -2   -4   14     -0.66      0.00
   -1   -4   14     -0.67      0.00
    0   -4   14      2.89      0.00
    1   -4   14     -2.99      0.00
    2   -4   14     -3.50      0.00
    3   -4   14      0.73      0.00
    4   -4   14      1.36      0.00
    5   -4   14     -0.72      0.00
    6   -4   14     -2.89      0.00
    7   -4   14     -1.07      0.00
  -10   -3   14     -0.92      0.00
   -9   -3   14     -0.61      0.00
   -8   -3   14      1.11      0.00
   -7   -3   14      2.72      0.00
   -6   -3   14     -1.03      0.00
   -5   -3   14     -2.48      0.00
   -4   -3   14      4.41      0.00
   -3   -3   14     -2.74      0.00
   -2   -3   14      0.54      0.00
   -1   -3   14      2.83      0.00
    0   -3   14      1.86      0.00
    1   -3   14     -5.88      0.00
    2   -3   14      1.05      0.00
    3   -3   14      3.70      0.00
    4   -3   14      1.43      0.00
    5   -3   14     -1.93      0.00
    6   -3   14     -1.69      0.00
    7   -3   14      0.27      0.00
    8   -3   14     -0.11      0.00
  -10   -2   14     -2.01      0.00
   -9   -2   14     -0.12      0.00
   -8   -2   14      3.02      0.00
   -7   -2   14     -0.95      0.00
   -6   -2   14     -0.90      0.00
   -5   -2   14      0.97      0.00
   -4   -2   14      2.46      0.00
   -3   -2   14     -5.01      0.00
   -2   -2   14      6.21      0.00
   -1   -2   14      0.67      0.00
    0   -2   14     -3.51      0.00
    1   -2   14     -5.24      0.00
    2   -2   14      6.25      0.00
    3   -2   14      2.73      0.00
    4   -2   14      0.57      0.00
    5   -2   14     -1.97      0.00
    6   -2   14      1.82      0.00
    7   -2   14      1.44      0.00
    8   -2   14      1.14      0.00
  -10   -1   14     -1.77      0.00
   -9   -1   14     -0.36      0.00
   -8   -1   14      1.33      0.00
   -7   -1   14     -5.10      0.00
   -6   -1   14      1.88      0.00
   -5   -1   14     -0.95      0.00
   -4   -1   14     -0.86      0.00
   -3   -1   14     -1.91      0.00
   -2   -1   14      8.16      0.00
   -1   -1   14     -6.52      0.00
    0   -1   14     -4.89      0.00
    1   -1   14     -1.33      0.00
    2   -1   14      6.60      0.00
    3   -1   14     -3.42      0.00
    4   -1   14     -1.02      0.00
    5   -1   14     -1.34      0.00
    6   -1   14      3.27      0.00
    7   -1   14     -0.38      0.00
    8   -1   14      1.96      0.00
    9   -1   14      0.18      0.00
  -10    0   14      0.07      0.00
   -9    0   14      0.74      0.00
   -8    0   14      0.13      0.00
   -7    0   14     -3.39      0.00
   -6    0   14      4.85      0.00
   -5    0   14     -4.88      0.00
   -4    0   14      1.47      0.00
   -3    0   14      1.90      0.00
   -2    0   14      4.44      0.00
   -1    0   14    -10.57      0.00
    0    0   14      2.14      0.00
    1    0   14      3.61      0.00
    2    0   14      3.61      0.00
    3    0   14     -7.33      0.00
    4    0   14      1.31      0.00
    5    0   14     -1.80      0.00
    6    0   14      0.91      0.00
    7    0   14     -1.89      0.00
    8    0   14      2.23      0.00
    9    0   14     -2.67      0.00
   -9    1   14      0.35      0.00
   -8    1   14      0.05      0.00
   -7    1   14      2.29      0.00
   -6    1   14      2.76      0.00
   -5    1   14     -5.00      0.00
   -4    1   14      8.67      0.00
   -3    1   14      0.93      0.00
   -2    1   14     -0.90      0.00
   -1    1   14     -7.07      0.00
    0    1   14     11.06      0.00
    1    1   14      2.06      0.00
    2    1   14      1.17      0.00
    3    1   14     -2.99      0.00
    4    1   14      4.36      0.00
    5    1   14     -4.39      0.00
    6    1   14      1.27      0.00
    7    1   14      0.03      0.00
    8    1   14      1.29      0.00
    9    1   14     -3.56      0.00
   10    1   14      1.24      0.00
   -9    2   14      0.01      0.00
   -8    2   14      1.55      0.00
   -7    2   14      2.22      0.00
   -6    2   14     -5.05      0.00
   -5    2   14     -0.21      0.00
   -4    2   14      7.41      0.00
   -3    2   14     -8.11      0.00
   -2    2   14     -2.02      0.00
   -1    2   14     -0.38      0.00
    0    2   14      9.03      0.00
    1    2   14     -5.44      0.00
    2    2   14      2.04      0.00
    3    2   14     -0.39      0.00
    4    2   14      0.15      0.00
    5    2   14     -3.71      0.00
    6    2   14      4.76      0.00
    7    2   14     -0.56      0.00
    8    2   14     -0.65      0.00
    9    2   14     -1.73      0.00
   10    2   14      2.78      0.00
   -9    3   14      1.36      0.00
   -8    3   14      1.68      0.00
   -7    3   14     -0.75      0.00
   -6    3   14     -2.99      0.00
   -5    3   14      6.41      0.00
   -4    3   14     -2.67      0.00
   -3    3   14    -10.20      0.00
   -2    3   14      2.20      0.00
   -1    3   14      0.01      0.00
    0    3   14      1.14      0.00
    1    3   14     -5.30      0.00
    2    3   14      2.79      0.00
    3    3   14     -3.93      0.00
    4    3   14     -2.77      0.00
    5    3   14      1.49      0.00
    6    3   14      3.02      0.00
    7    3   14     -3.58      0.00
    8    3   14     -1.58      0.00
    9    3   14     -1.33      0.00
   10    3   14      1.55      0.00
   11    3   14     -0.75      0.00
   -9    4   14      0.01      0.00
   -8    4   14     -1.99      0.00
   -7    4   14     -0.90      0.00
   -6    4   14      2.84      0.00
   -5    4   14      4.59      0.00
   -4    4   14     -5.85      0.00
   -3    4   14     -0.30      0.00
   -2    4   14      3.36      0.00
   -1    4   14     -1.09      0.00
    0    4   14     -0.08      0.00
    1    4   14     -0.71      0.00
    2    4   14      0.69      0.00
    3    4   14     -2.44      0.00
    4    4   14      1.82      0.00
    5    4   14      5.51      0.00
    6    4   14      0.26      0.00
    7    4   14     -2.04      0.00
    8    4   14     -1.27      0.00
    9    4   14     -0.53      0.00
   10    4   14      1.17      0.00
   11    4   14     -1.49      0.00
   -8    5   14     -0.62      0.00
   -7    5   14      1.57      0.00
   -6    5   14      1.20      0.00
   -5    5   14     -1.76      0.00
   -4    5   14     -2.81      0.00
   -3    5   14      3.20      0.00
   -2    5   14      1.84      0.00
   -1    5   14      1.63      0.00
    0    5   14     -0.17      0.00
    1    5   14      0.31      0.00
    2    5   14     -1.20      0.00
    3    5   14      0.54      0.00
    4    5   14      3.85      0.00
    5    5   14      5.63      0.00
    6    5   14     -0.63      0.00
    7    5   14      0.42      0.00
    8    5   14      0.38      0.00
    9    5   14      2.89      0.00
   10    5   14      1.40      0.00
   11    5   14     -0.98      0.00
   -8    6   14      1.73      0.00
   -7    6   14      2.02      0.00
   -6    6   14     -1.07      0.00
   -5    6   14     -2.86      0.00
   -4    6   14     -0.81      0.00
   -3    6   14      1.19      0.00
   -2    6   14      1.93      0.00
   -1    6   14     -0.14      0.00
    0    6   14     -0.76      0.00
    1    6   14      0.55      0.00
    2    6   14     -3.71      0.00
    3    6   14      0.77      0.00
    4    6   14      2.39      0.00
    5    6   14      0.51      0.00
    6    6   14     -5.11      0.00
    7    6   14      0.23      0.00
    8    6   14      1.24      0.00
    9    6   14      3.12      0.00
   10    6   14     -0.10      0.00
   11    6   14     -0.56      0.00
   -7    7   14     -0.17      0.00
   -6    7   14     -2.77      0.00
   -5    7   14     -2.03      0.00
   -4    7   14      1.07      0.00
   -3    7   14      0.66      0.00
   -2    7   14      0.60      0.00
   -1    7   14     -1.83      0.00
    0    7   14      2.47      0.00
    1    7   14     -3.04      0.00
    2    7   14     -3.44      0.00
    3    7   14      3.73      0.00
    4    7   14     -1.02      0.00
    5    7   14     -5.90      0.00
    6    7   14     -6.58      0.00
    7    7   14      0.72      0.00
    8    7   14     -0.76      0.00
    9    7   14      0.77      0.00
   10    7   14     -0.79      0.00
   11    7   14     -0.54      0.00
   -6    8   14     -2.67      0.00
   -5    8   14      0.28      0.00
   -4    8   14      1.30      0.00
   -3    8   14     -1.80      0.00
   -2    8   14      0.54      0.00
   -1    8   14      1.73      0.00
    0    8   14      3.29      0.00
    1    8   14     -4.20      0.00
    2    8   14      6.28      0.00
    3    8   14      4.74      0.00
    4    8   14     -3.66      0.00
    5    8   14     -4.26      0.00
    6    8   14     -1.42      0.00
    7    8   14      1.90      0.00
    8    8   14     -1.72      0.00
    9    8   14     -0.08      0.00
   10    8   14     -0.91      0.00
   11    8   14     -0.38      0.00
   -6    9   14     -0.79      0.00
   -5    9   14      2.43      0.00
   -4    9   14     -0.17      0.00
   -3    9   14     -1.69      0.00
   -2    9   14      2.07      0.00
   -1    9   14     -0.16      0.00
    0    9   14     -1.79      0.00
    1    9   14     -1.34      0.00
    2    9   14      9.89      0.00
    3    9   14     -0.98      0.00
    4    9   14     -0.77      0.00
    5    9   14      0.41      0.00
    6    9   14      2.89      0.00
    7    9   14      2.92      0.00
    8    9   14     -0.73      0.00
    9    9   14     -0.32      0.00
   10    9   14     -0.63      0.00
   11    9   14     -0.89      0.00
   -5   10   14      1.58      0.00
   -4   10   14     -0.51      0.00
   -3   10   14      1.22      0.00
   -2   10   14      1.90      0.00
   -1   10   14     -3.19      0.00
    0   10   14     -3.53      0.00
    1   10   14     -0.79      0.00
    2   10   14      2.45      0.00
    3   10   14     -5.93      0.00
    4   10   14      0.57      0.00
    5   10   14      0.18      0.00
    6   10   14      3.51      0.00
    7   10   14      1.50      0.00
    8   10   14     -1.09      0.00
    9   10   14      0.34      0.00
   10   10   14      0.36      0.00
   11   10   14     -1.32      0.00
   -4   11   14     -0.57      0.00
   -3   11   14      1.08      0.00
   -2   11   14      0.32      0.00
   -1   11   14     -2.19      0.00
    0   11   14      0.15      0.00
    1   11   14      1.24      0.00
    2   11   14     -0.68      0.00
    3   11   14     -4.17      0.00
    4   11   14      0.16      0.00
    5   11   14      0.68      0.00
    6   11   14      1.81      0.00
    7   11   14     -0.29      0.00
    8   11   14     -1.09      0.00
    9   11   14      0.56      0.00
   10   11   14     -0.47      0.00
   -3   12   14      0.36      0.00
   -2   12   14     -0.97      0.00
   -1   12   14     -0.85      0.00
    0   12   14      2.77      0.00
    1   12   14      1.18      0.00
    2   12   14     -1.35      0.00
    3   12   14     -1.14      0.00
    4   12   14     -0.33      0.00
    5   12   14      0.22      0.00
    6   12   14     -0.32      0.00
    7   12   14      0.32      0.00
    8   12   14     -0.46      0.00
    9   12   14      0.65      0.00
   10   12   14     -0.43      0.00
   -1   13   14      1.10      0.00
    0   13   14      1.89      0.00
    1   13   14     -1.60      0.00
    2   13   14     -0.70      0.00
    3   13   14      0.01      0.00
    4   13   14     -1.72      0.00
    5   13   14     -1.22      0.00
    6   13   14     -0.32      0.00
    7   13   14     -0.99      0.00
    8   13   14      0.18      0.00
    9   13   14      1.72      0.00
    0   14   14     -0.43      0.00
    1   14   14     -1.02      0.00
    2   14   14      1.40      0.00
    3   14   14      0.47      0.00
    4   14   14      0.29      0.00
    5   14   14      0.35      0.00
    6   14   14      0.64      0.00
    7   14   14     -2.55      0.00
    8   14   14      1.18      0.00
    3   15   14      1.21      0.00
    4   15   14      1.83      0.00
    5   15   14      0.65      0.00
    6   15   14      1.48      0.00
   -4   -9   15     -0.02      0.00
   -3   -9   15     -1.21      0.00
   -2   -9   15     -0.01      0.00
   -6   -8   15      0.95      0.00
   -5   -8   15     -0.73      0.00
   -4   -8   15     -0.59      0.00
   -3   -8   15     -0.10      0.00
   -2   -8   15      1.42      0.00
   -1   -8   15      0.74      0.00
    0   -8   15      2.31      0.00
    1   -8   15      0.33      0.00
   -7   -7   15      1.65      0.00
   -6   -7   15      0.11      0.00
   -5   -7   15     -0.16      0.00
   -4   -7   15     -0.88      0.00
   -3   -7   15      0.77      0.00
   -2   -7   15      1.33      0.00
   -1   -7   15      1.26      0.00
    0   -7   15      2.23      0.00
    1   -7   15     -0.19      0.00
    2   -7   15     -0.99      0.00
    3   -7   15      1.47      0.00
   -8   -6   15     -0.17      0.00
   -7   -6   15      0.97      0.00
   -6   -6   15     -1.02      0.00
   -5   -6   15     -0.38      0.00
   -4   -6   15     -1.11      0.00
   -3   -6   15      1.78      0.00
   -2   -6   15      0.16      0.00
   -1   -6   15      0.13      0.00
    0   -6   15     -0.05      0.00
    1   -6   15     -2.02      0.00
    2   -6   15     -1.07      0.00
    3   -6   15      2.04      0.00
    4   -6   15      1.35      0.00
   -9   -5   15     -0.06      0.00
   -8   -5   15      0.66      0.00
   -7   -5   15      1.62      0.00
   -6   -5   15     -2.30      0.00
   -5   -5   15     -0.80      0.00
   -4   -5   15     -0.02      0.00
   -3   -5   15      0.80      0.00
   -2   -5   15     -1.42      0.00
   -1   -5   15      0.76      0.00
    0   -5   15     -1.83      0.00
    1   -5   15     -3.42      0.00
    2   -5   15     -0.54      0.00
    3   -5   15      1.78      0.00
    4   -5   15      0.24      0.00
    5   -5   15     -2.24      0.00
   -9   -4   15     -0.15      0.00
   -8   -4   15      2.36      0.00
   -7   -4   15      0.47      0.00
   -6   -4   15     -2.55      0.00
   -5   -4   15      2.45      0.00
   -4   -4   15      0.00      0.00
   -3   -4   15     -0.65      0.00
   -2   -4   15      0.83      0.00
   -1   -4   15      2.04      0.00
    0   -4   15     -4.31      0.00
    1   -4   15     -1.04      0.00
    2   -4   15      2.55      0.00
    3   -4   15      1.70      0.00
    4   -4   15     -1.17      0.00
    5   -4   15     -2.52      0.00
    6   -4   15     -0.08      0.00
   -9   -3   15      0.94      0.00
   -8   -3   15      1.04      0.00
   -7   -3   15     -1.99      0.00
   -6   -3   15     -0.18      0.00
   -5   -3   15      3.00      0.00
   -4   -3   15     -3.24      0.00
   -3   -3   15      2.89      0.00
   -2   -3   15      2.80      0.00
   -1   -3   15     -1.17      0.00
    0   -3   15     -5.10      0.00
    1   -3   15      4.34      0.00
    2   -3   15      3.13      0.00
    3   -3   15      0.74      0.00
    4   -3   15     -1.59      0.00
    5   -3   15     -0.17      0.00
    6   -3   15      1.52      0.00
    7   -3   15      1.69      0.00
   -9   -2   15      0.62      0.00
   -8   -2   15     -2.28      0.00
   -7   -2   15     -0.61      0.00
   -6   -2   15      0.51      0.00
   -5   -2   15     -0.71      0.00
   -4   -2   15     -2.58      0.00
   -3   -2   15      7.18      0.00
   -2   -2   15     -2.53      0.00
   -1   -2   15     -4.00      0.00
    0   -2   15     -1.55      0.00
    1   -2   15      6.31      0.00
    2   -2   15     -1.38      0.00
    3   -2   15     -0.84      0.00
    4   -2   15     -2.04      0.00
    5   -2   15      1.77      0.00
    6   -2   15      0.67      0.00
    7   -2   15      1.76      0.00
    8   -2   15      0.48      0.00
   -9   -1   15      0.14      0.00
   -8   -1   15     -3.06      0.00
   -7   -1   15      2.26      0.00
   -6   -1   15     -3.29      0.00
   -5   -1   15     -1.33      0.00
   -4   -1   15      1.20      0.00
   -3   -1   15      5.00      0.00
   -2   -1   15     -8.47      0.00
   -1   -1   15      0.10      0.00
    0   -1   15      2.89      0.00
    1   -1   15      4.44      0.00
    2   -1   15     -5.07      0.00
    3   -1   15      0.00      0.00
    4   -1   15     -2.41      0.00
    5   -1   15      1.06      0.00
    6   -1   15     -2.01      0.00
    7   -1   15      1.53      0.00
    8   -1   15     -1.94      0.00
   -9    0   15      0.74      0.00
   -8    0   15      0.18      0.00
   -7    0   15      4.05      0.00
   -6    0   15     -5.09      0.00
   -5    0   15      4.31      0.00
   -4    0   15      2.22      0.00
   -3    0   15      0.01      0.00
   -2    0   15     -8.06      0.00
   -1    0   15      7.09      0.00
    0    0   15      2.98      0.00
    1    0   15      1.62      0.00
    2    0   15     -3.78      0.00
    3    0   15      3.52      0.00
    4    0   15     -3.47      0.00
    5    0   15      0.48      0.00
    6    0   15     -1.18      0.00
    7    0   15      2.10      0.00
    8    0   15     -3.79      0.00
    9    0   15      0.18      0.00
   -9    1   15      0.31      0.00
   -8    1   15      1.57      0.00
   -7    1   15     -0.26      0.00
   -6    1   15     -3.23      0.00
   -5    1   15      8.09      0.00
   -4    1   15     -2.96      0.00
   -3    1   15     -2.38      0.00
   -2    1   15     -2.89      0.00
   -1    1   15      9.18      0.00
    0    1   15     -3.39      0.00
    1    1   15      0.39      0.00
    2    1   15     -0.93      0.00
    3    1   15      2.84      0.00
    4    1   15     -4.51      0.00
    5    1   15      4.28      0.00
    6    1   15      0.99      0.00
    7    1   15      0.53      0.00
    8    1   15     -3.28      0.00
    9    1   15      2.92      0.00
   -9    2   15      1.03      0.00
   -8    2   15     -0.10      0.00
   -7    2   15     -3.94      0.00
   -6    2   15      2.57      0.00
   -5    2   15      2.70      0.00
   -4    2   15     -9.11      0.00
   -3    2   15      0.13      0.00
   -2    2   15     -0.33      0.00
   -1    2   15      3.26      0.00
    0    2   15     -7.60      0.00
    1    2   15      2.63      0.00
    2    2   15     -3.23      0.00
    3    2   15     -1.92      0.00
    4    2   15     -1.00      0.00
    5    2   15      6.66      0.00
    6    2   15     -1.73      0.00
    7    2   15     -1.47      0.00
    8    2   15     -1.57      0.00
    9    2   15      2.53      0.00
   10    2   15     -0.86      0.00
   -8    3   15     -2.03      0.00
   -7    3   15     -0.66      0.00
   -6    3   15      5.59      0.00
   -5    3   15     -4.03      0.00
   -4    3   15     -2.73      0.00
   -3    3   15      5.17      0.00
   -2    3   15     -1.50      0.00
   -1    3   15      0.22      0.00
    0    3   15     -2.87      0.00
    1    3   15      3.03      0.00
    2    3   15     -5.79      0.00
    3    3   15      0.24      0.00
    4    3   15      4.25      0.00
    5    3   15      2.15      0.00
    6    3   15     -3.79      0.00
    7    3   15     -0.47      0.00
    8    3   15     -0.23      0.00
    9    3   15      1.37      0.00
   10    3   15     -1.59      0.00
   -8    4   15     -0.82      0.00
   -7    4   15      0.63      0.00
   -6    4   15     -0.47      0.00
   -5    4   15     -4.90      0.00
   -4    4   15      4.75      0.00
   -3    4   15      3.20      0.00
   -2    4   15      0.08      0.00
   -1    4   15      2.99      0.00
    0    4   15      0.47      0.00
    1    4   15     -0.28      0.00
    2    4   15     -2.61      0.00
    3    4   15      4.52      0.00
    4    4   15      4.11      0.00
    5    4   15     -2.07      0.00
    6    4   15     -1.33      0.00
    7    4   15      0.66      0.00
    8    4   15      1.95      0.00
    9    4   15      2.14      0.00
   10    4   15     -0.85      0.00
   -8    5   15      1.30      0.00
   -7    5   15     -0.19      0.00
   -6    5   15     -2.61      0.00
   -5    5   15     -1.24      0.00
   -4    5   15      2.16      0.00
   -3    5   15     -0.86      0.00
   -2    5   15      1.59      0.00
   -1    5   15      1.34      0.00
    0    5   15     -0.14      0.00
    1    5   15     -1.87      0.00
    2    5   15      0.31      0.00
    3    5   15      3.01      0.00
    4    5   15     -0.02      0.00
    5    5   15     -4.86      0.00
    6    5   15     -0.93      0.00
    7    5   15      0.41      0.00
    8    5   15      2.99      0.00
    9    5   15      0.65      0.00
   10    5   15     -0.65      0.00
   11    5   15      0.93      0.00
   -7    6   15     -1.15      0.00
   -6    6   15     -0.27      0.00
   -5    6   15      1.41      0.00
   -4    6   15      0.22      0.00
   -3    6   15     -0.19      0.00
   -2    6   15     -0.97      0.00
   -1    6   15     -0.40      0.00
    0    6   15     -0.90      0.00
    1    6   15     -2.49      0.00
    2    6   15      2.82      0.00
    3    6   15      1.29      0.00
    4    6   15     -4.08      0.00
    5    6   15     -6.44      0.00
    6    6   15     -0.48      0.00
    7    6   15     -0.37      0.00
    8    6   15      0.48      0.00
    9    6   15     -1.87      0.00
   10    6   15     -0.69      0.00
   11    6   15      0.20      0.00
   -7    7   15     -1.34      0.00
   -6    7   15      0.64      0.00
   -5    7   15      1.26      0.00
   -4    7   15     -0.33      0.00
   -3    7   15      0.22      0.00
   -2    7   15     -0.86      0.00
   -1    7   15      1.37      0.00
    0    7   15     -3.66      0.00
    1    7   15      1.05      0.00
    2    7   15      6.00      0.00
    3    7   15     -1.40      0.00
    4    7   15     -4.27      0.00
    5    7   15     -1.48      0.00
    6    7   15      2.92      0.00
    7    7   15     -0.96      0.00
    8    7   15     -0.21      0.00
    9    7   15     -1.68      0.00
   10    7   15     -0.58      0.00
   11    7   15      0.47      0.00
   -6    8   15      2.08      0.00
   -5    8   15      0.26      0.00
   -4    8   15     -0.98      0.00
   -3    8   15      1.44      0.00
   -2    8   15      0.21      0.00
   -1    8   15     -1.40      0.00
    0    8   15     -3.99      0.00
    1    8   15      7.17      0.00
    2    8   15      1.85      0.00
    3    8   15     -3.03      0.00
    4    8   15      0.71      0.00
    5    8   15      4.01      0.00
    6    8   15      4.43      0.00
    7    8   15      0.04      0.00
    8    8   15      1.64      0.00
    9    8   15     -1.01      0.00
   10    8   15     -0.35      0.00
   11    8   15      0.55      0.00
   -5    9   15     -0.95      0.00
   -4    9   15      0.87      0.00
   -3    9   15      2.69      0.00
   -2    9   15     -1.92      0.00
   -1    9   15     -3.70      0.00
    0    9   15     -0.84      0.00
    1    9   15      4.11      0.00
    2    9   15     -6.91      0.00
    3    9   15     -1.10      0.00
    4    9   15      0.90      0.00
    5    9   15      3.39      0.00
    6    9   15      2.53      0.00
    7    9   15     -0.14      0.00
    8    9   15      1.56      0.00
    9    9   15     -0.28      0.00
   10    9   15     -0.12      0.00
   11    9   15     -0.07      0.00
   -4   10   15      1.27      0.00
   -3   10   15      0.64      0.00
   -2   10   15     -2.31      0.00
   -1   10   15      0.03      0.00
    0   10   15      2.58      0.00
    1   10   15      0.36      0.00
    2   10   15     -6.53      0.00
    3   10   15      0.75      0.00
    4   10   15     -2.40      0.00
    5   10   15      1.63      0.00
    6   10   15     -1.02      0.00
    7   10   15     -1.51      0.00
    8   10   15      0.96      0.00
    9   10   15     -0.11      0.00
   10   10   15     -0.48      0.00
   -3   11   15     -0.91      0.00
   -2   11   15     -1.36      0.00
   -1   11   15      2.18      0.00
    0   11   15      3.07      0.00
    1   11   15      0.72      0.00
    2   11   15     -1.23      0.00
    3   11   15      1.87      0.00
    4   11   15     -1.27      0.00
    5   11   15      0.44      0.00
    6   11   15     -2.08      0.00
    7   11   15     -0.75      0.00
    8   11   15      0.91      0.00
    9   11   15     -0.65      0.00
   10   11   15     -0.08      0.00
   -2   12   15     -0.15      0.00
   -1   12   15      1.74      0.00
    0   12   15      0.04      0.00
    1   12   15     -0.47      0.00
    2   12   15      0.21      0.00
    3   12   15      0.72      0.00
    4   12   15     -0.37      0.00
    5   12   15     -0.50      0.00
    6   12   15     -0.75      0.00
    7   12   15     -0.74      0.00
    8   12   15      0.85      0.00
    9   12   15     -0.14      0.00
   10   12   15      0.62      0.00
   -1   13   15      0.07      0.00
    0   13   15     -1.59      0.00
    1   13   15      0.40      0.00
    2   13   15      0.13      0.00
    3   13   15     -0.03      0.00
    4   13   15      1.41      0.00
    5   13   15      1.22      0.00
    6   13   15     -0.38      0.00
    7   13   15     -0.09      0.00
    8   13   15      0.48      0.00
    9   13   15     -0.90      0.00
    1   14   15      0.90      0.00
    2   14   15     -0.62      0.00
    3   14   15      1.03      0.00
    4   14   15      2.35      0.00
    5   14   15      1.63      0.00
    6   14   15     -0.27      0.00
    7   14   15      1.97      0.00
   -5   -8   16      0.65      0.00
   -4   -8   16      0.44      0.00
   -3   -8   16      0.38      0.00
   -1   -8   16      1.89      0.00
    0   -8   16     -0.31      0.00
   -6   -7   16      0.36      0.00
   -5   -7   16      0.31      0.00
   -4   -7   16      0.85      0.00
   -3   -7   16     -0.36      0.00
   -2   -7   16      0.13      0.00
   -1   -7   16      0.06      0.00
    0   -7   16     -2.49      0.00
    1   -7   16     -1.01      0.00
    2   -7   16      1.54      0.00
   -7   -6   16     -0.92      0.00
   -6   -6   16     -0.16      0.00
   -5   -6   16     -0.80      0.00
   -4   -6   16      0.61      0.00
   -3   -6   16     -1.50      0.00
   -2   -6   16      0.08      0.00
   -1   -6   16     -1.36      0.00
    0   -6   16     -3.12      0.00
    1   -6   16     -0.62      0.00
    2   -6   16      1.39      0.00
    3   -6   16     -0.04      0.00
   -8   -5   16      0.90      0.00
   -7   -5   16     -1.12      0.00
   -6   -5   16      0.72      0.00
   -5   -5   16     -0.06      0.00
   -4   -5   16     -0.29      0.00
   -3   -5   16     -1.19      0.00
   -2   -5   16      1.48      0.00
   -1   -5   16     -2.10      0.00
    0   -5   16     -1.51      0.00
    1   -5   16      1.73      0.00
    2   -5   16      1.69      0.00
    3   -5   16     -1.12      0.00
    4   -5   16     -2.43      0.00
    5   -5   16     -0.31      0.00
   -8   -4   16     -1.12      0.00
   -7   -4   16     -1.30      0.00
   -6   -4   16      2.32      0.00
   -5   -4   16     -0.99      0.00
   -4   -4   16      0.48      0.00
   -3   -4   16      2.30      0.00
   -2   -4   16      1.25      0.00
   -1   -4   16     -3.39      0.00
    0   -4   16      2.53      0.00
    1   -4   16      3.57      0.00
    2   -4   16      1.01      0.00
    3   -4   16     -1.55      0.00
    4   -4   16     -1.30      0.00
    5   -4   16      1.16      0.00
    6   -4   16      1.37      0.00
   -9   -3   16     -0.32      0.00
   -8   -3   16     -2.07      0.00
   -7   -3   16      0.34      0.00
   -6   -3   16      0.46      0.00
   -5   -3   16     -2.78      0.00
   -4   -3   16      4.13      0.00
   -3   -3   16      1.09      0.00
   -2   -3   16     -2.67      0.00
   -1   -3   16     -2.15      0.00
    0   -3   16      5.71      0.00
    1   -3   16      0.23      0.00
    2   -3   16     -0.85      0.00
    3   -3   16     -1.58      0.00
    4   -3   16      0.63      0.00
    5   -3   16      1.53      0.00
    6   -3   16      1.70      0.00
   -9   -2   16     -1.16      0.00
   -8   -2   16      0.05      0.00
   -7   -2   16     -0.26      0.00
   -6   -2   16     -1.66      0.00
   -5   -2   16      0.18      0.00
   -4   -2   16      4.95      0.00
   -3   -2   16     -5.55      0.00
   -2   -2   16     -2.17      0.00
   -1   -2   16      1.51      0.00
    0   -2   16      4.33      0.00
    1   -2   16     -4.06      0.00
    2   -2   16     -0.53      0.00
    3   -2   16     -2.15      0.00
    4   -2   16      0.77      0.00
    5   -2   16     -0.67      0.00
    6   -2   16      1.05      0.00
    7   -2   16     -1.67      0.00
   -9   -1   16     -0.07      0.00
   -8   -1   16      2.43      0.00
   -7   -1   16     -2.45      0.00
   -6   -1   16      1.68      0.00
   -5   -1   16      2.79      0.00
   -4   -1   16      0.31      0.00
   -3   -1   16     -7.97      0.00
   -2   -1   16      3.54      0.00
   -1   -1   16      1.99      0.00
    0   -1   16      1.33      0.00
    1   -1   16     -3.88      0.00
    2   -1   16      2.00      0.00
    3   -1   16     -2.62      0.00
    4   -1   16      0.97      0.00
    5   -1   16     -1.23      0.00
    6   -1   16      1.98      0.00
    7   -1   16     -3.16      0.00
    8   -1   16     -0.65      0.00
   -9    0   16      0.34      0.00
   -8    0   16      1.65      0.00
   -7    0   16     -2.72      0.00
   -6    0   16      7.10      0.00
   -5    0   16      0.33      0.00
   -4    0   16     -2.46      0.00
   -3    0   16     -3.85      0.00
   -2    0   16      7.08      0.00
   -1    0   16     -1.91      0.00
    0    0   16     -0.18      0.00
    1    0   16     -1.87      0.00
    2    0   16      2.70      0.00
    3    0   16     -3.42      0.00
    4    0   16      3.59      0.00
    5    0   16      1.27      0.00
    6    0   16      2.23      0.00
    7    0   16     -3.80      0.00
    8    0   16      2.09      0.00
   -9    1   16     -0.39      0.00
   -8    1   16     -2.23      0.00
   -7    1   16     -1.28      0.00
   -6    1   16      5.66      0.00
   -5    1   16     -6.33      0.00
   -4    1   16     -1.23      0.00
   -3    1   16     -0.13      0.00
   -2    1   16      4.90      0.00
   -1    1   16     -6.12      0.00
    0    1   16      1.50      0.00
    1    1   16     -2.09      0.00
    2    1   16     -0.47      0.00
    3    1   16     -2.76      0.00
    4    1   16      7.14      0.00
    5    1   16      0.32      0.00
    6    1   16     -0.83      0.00
    7    1   16     -2.88      0.00
    8    1   16      3.50      0.00
    9    1   16     -0.52      0.00
   -8    2   16     -2.10      0.00
   -7    2   16      3.03      0.00
   -6    2   16     -0.44      0.00
   -5    2   16     -6.35      0.00
   -4    2   16      3.61      0.00
   -3    2   16     -0.31      0.00
   -2    2   16      1.25      0.00
   -1    2   16     -4.32      0.00
    0    2   16      4.34      0.00
    1    2   16     -5.17      0.00
    2    2   16     -1.08      0.00
    3    2   16      1.51      0.00
    4    2   16      4.83      0.00
    5    2   16     -4.97      0.00
    6    2   16     -1.72      0.00
    7    2   16     -0.23      0.00
    8    2   16      2.53      0.00
    9    2   16     -1.82      0.00
   -8    3   16      0.34      0.00
   -7    3   16      2.29      0.00
   -6    3   16     -4.66      0.00
   -5    3   16      1.73      0.00
   -4    3   16      4.71      0.00
   -3    3   16     -1.04      0.00
   -2    3   16      3.30      0.00
   -1    3   16      0.76      0.00
    0    3   16      2.55      0.00
    1    3   16     -5.12      0.00
    2    3   16      4.33      0.00
    3    3   16      3.68      0.00
    4    3   16     -1.60      0.00
    5    3   16     -5.02      0.00
    6    3   16      0.44      0.00
    7    3   16      1.39      0.00
    8    3   16      2.09      0.00
    9    3   16     -0.74      0.00
   10    3   16      0.39      0.00
   -8    4   16      1.35      0.00
   -7    4   16     -0.87      0.00
   -6    4   16     -2.44      0.00
   -5    4   16      3.80      0.00
   -4    4   16     -2.12      0.00
   -3    4   16     -0.44      0.00
   -2    4   16      3.29      0.00
   -1    4   16     -0.60      0.00
    0    4   16     -1.09      0.00
    1    4   16     -0.88      0.00
    2    4   16      5.66      0.00
    3    4   16      0.18      0.00
    4    4   16     -4.27      0.00
    5    4   16     -0.96      0.00
    6    4   16      0.75      0.00
    7    4   16      2.01      0.00
    8    4   16      1.03      0.00
    9    4   16     -0.77      0.00
   10    4   16      0.79      0.00
   -7    5   16      0.20      0.00
   -6    5   16      2.13      0.00
   -5    5   16      1.24      0.00
   -4    5   16     -3.00      0.00
   -3    5   16      0.30      0.00
   -2    5   16     -1.58      0.00
   -1    5   16     -3.06      0.00
    0    5   16     -1.72      0.00
    1    5   16      1.95      0.00
    2    5   16      2.84      0.00
    3    5   16     -2.72      0.00
    4    5   16     -4.05      0.00
    5    5   16      0.50      0.00
    6    5   16      0.37      0.00
    7    5   16      1.40      0.00
    8    5   16     -1.87      0.00
    9    5   16     -1.60      0.00
   10    5   16      0.01      0.00
   -7    6   16      0.19      0.00
   -6    6   16      1.13      0.00
   -5    6   16     -0.23      0.00
   -4    6   16      0.52      0.00
   -3    6   16     -0.10      0.00
   -2    6   16     -1.07      0.00
   -1    6   16     -2.48      0.00
    0    6   16     -1.04      0.00
    1    6   16      3.89      0.00
    2    6   16      0.65      0.00
    3    6   16     -3.36      0.00
    4    6   16     -1.22      0.00
    5    6   16      3.03      0.00
    6    6   16      0.97      0.00
    7    6   16      0.08      0.00
    8    6   16     -2.16      0.00
    9    6   16     -0.81      0.00
   10    6   16     -0.30      0.00
   -6    7   16     -0.46      0.00
   -5    7   16     -0.76      0.00
   -4    7   16      0.87      0.00
   -3    7   16     -0.08      0.00
   -2    7   16      0.69      0.00
   -1    7   16     -2.93      0.00
    0    7   16      3.03      0.00
    1    7   16      3.54      0.00
    2    7   16     -3.40      0.00
    3    7   16     -1.62      0.00
    4    7   16      3.33      0.00
    5    7   16      4.66      0.00
    6    7   16      0.90      0.00
    7    7   16      1.30      0.00
    8    7   16     -0.34      0.00
    9    7   16     -0.03      0.00
   10    7   16      0.39      0.00
   -6    8   16     -0.92      0.00
   -5    8   16      0.40      0.00
   -4    8   16      1.56      0.00
   -3    8   16     -0.65      0.00
   -2    8   16     -1.18      0.00
   -1    8   16     -0.94      0.00
    0    8   16      5.51      0.00
    1    8   16     -3.27      0.00
    2    8   16     -4.30      0.00
    3    8   16      0.86      0.00
    4    8   16      2.60      0.00
    5    8   16      1.93      0.00
    6    8   16     -0.15      0.00
    7    8   16      1.80      0.00
    8    8   16     -0.70      0.00
    9    8   16      0.51      0.00
   10    8   16      0.50      0.00
   -5    9   16      1.28      0.00
   -4    9   16      0.54      0.00
   -3    9   16     -2.17      0.00
   -2    9   16     -0.04      0.00
   -1    9   16      3.02      0.00
    0    9   16      2.21      0.00
    1    9   16     -6.39      0.00
    2    9   16      0.33      0.00
    3    9   16     -1.48      0.00
    4    9   16     -0.25      0.00
    5    9   16     -1.21      0.00
    6    9   16     -2.11      0.00
    7    9   16     -0.03      0.00
    8    9   16     -1.46      0.00
    9    9   16      0.49      0.00
   10    9   16      0.29      0.00
   -4   10   16     -1.13      0.00
   -3   10   16     -1.86      0.00
   -2   10   16      1.71      0.00
   -1   10   16      2.87      0.00
    0   10   16      0.00      0.00
    1   10   16     -1.44      0.00
    2   10   16      4.08      0.00
    3   10   16     -2.15      0.00
    4   10   16      1.98      0.00
    5   10   16     -2.33      0.00
    6   10   16     -1.79      0.00
    7   10   16     -0.24      0.00
    8   10   16     -1.40      0.00
    9   10   16     -0.12      0.00
   10   10   16      0.94      0.00
   -3   11   16     -0.74      0.00
   -2   11   16      1.06      0.00
   -1   11   16      0.06      0.00
    0   11   16     -1.52      0.00
    1   11   16      0.11      0.00
    2   11   16      2.81      0.00
    3   11   16     -0.26      0.00
    4   11   16      3.30      0.00
    5   11   16     -1.16      0.00
    6   11   16      0.17      0.00
    7   11   16     -0.13      0.00
    8   11   16     -1.20      0.00
    9   11   16      0.16      0.00
   10   11   16      0.78      0.00
   -2   12   16      0.65      0.00
   -1   12   16     -1.25      0.00
    0   12   16     -1.67      0.00
    1   12   16     -0.69      0.00
    2   12   16      0.10      0.00
    3   12   16      0.05      0.00
    4   12   16      2.23      0.00
    5   12   16      0.44      0.00
    6   12   16      0.02      0.00
    7   12   16      0.22      0.00
    8   12   16     -0.93      0.00
    9   12   16     -0.13      0.00
    0   13   16      0.16      0.00
    1   13   16     -0.70      0.00
    2   13   16     -0.07      0.00
    3   13   16      1.16      0.00
    4   13   16      1.23      0.00
    5   13   16      0.03      0.00
    6   13   16      0.61      0.00
    7   13   16      0.87      0.00
    8   13   16     -1.13      0.00
    2   14   16      0.69      0.00
    3   14   16      0.10      0.00
    4   14   16     -1.35      0.00
    5   14   16     -1.26      0.00
    6   14   16      0.94      0.00
    7   14   16     -1.02      0.00
   -5   -7   17     -0.60      0.00
   -4   -7   17     -1.09      0.00
   -3   -7   17      0.39      0.00
   -2   -7   17     -0.62      0.00
   -1   -7   17     -2.13      0.00
    0   -7   17     -0.13      0.00
   -6   -6   17     -0.88      0.00
   -5   -6   17     -0.44      0.00
   -4   -6   17     -1.37      0.00
   -3   -6   17      1.17      0.00
   -2   -6   17     -0.95      0.00
   -1   -6   17     -0.91      0.00
    0   -6   17      1.55      0.00
    1   -6   17      1.15      0.00
    2   -6   17     -0.62      0.00
   -7   -5   17      0.93      0.00
   -6   -5   17     -0.10      0.00
   -5   -5   17      0.35      0.00
   -4   -5   17      0.73      0.00
   -3   -5   17      2.27      0.00
   -2   -5   17     -1.64      0.00
   -1   -5   17      1.10      0.00
    0   -5   17      3.00      0.00
    1   -5   17      1.05      0.00
    2   -5   17     -0.99      0.00
    3   -5   17     -1.11      0.00
    4   -5   17      0.45      0.00
   -7   -4   17      0.84      0.00
   -6   -4   17     -1.72      0.00
   -5   -4   17      1.35      0.00
   -4   -4   17      2.06      0.00
   -3   -4   17     -0.26      0.00
   -2   -4   17     -2.31      0.00
   -1   -4   17      3.68      0.00
    0   -4   17      1.39      0.00
    1   -4   17     -0.80      0.00
    2   -4   17     -0.98      0.00
    3   -4   17      0.43      0.00
    4   -4   17      1.72      0.00
    5   -4   17      1.26      0.00
   -8   -3   17      1.00      0.00
   -7   -3   17     -0.35      0.00
   -6   -3   17     -1.28      0.00
   -5   -3   17      3.25      0.00
   -4   -3   17     -2.07      0.00
   -3   -3   17     -3.44      0.00
   -2   -3   17     -0.26      0.00
   -1   -3   17      3.76      0.00
    0   -3   17     -3.25      0.00
    1   -3   17     -1.27      0.00
    2   -3   17     -1.08      0.00
    3   -3   17      0.44      0.00
    4   -3   17      0.45      0.00
    5   -3   17      0.83      0.00
    6   -3   17     -1.21      0.00
   -8   -2   17      0.29      0.00
   -7   -2   17     -0.03      0.00
   -6   -2   17      2.11      0.00
   -5   -2   17      1.50      0.00
   -4   -2   17     -6.27      0.00
   -3   -2   17      0.30      0.00
   -2   -2   17      1.85      0.00
   -1   -2   17      1.13      0.00
    0   -2   17     -4.31      0.00
    1   -2   17      1.38      0.00
    2   -2   17     -1.81      0.00
    3   -2   17      0.33      0.00
    4   -2   17     -0.65      0.00
    5   -2   17      1.10      0.00
    6   -2   17     -2.56      0.00
    7   -2   17     -0.62      0.00
   -8   -1   17     -0.97      0.00
   -7   -1   17      3.45      0.00
   -6   -1   17      1.80      0.00
   -5   -1   17     -2.24      0.00
   -4   -1   17     -3.86      0.00
   -3   -1   17      5.31      0.00
   -2   -1   17     -0.49      0.00
   -1   -1   17     -0.14      0.00
    0   -1   17     -2.00      0.00
    1   -1   17      2.44      0.00
    2   -1   17     -2.59      0.00
    3   -1   17      2.58      0.00
    4   -1   17      0.92      0.00
    5   -1   17      2.42      0.00
    6   -1   17     -3.26      0.00
    7   -1   17      1.24      0.00
   -8    0   17     -1.69      0.00
   -7    0   17      4.32      0.00
   -6    0   17     -3.79      0.00
   -5    0   17     -2.06      0.00
   -4    0   17      0.69      0.00
   -3    0   17      5.28      0.00
   -2    0   17     -3.51      0.00
   -1    0   17      1.49      0.00
    0    0   17     -1.33      0.00
    1    0   17      0.43      0.00
    2    0   17     -2.59      0.00
    3    0   17      5.43      0.00
    4    0   17      0.96      0.00
    5    0   17      0.36      0.00
    6    0   17     -3.83      0.00
    7    0   17      3.39      0.00
    8    0   17      0.31      0.00
   -8    1   17      0.24      0.00
   -7    1   17      1.57      0.00
   -6    1   17     -7.60      0.00
   -5    1   17      1.29      0.00
   -4    1   17      0.56      0.00
   -3    1   17      1.92      0.00
   -2    1   17     -3.65      0.00
   -1    1   17      4.06      0.00
    0    1   17     -3.26      0.00
    1    1   17     -0.81      0.00
    2    1   17     -0.20      0.00
    3    1   17      5.57      0.00
    4    1   17     -4.03      0.00
    5    1   17     -2.68      0.00
    6    1   17     -1.80      0.00
    7    1   17      3.74      0.00
    8    1   17     -1.70      0.00
   -8    2   17      2.72      0.00
   -7    2   17     -1.39      0.00
   -6    2   17     -2.61      0.00
   -5    2   17      4.92      0.00
   -4    2   17     -1.36      0.00
   -3    2   17      1.75      0.00
   -2    2   17     -0.44      0.00
   -1    2   17      3.93      0.00
    0    2   17     -5.31      0.00
    1    2   17      2.87      0.00
    2    2   17      3.12      0.00
    3    2   17      1.10      0.00
    4    2   17     -7.41      0.00
    5    2   17     -0.59      0.00
    6    2   17      1.09      0.00
    7    2   17      2.35      0.00
    8    2   17     -1.61      0.00
    9    2   17      0.58      0.00
   -8    3   17      0.80      0.00
   -7    3   17     -2.68      0.00
   -6    3   17      2.95      0.00
   -5    3   17      0.91      0.00
   -4    3   17     -2.16      0.00
   -3    3   17      3.37      0.00
   -2    3   17     -0.38      0.00
   -1    3   17     -0.19      0.00
    0    3   17     -3.26      0.00
    1    3   17      7.01      0.00
    2    3   17      1.48      0.00
    3    3   17     -2.81      0.00
    4    3   17     -2.68      0.00
    5    3   17      2.69      0.00
    6    3   17      1.49      0.00
    7    3   17      0.67      0.00
    8    3   17     -1.04      0.00
    9    3   17      0.56      0.00
   -7    4   17      0.45      0.00
   -6    4   17      2.71      0.00
   -5    4   17     -3.81      0.00
   -4    4   17      0.39      0.00
   -3    4   17      0.32      0.00
   -2    4   17     -4.48      0.00
   -1    4   17     -2.39      0.00
    0    4   17      0.40      0.00
    1    4   17      4.47      0.00
    2    4   17     -2.81      0.00
    3    4   17     -2.64      0.00
    4    4   17      1.74      0.00
    5    4   17      1.85      0.00
    6    4   17      1.63      0.00
    7    4   17     -1.00      0.00
    8    4   17     -1.85      0.00
    9    4   17     -0.58      0.00
   10    4   17     -0.28      0.00
   -7    5   17      1.04      0.00
   -6    5   17     -0.30      0.00
   -5    5   17     -0.91      0.00
   -4    5   17      3.11      0.00
   -3    5   17     -1.59      0.00
   -2    5   17     -2.64      0.00
   -1    5   17     -0.35      0.00
    0    5   17      1.95      0.00
    1    5   17      0.74      0.00
    2    5   17     -3.57      0.00
    3    5   17     -1.02      0.00
    4    5   17      2.25      0.00
    5    5   17      0.72      0.00
    6    5   17      1.09      0.00
    7    5   17     -2.27      0.00
    8    5   17     -0.96      0.00
    9    5   17     -0.36      0.00
   10    5   17     -0.34      0.00
   -6    6   17     -1.62      0.00
   -5    6   17      0.70      0.00
   -4    6   17      0.94      0.00
   -3    6   17      0.25      0.00
   -2    6   17      0.16      0.00
   -1    6   17      1.90      0.00
    0    6   17      2.90      0.00
    1    6   17     -1.90      0.00
    2    6   17     -3.12      0.00
    3    6   17      1.23      0.00
    4    6   17      2.83      0.00
    5    6   17      0.61      0.00
    6    6   17      0.14      0.00
    7    6   17     -1.03      0.00
    8    6   17      0.44      0.00
    9    6   17      0.60      0.00
   10    6   17      0.77      0.00
   -6    7   17      0.14      0.00
   -5    7   17      0.60      0.00
   -4    7   17     -0.75      0.00
   -3    7   17      0.23      0.00
   -2    7   17     -0.90      0.00
   -1    7   17      4.16      0.00
    0    7   17      0.65      0.00
    1    7   17     -4.36      0.00
    2    7   17     -0.63      0.00
    3    7   17      2.11      0.00
    4    7   17      0.79      0.00
    5    7   17     -0.69      0.00
    6    7   17      0.18      0.00
    7    7   17     -0.35      0.00
    8    7   17      0.22      0.00
    9    7   17      1.20      0.00
   10    7   17      0.55      0.00
   -5    8   17      0.24      0.00
   -4    8   17     -1.23      0.00
   -3    8   17     -0.29      0.00
   -2    8   17      0.40      0.00
   -1    8   17      3.31      0.00
    0    8   17     -4.17      0.00
    1    8   17     -1.35      0.00
    2    8   17      1.63      0.00
    3    8   17     -0.18      0.00
    4    8   17     -1.38      0.00
    5    8   17     -1.80      0.00
    6    8   17     -0.98      0.00
    7    8   17     -2.02      0.00
    8    8   17      0.30      0.00
    9    8   17      0.73      0.00
   10    8   17     -0.06      0.00
   -4    9   17     -1.47      0.00
   -3    9   17      0.84      0.00
   -2    9   17      1.12      0.00
   -1    9   17     -0.49      0.00
    0    9   17     -2.99      0.00
    1    9   17      3.89      0.00
    2    9   17     -0.05      0.00
    3    9   17      1.04      0.00
    4    9   17     -0.35      0.00
    5    9   17     -1.67      0.00
    6    9   17     -1.43      0.00
    7    9   17     -1.91      0.00
    8    9   17      0.62      0.00
    9    9   17     -0.06      0.00
   10    9   17      0.53      0.00
   -3   10   17      0.97      0.00
   -2   10   17     -0.72      0.00
   -1   10   17     -2.12      0.00
    0   10   17      0.02      0.00
    1   10   17      3.09      0.00
    2   10   17     -1.21      0.00
    3   10   17      4.88      0.00
    4   10   17     -0.21      0.00
    5   10   17      0.43      0.00
    6   10   17     -0.10      0.00
    7   10   17     -0.60      0.00
    8   10   17      0.68      0.00
    9   10   17      0.20      0.00
   -2   11   17     -0.77      0.00
   -1   11   17     -1.48      0.00
    0   11   17     -0.11      0.00
    1   11   17     -0.36      0.00
    2   11   17     -1.76      0.00
    3   11   17      3.24      0.00
    4   11   17     -1.71      0.00
    5   11   17      1.16      0.00
    6   11   17     -0.04      0.00
    7   11   17      0.35      0.00
    8   11   17      0.77      0.00
    9   11   17      0.01      0.00
   -1   12   17      0.03      0.00
    0   12   17      0.58      0.00
    1   12   17     -0.53      0.00
    2   12   17     -0.99      0.00
    3   12   17      0.77      0.00
    4   12   17     -2.41      0.00
    5   12   17     -0.45      0.00
    6   12   17      0.72      0.00
    7   12   17      0.80      0.00
    8   12   17      0.61      0.00
    1   13   17      0.61      0.00
    2   13   17      0.46      0.00
    3   13   17     -0.59      0.00
    4   13   17     -2.50      0.00
    5   13   17     -0.63      0.00
    6   13   17      0.71      0.00
    7   13   17     -0.31      0.00
    4   14   17     -1.07      0.00
    5   14   17     -0.18      0.00
   -5   -6   18      0.34      0.00
   -4   -6   18      1.77      0.00
   -3   -6   18     -0.83      0.00
   -2   -6   18      0.38      0.00
   -1   -6   18      1.59      0.00
    0   -6   18      0.59      0.00
    1   -6   18     -0.13      0.00
   -6   -5   18      0.68      0.00
   -5   -5   18      1.24      0.00
   -4   -5   18      1.36      0.00
   -3   -5   18     -1.70      0.00
   -2   -5   18      1.68      0.00
   -1   -5   18      1.24      0.00
    0   -5   18     -0.53      0.00
    1   -5   18     -0.55      0.00
    2   -5   18     -0.06      0.00
    3   -5   18      0.92      0.00
   -7   -4   18     -1.25      0.00
   -6   -4   18      1.09      0.00
   -5   -4   18     -0.11      0.00
   -4   -4   18     -2.08      0.00
   -3   -4   18     -1.68      0.00
   -2   -4   18      2.52      0.00
   -1   -4   18     -1.64      0.00
    0   -4   18     -1.69      0.00
    1   -4   18     -0.55      0.00
    2   -4   18      0.10      0.00
    3   -4   18      0.58      0.00
    4   -4   18      0.58      0.00
   -7   -3   18      0.45      0.00
   -6   -3   18      2.12      0.00
   -5   -3   18     -2.95      0.00
   -4   -3   18     -1.67      0.00
   -3   -3   18      1.15      0.00
   -2   -3   18      1.29      0.00
   -1   -3   18     -4.04      0.00
    0   -3   18      0.34      0.00
    1   -3   18     -0.84      0.00
    2   -3   18     -0.69      0.00
    3   -3   18     -0.47      0.00
    4   -3   18      0.40      0.00
    5   -3   18     -1.58      0.00
   -7   -2   18      1.52      0.00
   -6   -2   18     -0.56      0.00
   -5   -2   18     -3.21      0.00
   -4   -2   18      3.38      0.00
   -3   -2   18      1.45      0.00
   -2   -2   18     -0.29      0.00
   -1   -2   18     -2.08      0.00
    0   -2   18      2.94      0.00
    1   -2   18     -1.98      0.00
    2   -2   18      0.99      0.00
    3   -2   18      0.93      0.00
    4   -2   18      1.56      0.00
    5   -2   18     -2.36      0.00
    6   -2   18      0.73      0.00
   -7   -1   18     -1.28      0.00
   -6   -1   18     -2.59      0.00
   -5   -1   18      0.35      0.00
   -4   -1   18      4.72      0.00
   -3   -1   18     -1.80      0.00
   -2   -1   18      0.80      0.00
   -1   -1   18     -0.35      0.00
    0   -1   18      1.47      0.00
    1   -1   18     -2.49      0.00
    2   -1   18      3.95      0.00
    3   -1   18      1.41      0.00
    4   -1   18      0.90      0.00
    5   -1   18     -3.25      0.00
    6   -1   18      2.56      0.00
    7   -1   18      0.59      0.00
   -7    0   18     -4.94      0.00
   -6    0   18     -0.41      0.00
   -5    0   18      1.30      0.00
   -4    0   18      1.39      0.00
   -3    0   18     -2.85      0.00
   -2    0   18      3.13      0.00
   -1    0   18     -1.77      0.00
    0    0   18     -0.20      0.00
    1    0   18     -0.70      0.00
    2    0   18      4.80      0.00
    3    0   18     -2.17      0.00
    4    0   18     -2.30      0.00
    5    0   18     -3.16      0.00
    6    0   18      3.66      0.00
    7    0   18     -1.10      0.00
   -7    1   18     -3.53      0.00
   -6    1   18      3.97      0.00
   -5    1   18     -0.79      0.00
   -4    1   18     -0.06      0.00
   -3    1   18     -1.41      0.00
   -2    1   18      2.97      0.00
   -1    1   18     -4.43      0.00
    0    1   18      1.61      0.00
    1    1   18      2.10      0.00
    2    1   18      2.69      0.00
    3    1   18     -6.39      0.00
    4    1   18     -1.80      0.00
    5    1   18     -0.02      0.00
    6    1   18      3.13      0.00
    7    1   18     -2.45      0.00
    8    1   18      0.32      0.00
   -7    2   18      0.43      0.00
   -6    2   18      4.28      0.00
   -5    2   18     -2.02      0.00
   -4    2   18      2.59      0.00
   -3    2   18     -0.25      0.00
   -2    2   18      0.31      0.00
   -1    2   18     -4.74      0.00
    0    2   18      5.58      0.00
    1    2   18      1.92      0.00
    2    2   18     -1.07      0.00
    3    2   18     -4.84      0.00
    4    2   18      3.20      0.00
    5    2   18      1.69      0.00
    6    2   18      1.06      0.00
    7    2   18     -1.71      0.00
    8    2   18      0.97      0.00
   -7    3   18      1.91      0.00
   -6    3   18     -1.15      0.00
   -5    3   18     -1.10      0.00
   -4    3   18      2.65      0.00
   -3    3   18     -3.16      0.00
   -2    3   18     -2.24      0.00
   -1    3   18     -1.59      0.00
    0    3   18      5.62      0.00
    1    3   18     -2.80      0.00
    2    3   18     -2.67      0.00
    3    3   18      0.37      0.00
    4    3   18      4.21      0.00
    5    3   18      0.83      0.00
    6    3   18      0.01      0.00
    7    3   18     -1.10      0.00
    8    3   18     -0.31      0.00
    9    3   18     -0.36      0.00
   -7    4   18      0.57      0.00
   -6    4   18     -2.29      0.00
   -5    4   18      2.99      0.00
   -4    4   18     -0.23      0.00
   -3    4   18     -3.56      0.00
   -2    4   18     -0.02      0.00
   -1    4   18      1.37      0.00
    0    4   18      1.41      0.00
    1    4   18     -5.07      0.00
    2    4   18     -1.36      0.00
    3    4   18      1.41      0.00
    4    4   18      0.34      0.00
    5    4   18      0.45      0.00
    6    4   18     -0.99      0.00
    7    4   18     -0.65      0.00
    8    4   18     -0.36      0.00
    9    4   18      0.04      0.00
   -6    5   18     -0.06      0.00
   -5    5   18      2.53      0.00
   -4    5   18     -1.87      0.00
   -3    5   18      0.71      0.00
   -2    5   18      2.85      0.00
   -1    5   18      2.31      0.00
    0    5   18     -0.49      0.00
    1    5   18     -2.98      0.00
    2    5   18      0.37      0.00
    3    5   18      0.95      0.00
    4    5   18     -0.80      0.00
    5    5   18      0.11      0.00
    6    5   18     -2.13      0.00
    7    5   18      0.45      0.00
    8    5   18      0.69      0.00
    9    5   18      1.27      0.00
   -6    6   18      0.83      0.00
   -5    6   18     -0.83      0.00
   -4    6   18     -1.58      0.00
   -3    6   18      0.37      0.00
   -2    6   18      1.92      0.00
   -1    6   18      1.42      0.00
    0    6   18     -1.76      0.00
    1    6   18     -0.98      0.00
    2    6   18      1.73      0.00
    3    6   18      0.65      0.00
    4    6   18     -0.47      0.00
    5    6   18     -0.33      0.00
    6    6   18     -1.01      0.00
    7    6   18      0.60      0.00
    8    6   18      0.92      0.00
    9    6   18      1.20      0.00
   -5    7   18     -0.75      0.00
   -4    7   18     -0.39      0.00
   -3    7   18     -1.07      0.00
   -2    7   18      1.64      0.00
   -1    7   18     -1.92      0.00
    0    7   18     -2.07      0.00
    1    7   18      2.04      0.00
    2    7   18      1.43      0.00
    3    7   18     -0.73      0.00
    4    7   18     -0.49      0.00
    5    7   18     -0.84      0.00
    6    7   18     -0.90      0.00
    7    7   18     -0.03      0.00
    8    7   18      1.24      0.00
    9    7   18     -0.24      0.00
   -5    8   18     -0.52      0.00
   -4    8   18      0.34      0.00
   -3    8   18     -0.05      0.00
   -2    8   18      0.67      0.00
   -1    8   18     -3.70      0.00
    0    8   18      1.59      0.00
    1    8   18      2.10      0.00
    2    8   18     -0.27      0.00
    3    8   18      0.54      0.00
    4    8   18      0.26      0.00
    5    8   18     -1.40      0.00
    6    8   18     -1.14      0.00
    7    8   18      0.73      0.00
    8    8   18      0.54      0.00
    9    8   18     -0.86      0.00
   -4    9   18      0.75      0.00
   -3    9   18     -0.39      0.00
   -2    9   18     -0.75      0.00
   -1    9   18     -0.94      0.00
    0    9   18      2.91      0.00
    1    9   18     -1.61      0.00
    2    9   18      1.32      0.00
    3    9   18      1.50      0.00
    4    9   18      0.23      0.00
    5    9   18     -0.36      0.00
    6    9   18      0.76      0.00
    7    9   18      1.69      0.00
    8    9   18     -0.35      0.00
    9    9   18     -0.12      0.00
   -3   10   18     -0.44      0.00
   -2   10   18      0.17      0.00
   -1   10   18      0.82      0.00
    0   10   18     -0.07      0.00
    1   10   18     -2.88      0.00
    2   10   18      2.52      0.00
    3   10   18     -2.05      0.00
    4   10   18      0.16      0.00
    5   10   18      0.10      0.00
    6   10   18      1.81      0.00
    8   10   18     -0.24      0.00
    9   10   18     -0.14      0.00
   -2   11   18      0.78      0.00
   -1   11   18      0.94      0.00
    0   11   18     -0.73      0.00
    1   11   18     -1.24      0.00
    2   11   18      1.09      0.00
    3   11   18     -4.42      0.00
    4   11   18     -0.22      0.00
    5   11   18     -0.95      0.00
    6   11   18      1.81      0.00
    7   11   18      0.75      0.00
    8   11   18     -0.21      0.00
    0   12   18      0.11      0.00
    1   12   18      0.76      0.00
    2   12   18      1.06      0.00
    3   12   18     -2.91      0.00
    4   12   18     -0.01      0.00
    5   12   18      0.06      0.00
    6   12   18      0.58      0.00
    7   12   18     -0.31      0.00
    8   12   18      0.23      0.00
    2   13   18      0.17      0.00
    3   13   18     -0.91      0.00
    4   13   18      1.36      0.00
    5   13   18      0.59      0.00
    6   13   18     -1.36      0.00
   -4   -5   19     -1.73      0.00
   -3   -5   19      1.18      0.00
   -2   -5   19     -0.49      0.00
   -1   -5   19     -0.98      0.00
    0   -5   19     -0.48      0.00
    1   -5   19     -0.35      0.00
   -5   -4   19     -1.52      0.00
   -4   -4   19     -0.51      0.00
   -3   -4   19      1.17      0.00
   -2   -4   19     -2.48      0.00
   -1   -4   19     -0.58      0.00
    0   -4   19     -0.22      0.00
    1   -4   19     -0.69      0.00
    2   -4   19     -0.13      0.00
    3   -4   19      0.24      0.00
   -6   -3   19     -1.65      0.00
   -5   -3   19      1.00      0.00
   -4   -3   19      1.79      0.00
   -3   -3   19      0.21      0.00
   -2   -3   19     -1.93      0.00
   -1   -3   19      2.39      0.00
    0   -3   19     -0.65      0.00
    1   -3   19     -0.11      0.00
    2   -3   19      0.85      0.00
    3   -3   19      0.93      0.00
    4   -3   19     -1.35      0.00
   -6   -2   19     -0.97      0.00
   -5   -2   19      3.00      0.00
   -4   -2   19     -0.44      0.00
   -3   -2   19     -0.32      0.00
   -2   -2   19      0.33      0.00
   -1   -2   19      2.70      0.00
    0   -2   19     -2.10      0.00
    1   -2   19      2.68      0.00
    2   -2   19      2.02      0.00
    3   -2   19      0.81      0.00
    4   -2   19     -2.13      0.00
    5   -2   19      1.34      0.00
   -7   -1   19     -1.06      0.00
   -6   -1   19      1.18      0.00
   -5   -1   19      1.00      0.00
   -4   -1   19     -2.84      0.00
   -3   -1   19      1.49      0.00
   -2   -1   19     -0.26      0.00
   -1   -1   19      0.03      0.00
    0   -1   19     -1.71      0.00
    1   -1   19      4.15      0.00
    2   -1   19     -0.78      0.00
    3   -1   19     -1.68      0.00
    4   -1   19     -2.77      0.00
    5   -1   19      2.56      0.00
    6   -1   19     -0.56      0.00
   -7    0   19      2.03      0.00
   -6    0   19      0.65      0.00
   -5    0   19     -0.92      0.00
   -4    0   19     -1.45      0.00
   -3    0   19      2.11      0.00
   -2    0   19     -3.11      0.00
   -1    0   19      0.22      0.00
    0    0   19      0.82      0.00
    1    0   19      2.87      0.00
    2    0   19     -4.48      0.00
    3    0   19     -2.25      0.00
    4    0   19     -0.98      0.00
    5    0   19      3.03      0.00
    6    0   19     -2.13      0.00
   -7    1   19      3.80      0.00
   -6    1   19     -0.98      0.00
   -5    1   19      1.30      0.00
   -4    1   19      0.40      0.00
   -3    1   19      0.33      0.00
   -2    1   19     -4.38      0.00
   -1    1   19      3.14      0.00
    0    1   19      1.31      0.00
    1    1   19     -0.09      0.00
    2    1   19     -4.97      0.00
    3    1   19      1.66      0.00
    4    1   19      1.75      0.00
    5    1   19      2.14      0.00
    6    1   19     -2.00      0.00
    7    1   19      1.25      0.00
   -7    2   19      1.08      0.00
   -6    2   19     -2.30      0.00
   -5    2   19      2.95      0.00
   -4    2   19     -1.10      0.00
   -3    2   19     -1.13      0.00
   -2    2   19     -2.07      0.00
   -1    2   19      5.31      0.00
    0    2   19     -1.96      0.00
    1    2   19     -2.39      0.00
    2    2   19     -1.81      0.00
    3    2   19      4.76      0.00
    4    2   19      0.81      0.00
    5    2   19      0.81      0.00
    6    2   19     -0.68      0.00
    7    2   19      0.94      0.00
    8    2   19     -0.57      0.00
   -6    3   19     -0.33      0.00
   -5    3   19      1.07      0.00
   -4    3   19     -3.78      0.00
   -3    3   19     -0.25      0.00
   -2    3   19      1.14      0.00
   -1    3   19      3.34      0.00
    0    3   19     -5.25      0.00
    1    3   19     -1.46      0.00
    2    3   19      0.59      0.00
    3    3   19      1.83      0.00
    4    3   19     -1.23      0.00
    5    3   19      0.50      0.00
    6    3   19     -0.38      0.00
    7    3   19     -0.44      0.00
    8    3   19     -0.29      0.00
   -6    4   19      2.25      0.00
   -5    4   19     -1.62      0.00
   -4    4   19     -1.33      0.00
   -3    4   19      2.78      0.00
   -2    4   19      2.18      0.00
   -1    4   19      0.61      0.00
    0    4   19     -3.28      0.00
    1    4   19      1.28      0.00
    2    4   19      0.63      0.00
    3    4   19     -1.06      0.00
    4    4   19     -0.52      0.00
    5    4   19     -1.09      0.00
    6    4   19     -0.78      0.00
    7    4   19     -0.22      0.00
    8    4   19      1.18      0.00
   -6    5   19      0.24      0.00
   -5    5   19     -2.84      0.00
   -4    5   19      1.26      0.00
   -3    5   19      1.53      0.00
   -2    5   19      0.56      0.00
   -1    5   19     -0.37      0.00
    0    5   19     -0.44      0.00
    1    5   19      2.19      0.00
    2    5   19      1.00      0.00
    3    5   19      0.13      0.00
    4    5   19      0.85      0.00
    5    5   19     -1.75      0.00
    6    5   19      0.26      0.00
    7    5   19      0.05      0.00
    8    5   19      1.22      0.00
    9    5   19     -0.08      0.00
   -5    6   19     -0.65      0.00
   -4    6   19      0.63      0.00
   -3    6   19     -0.61      0.00
   -2    6   19     -1.18      0.00
   -1    6   19     -1.63      0.00
    0    6   19      0.34      0.00
    1    6   19      1.57      0.00
    2    6   19      0.36      0.00
    3    6   19      0.69      0.00
    4    6   19      0.37      0.00
    5    6   19     -0.64      0.00
    6    6   19      0.90      0.00
    7    6   19      0.56      0.00
    8    6   19      0.14      0.00
    9    6   19     -1.25      0.00
   -5    7   19      0.71      0.00
   -4    7   19      0.39      0.00
   -3    7   19      0.64      0.00
   -2    7   19     -1.99      0.00
   -1    7   19     -0.35      0.00
    0    7   19      1.31      0.00
    1    7   19     -0.43      0.00
    2    7   19     -0.04      0.00
    3    7   19      1.21      0.00
    4    7   19     -0.83      0.00
    5    7   19     -0.36      0.00
    6    7   19      0.60      0.00
    7    7   19      1.03      0.00
    8    7   19     -1.24      0.00
    9    7   19     -0.87      0.00
   -4    8   19      0.17      0.00
   -3    8   19      0.62      0.00
   -2    8   19     -1.24      0.00
   -1    8   19      2.40      0.00
    0    8   19     -0.80      0.00
    1    8   19     -1.90      0.00
    2    8   19      1.39      0.00
    3    8   19      0.51      0.00
    4    8   19     -1.52      0.00
    5    8   19      1.00      0.00
    6    8   19      1.42      0.00
    8    8   19     -1.49      0.00
    9    8   19      0.24      0.00
   -3    9   19      0.64      0.00
   -2    9   19      0.45      0.00
   -1    9   19      1.41      0.00
    0    9   19     -2.98      0.00
    1    9   19      0.53      0.00
    2    9   19      0.47      0.00
    3    9   19     -1.70      0.00
    4    9   19     -1.07      0.00
    5    9   19      2.21      0.00
    6    9   19      1.25      0.00
    7    9   19     -0.69      0.00
    8    9   19     -0.20      0.00
   -2   10   19      0.17      0.00
   -1   10   19     -0.43      0.00
    0   10   19     -1.14      0.00
    1   10   19      2.24      0.00
    2   10   19     -2.34      0.00
    3   10   19     -1.08      0.00
    4   10   19     -1.16      0.00
    5   10   19      1.54      0.00
    6   10   19     -0.28      0.00
    7   10   19     -0.96      0.00
    8   10   19      0.22      0.00
   -1   11   19     -0.24      0.00
    0   11   19      0.78      0.00
    1   11   19      1.90      0.00
    2   11   19     -1.99      0.00
    3   11   19      1.13      0.00
    4   11   19     -0.98      0.00
    5   11   19      1.35      0.00
    6   11   19     -1.76      0.00
    7   11   19     -1.03      0.00
    8   11   19      0.34      0.00
    1   12   19      0.87      0.00
    2   12   19     -0.78      0.00
    3   12   19      2.42      0.00
    4   12   19      0.75      0.00
    5   12   19      0.55      0.00
    6   12   19     -1.87      0.00
    7   12   19     -0.47      0.00
   -4   -4   20      0.76      0.00
   -3   -4   20     -1.17      0.00
   -2   -4   20      1.01      0.00
   -1   -4   20      0.22      0.00
    0   -4   20     -0.14      0.00
    1   -4   20      0.54      0.00
   -5   -3   20      0.49      0.00
   -4   -3   20     -0.16      0.00
   -3   -3   20      0.12      0.00
   -2   -3   20      2.45      0.00
   -1   -3   20     -0.79      0.00
    0   -3   20      1.12      0.00
    1   -3   20      1.68      0.00
    2   -3   20      0.51      0.00
    3   -3   20     -1.25      0.00
   -5   -2   20     -1.89      0.00
   -4   -2   20     -0.03      0.00
   -3   -2   20      0.43      0.00
   -2   -2   20      0.28      0.00
   -1   -2   20     -2.36      0.00
    0   -2   20      2.77      0.00
    1   -2   20      0.11      0.00
    2   -2   20     -1.12      0.00
    3   -2   20     -1.63      0.00
    4   -2   20      1.41      0.00
   -6   -1   20     -0.38      0.00
   -5   -1   20     -1.29      0.00
   -4   -1   20      1.80      0.00
   -3   -1   20     -1.40      0.00
   -2   -1   20     -1.10      0.00
   -1   -1   20     -0.72      0.00
    0   -1   20      2.76      0.00
    1   -1   20     -3.38      0.00
    2   -1   20     -1.96      0.00
    3   -1   20     -0.92      0.00
    4   -1   20      2.04      0.00
    5   -1   20     -1.05      0.00
   -6    0   20     -0.08      0.00
   -5    0   20      0.89      0.00
   -4    0   20      1.05      0.00
   -3    0   20     -2.94      0.00
   -2    0   20      1.21      0.00
   -1    0   20      1.19      0.00
    0    0   20      0.81      0.00
    1    0   20     -4.15      0.00
    2    0   20      0.60      0.00
    3    0   20      1.16      0.00
    4    0   20      2.02      0.00
    5    0   20     -1.47      0.00
    6    0   20      0.90      0.00
   -6    1   20      1.35      0.00
   -5    1   20      0.22      0.00
   -4    1   20     -0.61      0.00
   -3    1   20     -1.45      0.00
   -2    1   20      3.95      0.00
   -1    1   20     -0.41      0.00
    0    1   20     -1.46      0.00
    1    1   20     -2.47      0.00
    2    1   20      3.37      0.00
    3    1   20      1.13      0.00
    4    1   20      0.99      0.00
    5    1   20     -0.69      0.00
    6    1   20      1.49      0.00
   -6    2   20      1.20      0.00
   -5    2   20     -2.70      0.00
   -4    2   20     -0.61      0.00
   -3    2   20      0.88      0.00
   -2    2   20      3.90      0.00
   -1    2   20     -3.47      0.00
    0    2   20     -1.10      0.00
    1    2   20     -0.13      0.00
    2    2   20      2.83      0.00
    3    2   20     -1.39      0.00
    4    2   20      0.60      0.00
    5    2   20     -0.48      0.00
    6    2   20     -0.23      0.00
    7    2   20     -1.13      0.00
   -6    3   20      0.50      0.00
   -5    3   20     -2.45      0.00
   -4    3   20      1.57      0.00
   -3    3   20      1.39      0.00
   -2    3   20      1.07      0.00
   -1    3   20     -3.93      0.00
    0    3   20      1.78      0.00
    1    3   20      0.82      0.00
    2    3   20      0.31      0.00
    3    3   20     -1.65      0.00
    4    3   20      0.62      0.00
    5    3   20     -1.76      0.00
    6    3   20     -1.27      0.00
    7    3   20      0.13      0.00
   -5    4   20      0.49      0.00
   -4    4   20      2.20      0.00
   -3    4   20     -0.05      0.00
   -2    4   20     -0.70      0.00
   -1    4   20     -1.36      0.00
    0    4   20      3.02      0.00
    1    4   20      0.67      0.00
    2    4   20      0.49      0.00
    3    4   20      0.99      0.00
    4    4   20     -0.54      0.00
    5    4   20     -1.60      0.00
    6    4   20     -0.31      0.00
    7    4   20      1.28      0.00
    8    4   20      0.01      0.00
   -5    5   20      1.60      0.00
   -4    5   20     -0.64      0.00
   -3    5   20     -1.34      0.00
   -2    5   20     -1.16      0.00
   -1    5   20     -0.59      0.00
    0    5   20      1.10      0.00
    1    5   20      0.07      0.00
    2    5   20      1.00      0.00
    3    5   20      1.34      0.00
    4    5   20     -1.10      0.00
    5    5   20      0.92      0.00
    6    5   20      0.61      0.00
    7    5   20      0.97      0.00
    8    5   20     -1.06      0.00
   -4    6   20     -0.84      0.00
   -3    6   20     -0.25      0.00
   -2    6   20     -0.53      0.00
   -1    6   20     -0.12      0.00
    0    6   20     -0.38      0.00
    1    6   20     -0.66      0.00
    2    6   20      0.39      0.00
    3    6   20     -0.65      0.00
    4    6   20     -1.11      0.00
    5    6   20      1.22      0.00
    6    6   20      0.59      0.00
    7    6   20      0.10      0.00
    8    6   20     -1.13      0.00
   -4    7   20      0.17      0.00
   -3    7   20      0.13      0.00
   -2    7   20      1.37      0.00
   -1    7   20      0.25      0.00
    0    7   20     -1.38      0.00
    1    7   20      0.35      0.00
    2    7   20      0.42      0.00
    3    7   20     -2.18      0.00
    4    7   20     -0.20      0.00
    5    7   20      0.73      0.00
    6    7   20      0.18      0.00
    7    7   20     -1.40      0.00
    8    7   20      0.12      0.00
   -3    8   20     -0.03      0.00
   -2    8   20      1.74      0.00
   -1    8   20     -1.79      0.00
    0    8   20     -0.42      0.00
    1    8   20      2.09      0.00
    2    8   20     -1.44      0.00
    3    8   20     -2.56      0.00
    4    8   20      1.52      0.00
    5    8   20      0.52      0.00
    6    8   20     -0.52      0.00
    7    8   20     -1.10      0.00
    8    8   20      1.19      0.00
   -2    9   20      0.10      0.00
   -1    9   20     -1.86      0.00
    0    9   20      2.55      0.00
    1    9   20      1.19      0.00
    2    9   20     -2.22      0.00
    3    9   20     -0.72      0.00
    4    9   20      1.80      0.00
    6    9   20     -1.09      0.00
    7    9   20      0.11      0.00
    8    9   20      0.68      0.00
   -1   10   20     -0.13      0.00
    0   10   20      2.38      0.00
    1   10   20     -0.77      0.00
    2   10   20      0.04      0.00
    3   10   20      0.33      0.00
    4   10   20      1.64      0.00
    5   10   20     -1.82      0.00
    6   10   20     -1.01      0.00
    7   10   20      0.22      0.00
    0   11   20      0.60      0.00
    1   11   20     -1.09      0.00
    2   11   20      1.27      0.00
    3   11   20      0.23      0.00
    4   11   20      2.18      0.00
    5   11   20     -1.85      0.00
    6   11   20     -0.01      0.00
    2   12   20      0.88      0.00
    3   12   20     -0.07      0.00
    4   12   20      1.04      0.00
    5   12   20     -0.91      0.00
   -2   -3   21     -1.39      0.00
   -1   -3   21      0.87      0.00
    0   -3   21      0.44      0.00
   -4   -2   21     -0.21      0.00
   -3   -2   21     -1.02      0.00
   -2   -2   21     -1.36      0.00
   -1   -2   21      1.83      0.00
    0   -2   21     -1.91      0.00
    1   -2   21     -1.36      0.00
    2   -2   21     -0.49      0.00
   -4   -1   21     -1.35      0.00
   -3   -1   21      0.24      0.00
   -2   -1   21      1.20      0.00
   -1   -1   21      1.72      0.00
    0   -1   21     -3.17      0.00
    1   -1   21      0.38      0.00
    2   -1   21      0.31      0.00
    3   -1   21      0.82      0.00
    4   -1   21     -0.86      0.00
   -5    0   21     -0.30      0.00
   -4    0   21     -1.38      0.00
   -3    0   21      2.43      0.00
   -2    0   21      0.98      0.00
   -1    0   21     -0.46      0.00
    0    0   21     -2.28      0.00
    1    0   21      2.44      0.00
    2    0   21      0.52      0.00
    3    0   21      0.61      0.00
    4    0   21     -0.41      0.00
   -5    1   21     -1.00      0.00
   -4    1   21      0.23      0.00
   -3    1   21      2.56      0.00
   -2    1   21     -1.74      0.00
   -1    1   21     -1.36      0.00
    0    1   21     -0.68      0.00
    1    1   21      2.36      0.00
    2    1   21     -0.81      0.00
    3    1   21      0.38      0.00
    4    1   21     -0.12      0.00
    5    1   21      0.01      0.00
   -5    2   21      0.49      0.00
   -4    2   21      0.62      0.00
   -3    2   21      0.54      0.00
   -2    2   21     -3.44      0.00
   -1    2   21      0.70      0.00
    0    2   21      0.67      0.00
    1    2   21      1.31      0.00
    2    2   21     -1.47      0.00
    3    2   21      1.05      0.00
    4    2   21     -1.12      0.00
    5    2   21     -1.45      0.00
    6    2   21     -0.81      0.00
   -5    3   21      1.93      0.00
   -4    3   21     -0.14      0.00
   -3    3   21     -0.87      0.00
   -2    3   21     -2.33      0.00
   -1    3   21      2.74      0.00
    0    3   21      0.22      0.00
    1    3   21      0.75      0.00
    2    3   21      0.03      0.00
    3    3   21      1.00      0.00
    4    3   21     -2.40      0.00
    5    3   21     -0.48      0.00
    6    3   21      1.15      0.00
   -4    4   21     -1.16      0.00
   -3    4   21     -0.51      0.00
   -2    4   21     -0.37      0.00
   -1    4   21      1.79      0.00
    0    4   21     -1.04      0.00
    1    4   21      0.82      0.00
    2    4   21      0.87      0.00
    3    4   21     -0.61      0.00
    4    4   21     -0.89      0.00
    5    4   21      1.53      0.00
    6    4   21      1.57      0.00
    7    4   21     -0.30      0.00
   -4    5   21     -0.16      0.00
   -3    5   21      0.30      0.00
   -2    5   21      0.12      0.00
   -1    5   21      0.07      0.00
    0    5   21     -1.23      0.00
    1    5   21      0.01      0.00
    2    5   21     -0.85      0.00
    3    5   21     -1.98      0.00
    4    5   21      1.04      0.00
    5    5   21      1.12      0.00
    6    5   21      0.81      0.00
    7    5   21     -0.97      0.00
   -4    6   21      1.22      0.00
   -3    6   21      0.71      0.00
   -2    6   21      0.60      0.00
   -1    6   21     -0.05      0.00
    0    6   21      0.00      0.00
    1    6   21      0.17      0.00
    2    6   21     -1.85      0.00
    3    6   21     -1.43      0.00
    4    6   21      0.91      0.00
    5    6   21     -0.36      0.00
    6    6   21     -0.33      0.00
    7    6   21     -0.74      0.00
   -3    7   21      0.45      0.00
   -2    7   21     -0.48      0.00
   -1    7   21     -0.27      0.00
    0    7   21      1.64      0.00
    1    7   21      0.04      0.00
    2    7   21     -2.08      0.00
    3    7   21      0.69      0.00
    4    7   21      0.79      0.00
    5    7   21     -0.44      0.00
    6    7   21     -0.94      0.00
    7    7   21      0.47      0.00
   -2    8   21     -1.87      0.00
   -1    8   21      1.15      0.00
    0    8   21      2.07      0.00
    1    8   21     -1.73      0.00
    2    8   21     -0.81      0.00
    3    8   21      2.36      0.00
    4    8   21     -0.22      0.00
    5    8   21     -0.51      0.00
    6    8   21     -0.34      0.00
    7    8   21      1.28      0.00
   -1    9   21      2.22      0.00
    0    9   21     -0.09      0.00
    1    9   21     -1.73      0.00
    2    9   21      1.50      0.00
    3    9   21      2.20      0.00
    4    9   21     -1.03      0.00
    5    9   21     -0.13      0.00
    6    9   21      0.07      0.00
    7    9   21      0.44      0.00
    0   10   21     -1.68      0.00
    1   10   21     -0.66      0.00
    2   10   21      0.76      0.00
    3   10   21      1.39      0.00
    4   10   21     -0.96      0.00
    5   10   21      0.62      0.00
    6   10   21      0.37      0.00
    2   11   21     -0.33      0.00
    3   11   21      1.06      0.00
    4   11   21     -1.56      0.00
    5   11   21      1.27      0.00
   -2   -1   22      0.16      0.00
   -1   -1   22     -1.80      0.00
    0   -1   22      1.80      0.00
    1   -1   22     -0.08      0.00
    2   -1   22      0.24      0.00
   -3    0   22     -1.13      0.00
   -2    0   22     -1.73      0.00
   -1    0   22     -1.10      0.00
    0    0   22      1.82      0.00
    1    0   22     -0.82      0.00
    2    0   22      0.89      0.00
    3    0   22      0.65      0.00
   -3    1   22     -2.22      0.00
   -2    1   22     -0.53      0.00
   -1    1   22      0.53      0.00
    0    1   22      1.23      0.00
    1    1   22     -0.90      0.00
    2    1   22      1.20      0.00
    3    1   22     -0.11      0.00
    4    1   22     -1.13      0.00
   -4    2   22     -0.36      0.00
   -3    2   22     -1.40      0.00
   -2    2   22      1.75      0.00
   -1    2   22      0.78      0.00
    0    2   22      0.85      0.00
    1    2   22     -0.28      0.00
    2    2   22      1.17      0.00
    3    2   22     -1.67      0.00
    4    2   22     -1.10      0.00
    5    2   22      0.66      0.00
   -4    3   22      0.15      0.00
   -3    3   22      0.15      0.00
   -2    3   22      2.20      0.00
   -1    3   22     -0.91      0.00
    0    3   22      0.43      0.00
    1    3   22     -0.17      0.00
    2    3   22     -0.03      0.00
    3    3   22     -2.10      0.00
    4    3   22      1.05      0.00
    5    3   22      1.61      0.00
   -3    4   22      0.56      0.00
   -2    4   22      0.74      0.00
   -1    4   22     -1.65      0.00
    0    4   22      0.36      0.00
    1    4   22     -1.06      0.00
    2    4   22     -1.50      0.00
    3    4   22     -0.35      0.00
    4    4   22      2.06      0.00
    5    4   22      0.58      0.00
    6    4   22     -0.61      0.00
   -3    5   22      0.10      0.00
   -2    5   22     -0.13      0.00
   -1    5   22     -0.43      0.00
    0    5   22      0.62      0.00
    1    5   22     -1.35      0.00
    2    5   22     -1.26      0.00
    3    5   22      1.00      0.00
    4    5   22      0.26      0.00
    5    5   22     -0.41      0.00
    6    5   22     -0.88      0.00
   -2    6   22     -0.42      0.00
   -1    6   22      0.70      0.00
    0    6   22      0.82      0.00
    1    6   22     -0.78      0.00
    2    6   22      0.55      0.00
    3    6   22      1.52      0.00
    4    6   22     -0.57      0.00
    5    6   22     -0.38      0.00
    6    6   22     -0.64      0.00
   -2    7   22     -0.29      0.00
   -1    7   22      1.06      0.00
    0    7   22     -0.58      0.00
    1    7   22     -0.86      0.00
    2    7   22      1.98      0.00
    3    7   22      1.02      0.00
    4    7   22     -0.27      0.00
    5    7   22     -0.14      0.00
    6    7   22      0.36      0.00
   -1    8   22      0.36      0.00
    0    8   22     -1.90      0.00
    1    8   22      0.52      0.00
    2    8   22      2.13      0.00
    3    8   22     -0.39      0.00
    4    8   22     -0.02      0.00
    5    8   22     -0.10      0.00
    6    8   22      0.59      0.00
    0    9   22     -1.36      0.00
    1    9   22      1.14      0.00
    2    9   22      0.36      0.00
    3    9   22     -0.89      0.00
    4    9   22      0.49      0.00
    5    9   22     -0.08      0.00
    2   10   22     -0.42      0.00
    3   10   22     -1.18      0.00
    4   10   22      0.11      0.00
   -1    1   23      0.70      0.00
    0    1   23     -0.19      0.00
    1    1   23      0.93      0.00
    2    1   23     -1.35      0.00
   -2    2   23      0.07      0.00
   -1    2   23     -0.09      0.00
    0    2   23     -0.34      0.00
    1    2   23      0.00      0.00
    2    2   23     -1.84      0.00
    3    2   23     -0.17      0.00
   -2    3   23     -1.40      0.00
   -1    3   23     -0.08      0.00
    0    3   23     -0.91      0.00
    1    3   23     -0.68      0.00
    2    3   23     -1.01      0.00
    3    3   23      1.65      0.00
    4    3   23      0.86      0.00
   -2    4   23     -0.93      0.00
   -1    4   23      0.89      0.00
    0    4   23     -0.84      0.00
    1    4   23     -0.22      0.00
    2    4   23      0.51      0.00
    3    4   23      1.36      0.00
    4    4   23     -0.57      0.00
   -1    5   23      0.99      0.00
    0    5   23     -0.40      0.00
    1    5   23      0.84      0.00
    2    5   23      1.30      0.00
    3    5   23     -0.10      0.00
    4    5   23     -0.71      0.00
   -1    6   23     -0.03      0.00
    0    6   23     -0.76      0.00
    1    6   23      1.10      0.00
    2    6   23      1.00      0.00
    3    6   23     -0.42      0.00
    4    6   23      0.05      0.00
    0    7   23     -0.67      0.00
    1    7   23      1.02      0.00
    2    7   23     -0.30      0.00
    3    7   23     -0.56      0.00
    4    7   23      0.02      0.00
    1    8   23      0.39      0.00
    2    8   23     -1.08      0.00
    3    8   23     -0.20      0.00
    4    8   23     -0.22      0.00
    1    0    0     -0.16      0.00
    0    1    0     57.72      0.00
    1    1    0    -55.18      0.00
   13    1    0     -0.77      0.00
  -12    2    0      0.56      0.00
  -11    4    0     -0.01      0.00
   -3   13    0     -0.17      0.00
   11   13    0      1.57      0.00
    8   15    0      1.86      0.00
   -7  -15    1     -0.27      0.00
   -2  -15    1      0.11      0.00
  -13   -9    1     -0.06      0.00
   11   -4    1     -0.26      0.00
  -13   -1    1      0.31      0.00
    0    0    1    -68.43      0.00
    0    1    1    -99.84      0.00
   13    1    1      0.68      0.00
  -12    2    1     -1.15      0.00
   12   12    1      1.10      0.00
   10   14    1      0.46      0.00
    1   15    1      0.63      0.00
   -6  -15    2     -0.09      0.00
   -3  -15    2     -0.89      0.00
   -9  -14    2      0.46      0.00
  -12  -11    2     -0.06      0.00
    9   -7    2     -0.47      0.00
  -12    2    2      0.43      0.00
  -10    6    2     -0.12      0.00
   13   10    2      0.37      0.00
   12   12    2     -0.63      0.00
  -10  -13    3     -1.83      0.00
    2  -13    3      0.76      0.00
  -11  -12    3     -1.96      0.00
    6  -10    3      0.77      0.00
  -13   -8    3     -1.00      0.00
    8   -8    3     -0.51      0.00
  -10    6    3     -1.00      0.00
   13   10    3     -0.33      0.00
    9   15    3     -1.75      0.00
    4   16    3     -0.05      0.00
    5   16    3     -1.11      0.00
   -1  -14    4      0.68      0.00
  -12  -10    4     -1.50      0.00
  -13   -7    4      0.87      0.00
   10   -5    4     -0.54      0.00
  -13   -2    4      0.89      0.00
  -11    4    4     -1.15      0.00
   13   10    4      0.13      0.00
   -6   11    4      1.77      0.00
   -2   14    4      0.35      0.00
    0   15    4      0.32      0.00
    4   16    4     -1.23      0.00
    6   16    4      2.31      0.00
   -2  -14    5      0.47      0.00
   -9  -13    5      1.48      0.00
    1  -13    5     -0.13      0.00
  -13   -5    5     -0.55      0.00
  -13   -4    5      0.71      0.00
  -13   -3    5      1.56      0.00
   11   -3    5      0.08      0.00
   12   -1    5      0.34      0.00
   13    2    5      0.49      0.00
  -11    4    5      0.34      0.00
   13   10    5     -0.39      0.00
   -6   11    5     -0.98      0.00
   -2   14    5     -0.64      0.00
    0   15    5      1.62      0.00
    3   16    5      0.38      0.00
    0  -13    6     -0.73      0.00
  -12    1    6      0.68      0.00
   13   10    6      1.18      0.00
   -2   14    6      1.23      0.00
    3   16    6      0.23      0.00
    7   16    6     -0.60      0.00
   -1  -13    7      0.56      0.00
   -9  -12    7      2.77      0.00
  -11  -10    7      0.10      0.00
  -12   -8    7     -0.92      0.00
    7   -8    7      1.12      0.00
   13    3    7     -0.42      0.00
   -2   14    7      1.17      0.00
    3   16    7      0.04      0.00
    7   16    7      1.05      0.00
   -6  -13    8      0.15      0.00
  -12   -7    8      1.50      0.00
   11   -2    8      1.98      0.00
  -12    0    8     -0.11      0.00
  -11    3    8     -0.14      0.00
   13    4    8      0.29      0.00
   -9    7    8      0.78      0.00
   13    9    8     -1.27      0.00
   12   12    8      0.51      0.00
   -2   14    8     -2.50      0.00
    0   15    8     -0.65      0.00
    3   16    8     -1.32      0.00
    7   16    8      0.48      0.00
    0  -12    9      0.24      0.00
   -9  -11    9      0.54      0.00
    2  -11    9      1.13      0.00
  -10  -10    9      0.60      0.00
    5   -9    9     -1.07      0.00
    8   -6    9      0.96      0.00
  -12   -5    9     -1.37      0.00
  -12   -2    9      0.72      0.00
   12    1    9     -0.41      0.00
   -5    4    9      2.87      0.00
  -10    5    9      0.68      0.00
   13    5    9      0.05      0.00
   13    6    9     -0.31      0.00
   13    8    9      0.07      0.00
    0   15    9      1.44      0.00
    9   15    9      0.01      0.00
    4   16    9      0.38      0.00
    6   16    9     -0.24      0.00
   -6  -12   10      0.70      0.00
   -2  -12   10      2.02      0.00
    3  -10   10      1.10      0.00
  -11    2   10      0.70      0.00
   -8    8   10      0.66      0.00
    9   15   10     -0.95      0.00
    4   16   10      1.31      0.00
    5   16   10      1.29      0.00
    6   16   10      0.63      0.00
   -7  -11   11     -1.17      0.00
    0  -11   11      0.38      0.00
  -11   -6   11      0.42      0.00
  -11    1   11     -0.11      0.00
  -10    4   11     -0.89      0.00
   -9    6   11      1.01      0.00
   -7    9   11     -0.86      0.00
   12   11   11     -0.18      0.00
   -3   13   11      0.70      0.00
   10   14   11     -1.77      0.00
   -5  -11   12      1.66      0.00
   -2  -11   12     -0.77      0.00
  -11   -4   12      0.39      0.00
  -11   -1   12      0.52      0.00
   -6   10   12     -0.39      0.00
   12   10   12      0.65      0.00
   -5   11   12      0.76      0.00
   -4   12   12      0.34      0.00
    1   15   12     -0.07      0.00
    8   15   12      2.27      0.00
    0  -10   13      0.38      0.00
   -8   -9   13      0.70      0.00
   -9   -8   13     -0.18      0.00
  -10   -6   13      0.13      0.00
    8   -4   13     -0.24      0.00
   -9    5   13     -0.81      0.00
    5    5   13      1.51      0.00
   12    5   13     -0.90      0.00
   12    6   13     -0.16      0.00
   12    9   13     -0.11      0.00
   11   12   13     -1.00      0.00
   -3  -10   14      1.00      0.00
    1   -9   14      0.53      0.00
   -8   -8   14     -0.28      0.00
    3   -8   14     -1.58      0.00
  -10   -4   14      0.12      0.00
   10    0   14     -0.71      0.00
  -10    1   14      0.69      0.00
   -7    8   14     -0.78      0.00
   11   11   14     -0.63      0.00
   -2   13   14     -0.76      0.00
   -5   -9   15     -0.42      0.00
   -1   -9   15     -0.73      0.00
   -7   -8   15      0.41      0.00
    2   -8   15     -1.36      0.00
   -8   -7   15      0.09      0.00
    6   -5   15     -1.02      0.00
    9   -1   15     -1.23      0.00
   10    1   15      0.54      0.00
   -9    3   15     -0.35      0.00
   11    4   15      0.44      0.00
   -5   10   15     -1.08      0.00
   11   10   15      1.03      0.00
   -4   11   15      0.45      0.00
    8   14   15     -1.62      0.00
    4   15   15     -0.25      0.00
    5   15   15      0.27      0.00
   -2   -8   16      0.55      0.00
   -7   -7   16     -0.40      0.00
    4   -6   16     -1.07      0.00
    7   -3   16      0.14      0.00
    9    0   16      0.78      0.00
   10    2   16     -0.27      0.00
   11    7   16      0.14      0.00
   11    8   16     -0.62      0.00
   -1   13   16     -0.71      0.00
    1   14   16     -0.89      0.00
    1   -7   17      0.75      0.00
    3   -6   17     -1.16      0.00
   -8   -4   17     -0.62      0.00
    9    1   17     -0.10      0.00
   -5    9   17     -1.15      0.00
   -4   10   17     -0.33      0.00
   10   10   17      0.02      0.00
   -3   11   17      0.79      0.00
    9   12   17      0.15      0.00
    0   13   17      0.47      0.00
    8   13   17      1.04      0.00
    3   14   17     -1.35      0.00
    6   14   17     -1.27      0.00
   -8   -1   18      1.45      0.00
   -8    0   18      1.11      0.00
   -8    1   18      0.65      0.00
   10    7   18     -0.73      0.00
    7   10   18      1.57      0.00
    9   11   18     -0.09      0.00
   -1   12   18      0.85      0.00
    1   13   18      0.69      0.00
    7   13   18     -0.31      0.00
   -5   -5   19     -0.33      0.00
   -6   -4   19     -0.68      0.00
   -7   -2   19     -1.53      0.00
    7    0   19     -0.02      0.00
    7    8   19      0.12      0.00
    9    9   19     -0.08      0.00
    0   12   19      0.58      0.00
    3   13   19      2.00      0.00
    4   13   19      0.48      0.00
    5   13   19     -0.33      0.00
   -6   -2   20      0.87      0.00
   -5    6   20      1.01      0.00
   -3    9   20     -0.22      0.00
    5    9   20     -1.00      0.00
    7   11   20      0.46      0.00
   -3   -3   21      0.47      0.00
    1   -3   21     -0.45      0.00
    3   -2   21      1.09      0.00
   -5   -1   21      1.54      0.00
    5    0   21      0.91      0.00
    7    3   21      0.65      0.00
   -5    4   21      0.39      0.00
   -2    9   21     -1.00      0.00
    1   11   21     -0.32      0.00
   -1   -2   22     -1.55      0.00
    0   -2   22     -0.05      0.00
   -3   -1   22      0.97      0.00
   -4    0   22      1.25      0.00
   -4    1   22      0.27      0.00
   -4    4   22      0.73      0.00
   -3    6   22     -0.37      0.00
    6    9   22      0.41      0.00
    1   10   22      0.10      0.00
    5   10   22     -0.15      0.00
   -1    0   23      0.88      0.00
    0    0   23     -0.95      0.00
    1    0   23      1.27      0.00
   -2    1   23      1.41      0.00
   -2    5   23      0.16      0.00
    5    5   23     -0.40      0.00
    5    6   23     -0.27      0.00
   -1    7   23     -1.03      0.00
    5    7   23      0.13      0.00
    1    4   24      0.49      0.00
    2    4   24      0.42      0.00
    1    5   24      0.09      0.00
    2    5   24     -0.29      0.00
    0    0    0      0.00      0.00
# SQUEEZE RESULTS (Version = 170121)
# Note: Data are Listed for all Voids in the P1 Unit Cell
# i.e. Centre of Gravity, Solvent Accessible Volume,
# Recovered number of Electrons in the Void and
# Details about the Squeezed Material
loop_
  _platon_squeeze_void_nr
  _platon_squeeze_void_average_x
  _platon_squeeze_void_average_y
  _platon_squeeze_void_average_z
  _platon_squeeze_void_volume
  _platon_squeeze_void_count_electrons
  _platon_squeeze_void_content
   1  0.500  0.000  0.500       327       122 ' '
# Missing Reflections Below sin(th)/lambda = 0.25
loop_
  _platon_missing_refln_index_h
  _platon_missing_refln_index_k
  _platon_missing_refln_index_l
  _platon_missing_refln_theta
    1    0    0     1.950
    0    1    0     1.705
    1    1    0     2.088
    0    0    1     1.076
    0    1    1     1.757
_platon_squeeze_void_probe_radius                  1.20
_platon_squeeze_details
)
TITL shelx            P -1         R = 0.17
CELL   11.2120   13.3082   19.7177     73.67     84.63     68.64
SPGR P-1
# Solvent Accessible Volume =       327
# Electrons Found in S.A.V. =       122
# Note: Atoms in Void are Labelled as Cxxx and Qxxx for all Others
C101 0.281 0.195 0.409 !       9.46 eA-3
C102 0.190 0.108 0.264 !       8.23 eA-3
C103 0.500 1.000 0.500 !       6.04 eA-3
C104 0.488 0.104 0.500 !       4.37 eA-3
C105 0.972 0.292 0.185 !       3.65 eA-3
Q106 0.908 0.178 0.266 !       3.54 eA-3
C107 0.357 0.234 0.439 !       3.42 eA-3
Q108 0.309 0.356 0.392 !       2.52 eA-3
Q109 0.034 0.192 0.219 !       1.93 eA-3
Q110 0.277 0.553 0.435 !       1.50 eA-3
C111 0.158 0.156 0.312 !       1.44 eA-3
Q112 0.748 0.501 0.158 !       1.28 eA-3
Q113 0.236 0.839 0.185 !       1.22 eA-3
Q114 0.627 0.483 0.221 !       1.18 eA-3
Q115 0.705 0.528 0.202 !       1.13 eA-3
Q116 0.013 0.229 0.269 !       1.11 eA-3
Q117 0.375 0.560 0.420 !       1.10 eA-3
Q118 0.673 0.445 0.209 !       1.09 eA-3
Q119 0.566 0.577 0.233 !       1.04 eA-3
Q120 0.080 0.358 0.328 !       1.04 eA-3
Q121 0.816 0.911 0.420 !       1.03 eA-3
Q122 0.684 0.494 0.142 !       1.02 eA-3
Q123 0.172 0.836 0.202 !       1.00 eA-3
Q124 0.765 0.557 0.229 !       0.96 eA-3
Q125 0.950 0.359 0.182 !       0.95 eA-3
C126 0.327 0.088 0.455 !       0.91 eA-3
Q127 0.490 0.560 0.222 !       0.91 eA-3
Q128 0.436 0.449 0.046 !       0.90 eA-3
Q129 0.799 0.725 0.044 !       0.89 eA-3
C130 0.217 0.139 0.376 !       0.88 eA-3
Q131 0.660 0.596 0.235 !       0.87 eA-3
Q132 0.424 0.727 0.125 !       0.86 eA-3
Q133 0.328 0.550 0.390 !       0.85 eA-3
C134 0.137 0.199 0.247 !       0.85 eA-3
Q135 0.296 0.666 0.276 !       0.85 eA-3
Q136 0.453 0.616 0.156 !       0.84 eA-3
Q137 0.456 0.096 0.077 !       0.84 eA-3
Q138 0.843 0.260 0.275 !       0.83 eA-3
Q139 0.733 0.613 0.187 !       0.83 eA-3
Q140 0.653 0.509 0.261 !       0.83 eA-3
Q141 0.783 0.358 0.002 !       0.81 eA-3
Q142 0.112 0.075 0.316 !       0.81 eA-3
C143 0.331 0.016 0.469 !       0.80 eA-3
Q144 0.764 0.603 0.376 !       0.79 eA-3
Q145 0.079 0.100 0.279 !       0.78 eA-3
Q146 0.501 0.932 0.268 !       0.77 eA-3
Q147 0.831 0.790 0.106 !       0.77 eA-3
Q148 0.798 0.433 0.270 !       0.77 eA-3
Q149 0.842 0.610 0.216 !       0.77 eA-3
Q150 0.578 0.408 0.026 !       0.76 eA-3
Q151 0.754 0.504 0.100 !       0.76 eA-3
Q152 0.270 0.182 0.468 !       0.76 eA-3
Q153 0.688 0.308 0.032 !       0.75 eA-3
Q154 0.785 0.454 0.244 !       0.75 eA-3
Q155 0.612 0.657 0.283 !       0.74 eA-3
Q156 0.856 0.461 0.246 !       0.73 eA-3
Q157 0.454 0.266 0.281 !       0.73 eA-3
Q158 0.015 0.526 0.287 !       0.73 eA-3
C159 0.396 0.964 0.457 !       0.73 eA-3
Q160 0.467 0.657 0.201 !       0.73 eA-3
Q161 0.798 0.278 0.044 !       0.72 eA-3
Q162 0.591 0.721 0.230 !       0.72 eA-3
C163 0.451 0.097 0.435 !       0.72 eA-3
Q164 0.501 0.911 0.165 !       0.71 eA-3
Q165 0.828 0.602 0.263 !       0.71 eA-3
Q166 0.948 0.546 0.263 !       0.71 eA-3
Q167 0.890 0.105 0.254 !       0.70 eA-3
Q168 0.559 0.196 0.261 !       0.69 eA-3
Q169 0.855 0.551 0.249 !       0.69 eA-3
Q170 0.824 0.549 0.207 !       0.69 eA-3
Q171 0.113 0.025 0.347 !       0.68 eA-3
Q172 0.750 0.721 0.281 !       0.68 eA-3
Q173 0.281 0.482 0.056 !       0.68 eA-3
Q174 0.610 0.238 0.098 !       0.67 eA-3
Q175 0.707 0.424 0.268 !       0.67 eA-3
C176 0.261 0.067 0.420 !       0.67 eA-3
Q177 0.483 0.028 0.076 !       0.67 eA-3
Q178 0.503 0.160 0.220 !       0.67 eA-3
Q179 0.361 0.477 0.453 !       0.66 eA-3
Q180 0.220 0.034 0.242 !       0.66 eA-3
C181 0.189 0.095 0.443 !       0.66 eA-3
Q182 0.905 0.823 0.371 !       0.65 eA-3
Q183 0.640 0.701 0.247 !       0.65 eA-3
Q184 0.549 0.448 0.329 !       0.65 eA-3
Q185 0.549 0.701 0.108 !       0.64 eA-3
Q186 0.863 0.319 0.220 !       0.64 eA-3
Q187 0.872 0.432 0.309 !       0.64 eA-3
Q188 0.738 0.804 0.065 !       0.64 eA-3
Q189 0.529 0.537 0.277 !       0.64 eA-3
Q190 0.318 0.802 0.434 !       0.64 eA-3
Q191 0.389 0.651 0.271 !       0.64 eA-3
Q192 0.046 0.714 0.131 !       0.64 eA-3
Q193 0.654 0.358 0.013 !       0.64 eA-3
Q194 0.919 0.785 0.391 !       0.64 eA-3
Q195 0.655 0.675 0.213 !       0.63 eA-3
Q196 0.202 0.708 0.298 !       0.62 eA-3
Q197 0.278 0.996 0.458 !       0.62 eA-3
Q198 0.561 0.628 0.093 !       0.62 eA-3
Q199 0.186 0.259 0.415 !       0.61 eA-3
)
;
_shelx_fab_checksum              57217
loop_
_space_group_symop_operation_xyz
'x, y, z'
'-x, -y, -z'
loop_
_atom_site_label
_atom_site_type_symbol
_atom_site_fract_x
_atom_site_fract_y
_atom_site_fract_z
_atom_site_U_iso_or_equiv
_atom_site_adp_type
_atom_site_occupancy
_atom_site_site_symmetry_order
_atom_site_calc_flag
_atom_site_refinement_flags_posn
_atom_site_refinement_flags_adp
_atom_site_refinement_flags_occupancy
_atom_site_disorder_assembly
_atom_site_disorder_group
Zn1 Zn 0.34112(6) 0.51599(5) 0.42280(3) 0.0418(2) Uani 1 1 d . . . . .
Zn2 Zn 0.500000 0.500000 0.000000 0.0256(8) Uani 0.387(4) 2 d S . P . .
Cl1 Cl 0.53106(18) 0.24794(13) 0.27828(7) 0.0591(5) Uani 1 1 d . . . . .
Cl2 Cl 0.51306(14) 0.06325(11) 0.07023(7) 0.0448(4) Uani 1 1 d . . . . .
O1 O 0.0937(3) 0.7099(3) 0.14385(16) 0.0343(8) Uani 1 1 d . . . . .
N1 N 0.4185(4) 0.5414(4) 0.3246(2) 0.0350(10) Uani 1 1 d . . . . .
N2 N 0.5100(4) 0.3922(4) 0.4641(2) 0.0388(11) Uani 1 1 d . . . . .
N3 N 0.2601(5) 0.4839(4) 0.5197(2) 0.0424(11) Uani 1 1 d . . . . .
N4 N 0.1732(4) 0.6377(4) 0.3806(2) 0.0387(11) Uani 1 1 d . . . . .
N5 N 0.3675(3) 0.4445(3) 0.06269(18) 0.0257(8) Uani 1 1 d . . . . .
N6 N 0.3597(4) 0.6493(3) -0.04174(18) 0.0260(8) Uani 1 1 d . . . . .
C1 C 0.3618(5) 0.6168(4) 0.2622(2) 0.0351(12) Uani 1 1 d . . . . .
C2 C 0.4489(5) 0.5946(5) 0.2043(3) 0.0406(13) Uani 1 1 d . . . . .
C3 C 0.5591(5) 0.5085(5) 0.2330(3) 0.0455(14) Uani 1 1 d . . . . .
C4 C 0.5393(5) 0.4772(5) 0.3081(3) 0.0411(13) Uani 1 1 d . . . . .
C5 C 0.6310(5) 0.3942(5) 0.3551(3) 0.0448(14) Uani 1 1 d . . . . .
H5A H 0.712013 0.360868 0.335826 0.054 Uiso 1 1 calc R U . . .
C6 C 0.6177(5) 0.3544(5) 0.4271(3) 0.0409(13) Uani 1 1 d . . . . .
C7 C 0.7169(6) 0.2623(5) 0.4744(3) 0.0498(15) Uani 1 1 d . . . . .
C8 C 0.6626(6) 0.2487(5) 0.5393(3) 0.0474(15) Uani 1 1 d . . . . .
C9 C 0.5363(6) 0.3292(4) 0.5326(3) 0.0406(13) Uani 1 1 d . . . . .
C10 C 0.4466(6) 0.3391(4) 0.5873(3) 0.0469(15) Uani 1 1 d . . . . .
H10A H 0.476317 0.292755 0.633189 0.056 Uiso 1 1 calc R U . . .
C11 C 0.3207(6) 0.4087(5) 0.5816(3) 0.0461(14) Uani 1 1 d . . . . .
C12 C 0.2282(7) 0.4142(5) 0.6390(3) 0.0559(17) Uani 1 1 d . . . . .
C13 C 0.1128(7) 0.4919(5) 0.6117(3) 0.0544(16) Uani 1 1 d . . . . .
C14 C 0.1362(6) 0.5358(5) 0.5365(3) 0.0445(14) Uani 1 1 d . . . . .
C15 C 0.0467(6) 0.6205(5) 0.4897(3) 0.0483(15) Uani 1 1 d . . . . .
H15A H -0.036920 0.648503 0.507833 0.058 Uiso 1 1 calc R U . . .
C16 C 0.0639(6) 0.6706(5) 0.4183(3) 0.0445(14) Uani 1 1 d . . . . .
C17 C -0.0327(5) 0.7651(5) 0.3759(3) 0.0493(15) Uani 1 1 d . . . . .
C18 C 0.0195(5) 0.7938(5) 0.3108(3) 0.0447(14) Uani 1 1 d . . . . .
C19 C 0.1498(5) 0.7108(5) 0.3137(2) 0.0385(13) Uani 1 1 d . . . . .
C20 C 0.2384(5) 0.7000(5) 0.2585(2) 0.0361(12) Uani 1 1 d . . . . .
C21 C 0.4328(5) 0.6413(5) 0.1258(3) 0.0458(15) Uani 1 1 d . . . . .
H21A H 0.467315 0.578812 0.103226 0.055 Uiso 1 1 calc R U . . .
H21B H 0.340246 0.678240 0.114171 0.055 Uiso 1 1 calc R U . . .
C22 C 0.4959(9) 0.7207(7) 0.0967(4) 0.084(2) Uani 1 1 d . . . . .
H22A H 0.486542 0.744565 0.045094 0.127 Uiso 1 1 calc R U . . .
H22B H 0.587094 0.685635 0.109468 0.127 Uiso 1 1 calc R U . . .
H22C H 0.457173 0.785943 0.115663 0.127 Uiso 1 1 calc R U . . .
C23 C 0.6754(6) 0.4528(6) 0.1944(3) 0.0595(18) Uani 1 1 d . . . . .
H23A H 0.649417 0.452407 0.148367 0.089 Uiso 1 1 calc R U . . .
H23B H 0.718275 0.375579 0.222243 0.089 Uiso 1 1 calc R U . . .
H23C H 0.734395 0.493913 0.187306 0.089 Uiso 1 1 calc R U . . .
C24 C 0.8445(6) 0.1951(6) 0.4536(3) 0.0609(18) Uani 1 1 d . . . . .
H24A H 0.908099 0.179128 0.490365 0.073 Uiso 1 1 calc R U . . .
H24B H 0.869607 0.238812 0.408828 0.073 Uiso 1 1 calc R U . . .
C25 C 0.8459(9) 0.0863(7) 0.4439(5) 0.094(3) Uani 1 1 d . . . . .
H25A H 0.931550 0.044608 0.429476 0.140 Uiso 1 1 calc R U . . .
H25B H 0.783289 0.101894 0.407306 0.140 Uiso 1 1 calc R U . . .
H25C H 0.823809 0.041800 0.488513 0.140 Uiso 1 1 calc R U . . .
C26 C 0.7223(7) 0.1598(5) 0.6058(3) 0.0581(17) Uani 1 1 d . . . . .
H26A H 0.815323 0.141267 0.604657 0.087 Uiso 1 1 calc R U . . .
H26B H 0.702901 0.092575 0.608816 0.087 Uiso 1 1 calc R U . . .
H26C H 0.687450 0.187798 0.647137 0.087 Uiso 1 1 calc R U . . .
C27 C 0.2553(8) 0.3435(6) 0.7136(3) 0.070(2) Uani 1 1 d . . . . .
H27A H 0.181979 0.370660 0.743225 0.105 Uiso 1 1 calc R U . . .
H27B H 0.331702 0.347836 0.731222 0.105 Uiso 1 1 calc R U . . .
H27C H 0.270054 0.265558 0.715276 0.105 Uiso 1 1 calc R U . . .
C28 C -0.0099(8) 0.5249(6) 0.6485(3) 0.066(2) Uani 1 1 d . . . . .
H28A H -0.020303 0.457001 0.681186 0.080 Uiso 1 1 calc R U . . .
H28B H -0.080471 0.558181 0.613260 0.080 Uiso 1 1 calc R U . . .
C29 C -0.0216(10) 0.6077(9) 0.6901(5) 0.101(3) Uani 1 1 d . . . . .
H29A H -0.106096 0.627369 0.712117 0.152 Uiso 1 1 calc R U . . .
H29B H -0.011539 0.675322 0.658221 0.152 Uiso 1 1 calc R U . . .
H29C H 0.045086 0.574070 0.726827 0.152 Uiso 1 1 calc R U . . .
C30 C -0.1647(6) 0.8222(7) 0.4004(3) 0.069(2) Uani 1 1 d . . . . .
H30A H -0.216892 0.876878 0.359856 0.103 Uiso 1 1 calc R U . . .
H30B H -0.159133 0.860523 0.435061 0.103 Uiso 1 1 calc R U . . .
H30C H -0.204372 0.766280 0.422192 0.103 Uiso 1 1 calc R U . . .
C31 C -0.0509(6) 0.8981(5) 0.2545(3) 0.0521(16) Uani 1 1 d . . . . .
H31A H -0.143156 0.908850 0.255356 0.062 Uiso 1 1 calc R U . . .
H31B H -0.017414 0.889521 0.207426 0.062 Uiso 1 1 calc R U . . .
C32 C -0.0332(10) 1.0041(8) 0.2677(5) 0.117(4) Uani 1 1 d . . . . .
H32A H 0.057882 0.994358 0.265335 0.175 Uiso 1 1 calc R U . . .
H32B H -0.065934 1.012125 0.314503 0.175 Uiso 1 1 calc R U . . .
H32C H -0.080711 1.071397 0.231439 0.175 Uiso 1 1 calc R U . . .
C33 C 0.2066(5) 0.7933(5) 0.1910(2) 0.0364(12) Uani 1 1 d . . . . .
C34 C 0.2511(6) 0.8804(5) 0.1841(3) 0.0498(15) Uani 1 1 d . . . . .
H34A H 0.300183 0.878696 0.221414 0.060 Uiso 1 1 calc R U . . .
C35 C 0.2257(6) 0.9700(5) 0.1239(3) 0.0518(16) Uani 1 1 d . . . . .
H35A H 0.255847 1.029353 0.120392 0.062 Uiso 1 1 calc R U . . .
C36 C 0.1562(5) 0.9714(5) 0.0695(3) 0.0401(13) Uani 1 1 d . . . . .
H36A H 0.140844 1.030978 0.027443 0.048 Uiso 1 1 calc R U . . .
C37 C 0.1087(5) 0.8875(4) 0.0752(2) 0.0346(12) Uani 1 1 d . . . . .
H37A H 0.059031 0.890521 0.037684 0.041 Uiso 1 1 calc R U . . .
C38 C 0.1333(4) 0.7986(4) 0.1355(2) 0.0315(11) Uani 1 1 d . . . . .
C51 C 0.2405(4) 0.5067(4) 0.0680(2) 0.0259(10) Uani 1 1 d . . . . .
C52 C 0.1827(5) 0.4411(4) 0.1220(2) 0.0312(11) Uani 1 1 d . . . . .
H52A H 0.095925 0.464453 0.136441 0.037 Uiso 1 1 calc R U . . .
C53 C 0.2751(5) 0.3392(4) 0.1486(2) 0.0319(11) Uani 1 1 d . . . . .
H53A H 0.264709 0.278308 0.184569 0.038 Uiso 1 1 calc R U . . .
C54 C 0.3920(4) 0.3419(4) 0.1114(2) 0.0278(10) Uani 1 1 d . . . . .
C55 C 0.5110(4) 0.2572(4) 0.1245(2) 0.0265(10) Uani 1 1 d . . . . .
C56 C 0.3738(4) 0.7378(4) -0.0932(2) 0.0265(10) Uani 1 1 d . . . . .
C57 C 0.2509(5) 0.8254(4) -0.1105(2) 0.0309(11) Uani 1 1 d . . . . .
H57A H 0.234152 0.895850 -0.144323 0.037 Uiso 1 1 calc R U . . .
C58 C 0.1634(4) 0.7886(4) -0.0695(2) 0.0297(11) Uani 1 1 d . . . . .
H58A H 0.073598 0.827777 -0.069798 0.036 Uiso 1 1 calc R U . . .
C59 C 0.2320(4) 0.6788(4) -0.0254(2) 0.0255(10) Uani 1 1 d . . . . .
C60 C 0.1768(4) 0.6155(4) 0.0274(2) 0.0253(10) Uani 1 1 d . . . . .
C61 C 0.5177(4) 0.1493(4) 0.1781(2) 0.0301(11) Uani 1 1 d . . . . .
C62 C 0.5182(5) 0.0568(4) 0.1593(3) 0.0347(12) Uani 1 1 d . . . . .
C63 C 0.5267(5) -0.0429(4) 0.2092(3) 0.0432(14) Uani 1 1 d . . . . .
H63A H 0.528068 -0.105630 0.194665 0.052 Uiso 1 1 calc R U . . .
C64 C 0.5329(6) -0.0500(5) 0.2797(3) 0.0519(16) Uani 1 1 d . . . . .
H64A H 0.537714 -0.117727 0.314127 0.062 Uiso 1 1 calc R U . . .
C65 C 0.5324(6) 0.0385(5) 0.3006(3) 0.0486(15) Uani 1 1 d . . . . .
H65A H 0.536303 0.032698 0.349486 0.058 Uiso 1 1 calc R U . . .
C66 C 0.5261(5) 0.1377(4) 0.2511(3) 0.0383(12) Uani 1 1 d . . . . .
C67 C 0.0387(4) 0.6690(4) 0.0419(2) 0.0266(10) Uani 1 1 d . . . . .
C68 C -0.0574(4) 0.6733(4) 0.0000(3) 0.0315(11) Uani 1 1 d . . . . .
H68A H -0.034631 0.637719 -0.037275 0.038 Uiso 1 1 calc R U . . .
C69 C -0.1851(5) 0.7281(4) 0.0116(3) 0.0369(12) Uani 1 1 d . . . . .
H69A H -0.249064 0.729536 -0.017373 0.044 Uiso 1 1 calc R U . . .
C70 C -0.2198(5) 0.7807(4) 0.0652(3) 0.0357(12) Uani 1 1 d . . . . .
H70A H -0.307553 0.819896 0.072368 0.043 Uiso 1 1 calc R U . . .
C71 C -0.1270(5) 0.7767(4) 0.1086(3) 0.0377(12) Uani 1 1 d . . . . .
H71A H -0.150595 0.812118 0.145898 0.045 Uiso 1 1 calc R U . . .
C72 C 0.0005(4) 0.7205(4) 0.0969(2) 0.0282(11) Uani 1 1 d . . . . .
loop_
_atom_site_aniso_label
_atom_site_aniso_U_11
_atom_site_aniso_U_22
_atom_site_aniso_U_33
_atom_site_aniso_U_23
_atom_site_aniso_U_13
_atom_site_aniso_U_12
Zn1 0.0462(4) 0.0504(4) 0.0182(3) 0.0071(3) -0.0036(2) -0.0163(3)
Zn2 0.0232(12) 0.0233(12) 0.0210(10) 0.0049(7) 0.0009(7) -0.0058(8)
Cl1 0.1038(13) 0.0494(9) 0.0245(6) -0.0023(6) 0.0012(7) -0.0333(9)
Cl2 0.0488(8) 0.0355(7) 0.0438(7) -0.0086(6) -0.0077(6) -0.0072(6)
O1 0.040(2) 0.0338(19) 0.0206(16) 0.0040(14) -0.0088(14) -0.0087(15)
N1 0.035(2) 0.042(3) 0.0212(19) 0.0019(18) -0.0077(17) -0.012(2)
N2 0.051(3) 0.038(3) 0.024(2) 0.0008(18) -0.010(2) -0.016(2)
N3 0.058(3) 0.042(3) 0.025(2) -0.0015(19) 0.003(2) -0.021(2)
N4 0.046(3) 0.050(3) 0.0174(19) 0.0018(18) -0.0015(18) -0.021(2)
N5 0.025(2) 0.027(2) 0.0186(17) 0.0008(15) -0.0007(15) -0.0070(16)
N6 0.027(2) 0.029(2) 0.0176(17) 0.0022(15) 0.0012(15) -0.0109(17)
C1 0.033(3) 0.047(3) 0.019(2) 0.002(2) -0.005(2) -0.015(2)
C2 0.035(3) 0.060(4) 0.021(2) 0.001(2) -0.004(2) -0.019(3)
C3 0.038(3) 0.059(4) 0.027(3) -0.001(2) -0.005(2) -0.009(3)
C4 0.040(3) 0.050(3) 0.027(3) 0.000(2) -0.002(2) -0.016(3)
C5 0.041(3) 0.053(4) 0.035(3) -0.006(3) -0.004(2) -0.013(3)
C6 0.046(3) 0.041(3) 0.030(3) 0.002(2) -0.012(2) -0.014(3)
C7 0.054(4) 0.050(4) 0.036(3) 0.005(3) -0.015(3) -0.017(3)
C8 0.063(4) 0.041(3) 0.034(3) 0.002(2) -0.018(3) -0.018(3)
C9 0.064(4) 0.035(3) 0.023(2) 0.001(2) -0.005(2) -0.022(3)
C10 0.078(4) 0.030(3) 0.026(3) 0.003(2) -0.008(3) -0.018(3)
C11 0.075(4) 0.040(3) 0.023(2) 0.003(2) 0.001(3) -0.028(3)
C12 0.094(5) 0.039(3) 0.026(3) 0.003(2) 0.007(3) -0.025(3)
C13 0.075(5) 0.052(4) 0.031(3) -0.004(3) 0.017(3) -0.027(3)
C14 0.063(4) 0.043(3) 0.026(3) -0.002(2) 0.006(3) -0.024(3)
C15 0.047(3) 0.061(4) 0.032(3) -0.004(3) 0.009(2) -0.022(3)
C16 0.049(3) 0.056(4) 0.023(2) -0.001(2) 0.002(2) -0.019(3)
C17 0.037(3) 0.068(4) 0.034(3) -0.008(3) 0.006(2) -0.014(3)
C18 0.044(3) 0.062(4) 0.019(2) 0.001(2) -0.002(2) -0.016(3)
C19 0.036(3) 0.055(3) 0.019(2) 0.002(2) -0.006(2) -0.018(3)
C20 0.036(3) 0.051(3) 0.018(2) 0.003(2) -0.007(2) -0.018(2)
C21 0.035(3) 0.068(4) 0.019(2) 0.004(2) -0.002(2) -0.013(3)
C22 0.107(7) 0.091(6) 0.059(4) 0.000(4) -0.019(4) -0.050(5)
C23 0.049(4) 0.069(4) 0.037(3) 0.008(3) -0.006(3) -0.008(3)
C24 0.046(4) 0.065(4) 0.048(4) 0.002(3) -0.015(3) -0.002(3)
C25 0.087(6) 0.086(6) 0.086(6) -0.028(5) -0.018(5) 0.002(5)
C26 0.072(4) 0.051(4) 0.035(3) 0.016(3) -0.018(3) -0.019(3)
C27 0.110(6) 0.054(4) 0.025(3) 0.010(3) 0.010(3) -0.024(4)
C28 0.095(6) 0.062(4) 0.039(3) -0.010(3) 0.020(4) -0.031(4)
C29 0.112(8) 0.139(9) 0.073(6) -0.044(6) 0.039(5) -0.066(7)
C30 0.052(4) 0.095(6) 0.034(3) -0.001(3) 0.000(3) -0.008(4)
C31 0.041(3) 0.068(4) 0.029(3) -0.004(3) -0.007(2) -0.003(3)
C32 0.120(8) 0.112(8) 0.059(5) 0.004(5) -0.026(5) 0.013(6)
C33 0.032(3) 0.054(3) 0.017(2) 0.002(2) -0.004(2) -0.016(2)
C34 0.048(3) 0.072(4) 0.028(3) 0.005(3) -0.015(2) -0.030(3)
C35 0.056(4) 0.066(4) 0.037(3) 0.008(3) -0.011(3) -0.039(3)
C36 0.034(3) 0.050(3) 0.025(2) 0.009(2) -0.008(2) -0.015(2)
C37 0.034(3) 0.043(3) 0.019(2) 0.000(2) -0.006(2) -0.010(2)
C38 0.025(2) 0.040(3) 0.020(2) 0.002(2) -0.0005(19) -0.007(2)
C51 0.023(2) 0.031(3) 0.018(2) -0.0007(18) 0.0018(18) -0.009(2)
C52 0.025(2) 0.037(3) 0.028(2) -0.002(2) 0.005(2) -0.012(2)
C53 0.030(3) 0.030(3) 0.028(2) 0.003(2) 0.005(2) -0.011(2)
C54 0.030(3) 0.028(3) 0.020(2) 0.0006(18) 0.0050(19) -0.011(2)
C55 0.031(3) 0.024(2) 0.022(2) 0.0007(18) 0.0025(19) -0.011(2)
C56 0.029(2) 0.028(2) 0.018(2) 0.0031(18) -0.0030(18) -0.010(2)
C57 0.032(3) 0.029(3) 0.022(2) 0.0048(19) -0.0024(19) -0.007(2)
C58 0.023(2) 0.032(3) 0.023(2) 0.0030(19) 0.0007(19) -0.005(2)
C59 0.023(2) 0.027(2) 0.019(2) 0.0000(18) -0.0022(18) -0.0050(19)
C60 0.029(2) 0.027(2) 0.018(2) -0.0014(18) 0.0007(18) -0.0109(19)
C61 0.027(3) 0.030(3) 0.025(2) 0.004(2) 0.0030(19) -0.008(2)
C62 0.028(3) 0.032(3) 0.033(3) 0.001(2) -0.001(2) -0.004(2)
C63 0.039(3) 0.026(3) 0.060(4) 0.001(2) -0.006(3) -0.014(2)
C64 0.048(4) 0.034(3) 0.053(4) 0.015(3) 0.002(3) -0.012(3)
C65 0.056(4) 0.046(4) 0.029(3) 0.009(2) 0.006(3) -0.017(3)
C66 0.045(3) 0.033(3) 0.027(2) 0.005(2) 0.001(2) -0.012(2)
C67 0.024(2) 0.028(2) 0.021(2) 0.0045(18) -0.0016(18) -0.0082(19)
C68 0.027(3) 0.034(3) 0.030(2) -0.004(2) -0.001(2) -0.008(2)
C69 0.026(3) 0.042(3) 0.039(3) 0.000(2) -0.001(2) -0.015(2)
C70 0.025(3) 0.030(3) 0.041(3) 0.003(2) 0.005(2) -0.007(2)
C71 0.041(3) 0.033(3) 0.030(3) -0.003(2) 0.009(2) -0.009(2)
C72 0.030(3) 0.028(3) 0.018(2) 0.0061(18) -0.0047(19) -0.010(2)
loop_
_atom_type_symbol
_atom_type_description
_atom_type_scat_dispersion_real
_atom_type_scat_dispersion_imag
_atom_type_scat_source
C C 0.0033 0.0016 'International Tables Vol C Tables 4.2.6.8 and 6.1.1.4'
H H 0.0000 0.0000 'International Tables Vol C Tables 4.2.6.8 and 6.1.1.4'
N N 0.0061 0.0033 'International Tables Vol C Tables 4.2.6.8 and 6.1.1.4'
O O 0.0106 0.0060 'International Tables Vol C Tables 4.2.6.8 and 6.1.1.4'
Zn Zn 0.2839 1.4301 'International Tables Vol C Tables 4.2.6.8 and 6.1.1.4'
Cl Cl 0.1484 0.1585 'International Tables Vol C Tables 4.2.6.8 and 6.1.1.4'
loop_
_geom_angle_atom_site_label_1
_geom_angle_atom_site_label_2
_geom_angle_atom_site_label_3
_geom_angle
_geom_angle_site_symmetry_1
_geom_angle_site_symmetry_3
_geom_angle_publ_flag
N1 Zn1 N3 176.62(18) . . ?
N1 Zn1 N4 88.39(16) . . ?
N3 Zn1 N4 91.50(18) . . ?
N1 Zn1 N2 91.11(17) . . ?
N3 Zn1 N2 88.95(18) . . ?
N4 Zn1 N2 179.09(18) . . ?
N6 Zn2 N6 180.0 2_665 . ?
N6 Zn2 N5 89.91(14) 2_665 . ?
N6 Zn2 N5 90.09(14) . . ?
N6 Zn2 N5 90.08(14) 2_665 2_665 ?
N6 Zn2 N5 89.91(14) . 2_665 ?
N5 Zn2 N5 180.0 . 2_665 ?
C38 O1 C72 118.2(3) . . ?
C4 N1 C1 107.0(4) . . ?
C4 N1 Zn1 124.1(3) . . ?
C1 N1 Zn1 128.7(3) . . ?
C6 N2 C9 106.1(4) . . ?
C6 N2 Zn1 125.9(3) . . ?
C9 N2 Zn1 127.9(4) . . ?
C14 N3 C11 106.8(4) . . ?
C14 N3 Zn1 126.2(3) . . ?
C11 N3 Zn1 126.9(4) . . ?
C16 N4 C19 106.5(4) . . ?
C16 N4 Zn1 124.4(3) . . ?
C19 N4 Zn1 128.8(4) . . ?
C51 N5 C54 107.5(4) . . ?
C51 N5 Zn2 125.9(3) . . ?
C54 N5 Zn2 126.3(3) . . ?
C56 N6 C59 106.9(4) . . ?
C56 N6 Zn2 126.6(3) . . ?
C59 N6 Zn2 126.4(3) . . ?
N1 C1 C20 123.4(4) . . ?
N1 C1 C2 108.8(4) . . ?
C20 C1 C2 127.7(4) . . ?
C3 C2 C1 107.4(4) . . ?
C3 C2 C21 120.5(5) . . ?
C1 C2 C21 131.9(5) . . ?
C2 C3 C4 106.4(5) . . ?
C2 C3 C23 127.6(5) . . ?
C4 C3 C23 125.9(5) . . ?
N1 C4 C5 126.5(5) . . ?
N1 C4 C3 110.2(4) . . ?
C5 C4 C3 123.2(5) . . ?
C4 C5 C6 127.1(6) . . ?
C4 C5 H5A 116.4 . . ?
C6 C5 H5A 116.4 . . ?
N2 C6 C5 125.0(5) . . ?
N2 C6 C7 110.1(5) . . ?
C5 C6 C7 124.9(5) . . ?
C8 C7 C6 105.3(5) . . ?
C8 C7 C24 128.0(5) . . ?
C6 C7 C24 126.5(5) . . ?
C7 C8 C9 107.6(5) . . ?
C7 C8 C26 126.3(6) . . ?
C9 C8 C26 126.0(6) . . ?
N2 C9 C10 123.8(5) . . ?
N2 C9 C8 110.9(5) . . ?
C10 C9 C8 125.2(5) . . ?
C11 C10 C9 126.9(5) . . ?
C11 C10 H10A 116.5 . . ?
C9 C10 H10A 116.5 . . ?
C10 C11 N3 125.3(5) . . ?
C10 C11 C12 125.7(5) . . ?
N3 C11 C12 109.0(5) . . ?
C13 C12 C11 107.9(5) . . ?
C13 C12 C27 126.7(6) . . ?
C11 C12 C27 125.4(6) . . ?
C12 C13 C14 105.4(5) . . ?
C12 C13 C28 128.1(5) . . ?
C14 C13 C28 126.5(6) . . ?
N3 C14 C15 124.4(5) . . ?
N3 C14 C13 110.8(5) . . ?
C15 C14 C13 124.8(6) . . ?
C14 C15 C16 127.9(6) . . ?
C14 C15 H15A 116.1 . . ?
C16 C15 H15A 116.1 . . ?
N4 C16 C15 125.5(5) . . ?
N4 C16 C17 111.1(4) . . ?
C15 C16 C17 123.4(5) . . ?
C18 C17 C16 107.2(5) . . ?
C18 C17 C30 127.7(5) . . ?
C16 C17 C30 125.1(5) . . ?
C17 C18 C19 106.1(5) . . ?
C17 C18 C31 121.8(5) . . ?
C19 C18 C31 131.9(5) . . ?
N4 C19 C20 123.1(5) . . ?
N4 C19 C18 109.1(4) . . ?
C20 C19 C18 127.7(4) . . ?
C19 C20 C1 126.5(4) . . ?
C19 C20 C33 117.3(5) . . ?
C1 C20 C33 115.9(4) . . ?
C22 C21 C2 113.3(5) . . ?
C22 C21 H21A 108.9 . . ?
C2 C21 H21A 108.9 . . ?
C22 C21 H21B 108.9 . . ?
C2 C21 H21B 108.9 . . ?
H21A C21 H21B 107.7 . . ?
C21 C22 H22A 109.5 . . ?
C21 C22 H22B 109.5 . . ?
H22A C22 H22B 109.5 . . ?
C21 C22 H22C 109.5 . . ?
H22A C22 H22C 109.5 . . ?
H22B C22 H22C 109.5 . . ?
C3 C23 H23A 109.5 . . ?
C3 C23 H23B 109.5 . . ?
H23A C23 H23B 109.5 . . ?
C3 C23 H23C 109.5 . . ?
H23A C23 H23C 109.5 . . ?
H23B C23 H23C 109.5 . . ?
C7 C24 C25 111.8(6) . . ?
C7 C24 H24A 109.3 . . ?
C25 C24 H24A 109.3 . . ?
C7 C24 H24B 109.3 . . ?
C25 C24 H24B 109.3 . . ?
H24A C24 H24B 107.9 . . ?
C24 C25 H25A 109.5 . . ?
C24 C25 H25B 109.5 . . ?
H25A C25 H25B 109.5 . . ?
C24 C25 H25C 109.5 . . ?
H25A C25 H25C 109.5 . . ?
H25B C25 H25C 109.5 . . ?
C8 C26 H26A 109.5 . . ?
C8 C26 H26B 109.5 . . ?
H26A C26 H26B 109.5 . . ?
C8 C26 H26C 109.5 . . ?
H26A C26 H26C 109.5 . . ?
H26B C26 H26C 109.5 . . ?
C12 C27 H27A 109.5 . . ?
C12 C27 H27B 109.5 . . ?
H27A C27 H27B 109.5 . . ?
C12 C27 H27C 109.5 . . ?
H27A C27 H27C 109.5 . . ?
H27B C27 H27C 109.5 . . ?
C13 C28 C29 113.8(7) . . ?
C13 C28 H28A 108.8 . . ?
C29 C28 H28A 108.8 . . ?
C13 C28 H28B 108.8 . . ?
C29 C28 H28B 108.8 . . ?
H28A C28 H28B 107.7 . . ?
C28 C29 H29A 109.5 . . ?
C28 C29 H29B 109.5 . . ?
H29A C29 H29B 109.5 . . ?
C28 C29 H29C 109.5 . . ?
H29A C29 H29C 109.5 . . ?
H29B C29 H29C 109.5 . . ?
C17 C30 H30A 109.5 . . ?
C17 C30 H30B 109.5 . . ?
H30A C30 H30B 109.5 . . ?
C17 C30 H30C 109.5 . . ?
H30A C30 H30C 109.5 . . ?
H30B C30 H30C 109.5 . . ?
C18 C31 C32 110.2(5) . . ?
C18 C31 H31A 109.6 . . ?
C32 C31 H31A 109.6 . . ?
C18 C31 H31B 109.6 . . ?
C32 C31 H31B 109.6 . . ?
H31A C31 H31B 108.1 . . ?
C31 C32 H32A 109.5 . . ?
C31 C32 H32B 109.5 . . ?
H32A C32 H32B 109.5 . . ?
C31 C32 H32C 109.5 . . ?
H32A C32 H32C 109.5 . . ?
H32B C32 H32C 109.5 . . ?
C34 C33 C38 118.0(4) . . ?
C34 C33 C20 117.9(4) . . ?
C38 C33 C20 124.2(5) . . ?
C35 C34 C33 121.7(5) . . ?
C35 C34 H34A 119.1 . . ?
C33 C34 H34A 119.1 . . ?
C36 C35 C34 119.0(6) . . ?
C36 C35 H35A 120.5 . . ?
C34 C35 H35A 120.5 . . ?
C37 C36 C35 120.8(5) . . ?
C37 C36 H36A 119.6 . . ?
C35 C36 H36A 119.6 . . ?
C36 C37 C38 120.2(5) . . ?
C36 C37 H37A 119.9 . . ?
C38 C37 H37A 119.9 . . ?
O1 C38 C37 123.5(4) . . ?
O1 C38 C33 116.1(4) . . ?
C37 C38 C33 120.3(5) . . ?
N5 C51 C60 125.8(4) . . ?
N5 C51 C52 109.0(4) . . ?
C60 C51 C52 125.2(4) . . ?
C53 C52 C51 107.7(4) . . ?
C53 C52 H52A 126.1 . . ?
C51 C52 H52A 126.1 . . ?
C52 C53 C54 106.7(4) . . ?
C52 C53 H53A 126.7 . . ?
C54 C53 H53A 126.7 . . ?
N5 C54 C55 125.1(4) . . ?
N5 C54 C53 109.1(4) . . ?
C55 C54 C53 125.8(4) . . ?
C54 C55 C56 126.4(4) . 2_665 ?
C54 C55 C61 117.3(4) . . ?
C56 C55 C61 116.3(4) 2_665 . ?
N6 C56 C55 125.5(4) . 2_665 ?
N6 C56 C57 109.5(4) . . ?
C55 C56 C57 125.0(4) 2_665 . ?
C58 C57 C56 107.1(4) . . ?
C58 C57 H57A 126.4 . . ?
C56 C57 H57A 126.4 . . ?
C57 C58 C59 107.1(4) . . ?
C57 C58 H58A 126.4 . . ?
C59 C58 H58A 126.4 . . ?
N6 C59 C60 125.9(4) . . ?
N6 C59 C58 109.3(4) . . ?
C60 C59 C58 124.7(4) . . ?
C59 C60 C51 125.4(4) . . ?
C59 C60 C67 117.1(4) . . ?
C51 C60 C67 117.5(4) . . ?
C62 C61 C66 116.5(4) . . ?
C62 C61 C55 122.7(4) . . ?
C66 C61 C55 120.8(5) . . ?
C61 C62 C63 122.1(5) . . ?
C61 C62 Cl2 119.2(4) . . ?
C63 C62 Cl2 118.6(4) . . ?
C64 C63 C62 119.4(5) . . ?
C64 C63 H63A 120.3 . . ?
C62 C63 H63A 120.3 . . ?
C65 C64 C63 120.5(5) . . ?
C65 C64 H64A 119.7 . . ?
C63 C64 H64A 119.7 . . ?
C64 C65 C66 120.5(5) . . ?
C64 C65 H65A 119.8 . . ?
C66 C65 H65A 119.8 . . ?
C65 C66 C61 121.0(5) . . ?
C65 C66 Cl1 119.9(4) . . ?
C61 C66 Cl1 119.1(4) . . ?
C68 C67 C72 117.3(4) . . ?
C68 C67 C60 121.8(4) . . ?
C72 C67 C60 120.9(4) . . ?
C69 C68 C67 121.3(5) . . ?
C69 C68 H68A 119.3 . . ?
C67 C68 H68A 119.3 . . ?
C70 C69 C68 120.1(5) . . ?
C70 C69 H69A 120.0 . . ?
C68 C69 H69A 120.0 . . ?
C69 C70 C71 120.1(5) . . ?
C69 C70 H70A 119.9 . . ?
C71 C70 H70A 119.9 . . ?
C72 C71 C70 119.2(5) . . ?
C72 C71 H71A 120.4 . . ?
C70 C71 H71A 120.4 . . ?
C71 C72 C67 121.9(4) . . ?
C71 C72 O1 119.1(4) . . ?
C67 C72 O1 118.9(4) . . ?
loop_
_geom_bond_atom_site_label_1
_geom_bond_atom_site_label_2
_geom_bond_distance
_geom_bond_site_symmetry_2
_geom_bond_publ_flag
Zn1 N1 2.037(4) . ?
Zn1 N3 2.040(4) . ?
Zn1 N4 2.043(4) . ?
Zn1 N2 2.055(4) . ?
Zn2 N6 2.036(4) 2_665 ?
Zn2 N6 2.036(4) . ?
Zn2 N5 2.054(4) . ?
Zn2 N5 2.054(4) 2_665 ?
Cl1 C66 1.718(6) . ?
Cl2 C62 1.739(5) . ?
O1 C38 1.369(6) . ?
O1 C72 1.404(6) . ?
N1 C4 1.379(7) . ?
N1 C1 1.382(6) . ?
N2 C6 1.357(7) . ?
N2 C9 1.367(6) . ?
N3 C14 1.364(7) . ?
N3 C11 1.387(7) . ?
N4 C16 1.366(7) . ?
N4 C19 1.383(6) . ?
N5 C51 1.373(6) . ?
N5 C54 1.379(6) . ?
N6 C56 1.370(5) . ?
N6 C59 1.372(6) . ?
C1 C20 1.416(7) . ?
C1 C2 1.454(7) . ?
C2 C3 1.376(7) . ?
C2 C21 1.498(6) . ?
C3 C4 1.440(7) . ?
C3 C23 1.502(8) . ?
C4 C5 1.383(7) . ?
C5 C6 1.384(7) . ?
C5 H5A 0.9500 . ?
C6 C7 1.471(7) . ?
C7 C8 1.360(8) . ?
C7 C24 1.476(9) . ?
C8 C9 1.421(8) . ?
C8 C26 1.511(7) . ?
C9 C10 1.405(8) . ?
C10 C11 1.371(9) . ?
C10 H10A 0.9500 . ?
C11 C12 1.461(8) . ?
C12 C13 1.370(9) . ?
C12 C27 1.496(7) . ?
C13 C14 1.469(7) . ?
C13 C28 1.472(9) . ?
C14 C15 1.376(8) . ?
C15 C16 1.407(7) . ?
C15 H15A 0.9500 . ?
C16 C17 1.429(8) . ?
C17 C18 1.371(7) . ?
C17 C30 1.502(8) . ?
C18 C19 1.471(8) . ?
C18 C31 1.510(7) . ?
C19 C20 1.406(7) . ?
C20 C33 1.508(6) . ?
C21 C22 1.441(9) . ?
C21 H21A 0.9900 . ?
C21 H21B 0.9900 . ?
C22 H22A 0.9800 . ?
C22 H22B 0.9800 . ?
C22 H22C 0.9800 . ?
C23 H23A 0.9800 . ?
C23 H23B 0.9800 . ?
C23 H23C 0.9800 . ?
C24 C25 1.507(11) . ?
C24 H24A 0.9900 . ?
C24 H24B 0.9900 . ?
C25 H25A 0.9800 . ?
C25 H25B 0.9800 . ?
C25 H25C 0.9800 . ?
C26 H26A 0.9800 . ?
C26 H26B 0.9800 . ?
C26 H26C 0.9800 . ?
C27 H27A 0.9800 . ?
C27 H27B 0.9800 . ?
C27 H27C 0.9800 . ?
C28 C29 1.511(11) . ?
C28 H28A 0.9900 . ?
C28 H28B 0.9900 . ?
C29 H29A 0.9800 . ?
C29 H29B 0.9800 . ?
C29 H29C 0.9800 . ?
C30 H30A 0.9800 . ?
C30 H30B 0.9800 . ?
C30 H30C 0.9800 . ?
C31 C32 1.587(12) . ?
C31 H31A 0.9900 . ?
C31 H31B 0.9900 . ?
C32 H32A 0.9800 . ?
C32 H32B 0.9800 . ?
C32 H32C 0.9800 . ?
C33 C34 1.390(8) . ?
C33 C38 1.401(7) . ?
C34 C35 1.389(7) . ?
C34 H34A 0.9500 . ?
C35 C36 1.377(7) . ?
C35 H35A 0.9500 . ?
C36 C37 1.376(7) . ?
C36 H36A 0.9500 . ?
C37 C38 1.387(6) . ?
C37 H37A 0.9500 . ?
C51 C60 1.396(6) . ?
C51 C52 1.441(6) . ?
C52 C53 1.366(7) . ?
C52 H52A 0.9500 . ?
C53 C54 1.448(6) . ?
C53 H53A 0.9500 . ?
C54 C55 1.386(6) . ?
C55 C56 1.394(6) 2_665 ?
C55 C61 1.506(6) . ?
C56 C57 1.438(6) . ?
C57 C58 1.355(7) . ?
C57 H57A 0.9500 . ?
C58 C59 1.440(6) . ?
C58 H58A 0.9500 . ?
C59 C60 1.394(6) . ?
C60 C67 1.488(6) . ?
C61 C62 1.379(7) . ?
C61 C66 1.412(7) . ?
C62 C63 1.389(7) . ?
C63 C64 1.375(9) . ?
C63 H63A 0.9500 . ?
C64 C65 1.349(9) . ?
C64 H64A 0.9500 . ?
C65 C66 1.386(7) . ?
C65 H65A 0.9500 . ?
C67 C68 1.394(7) . ?
C67 C72 1.395(7) . ?
C68 C69 1.380(7) . ?
C68 H68A 0.9500 . ?
C69 C70 1.378(8) . ?
C69 H69A 0.9500 . ?
C70 C71 1.384(7) . ?
C70 H70A 0.9500 . ?
C71 C72 1.382(7) . ?
C71 H71A 0.9500 . ?
