#------------------------------------------------------------------------------
#$Date: 2023-06-29 12:16:13 +0300 (Thu, 29 Jun 2023) $
#$Revision: 284567 $
#$URL: file:///home/coder/svn-repositories/cod/cif/1/56/93/1569315.cif $
#------------------------------------------------------------------------------
#
# This file is available in the Crystallography Open Database (COD),
# http://www.crystallography.net/
#
# All data on this site have been placed in the public domain by the
# contributors.
#
data_1569315
loop_
_publ_author_name
'Garc&#xed;a-Romero, &#xc1;lvaro'
'Miguel, Daniel'
'Wright, Dominic S.'
'&#xc1;lvarez, Celedonio M'
'Garc&#xed;a-Rodr&#xed;guez, Ra&#xfa;l'
_publ_section_title
;
 Structural and dimensional control of porphyrin capsules using Group 15
 tris(3-pyridyl) linkers.
;
_journal_issue                   24
_journal_name_full               'Chemical science'
_journal_page_first              6522
_journal_page_last               6530
_journal_paper_doi               10.1039/d3sc02151c
_journal_volume                  14
_journal_year                    2023
_chemical_formula_moiety         'C15 H12 Bi Cl2 N3'
_chemical_formula_sum            'C15 H12 Bi Cl2 N3'
_chemical_formula_weight         514.16
_space_group_crystal_system      monoclinic
_space_group_IT_number           14
_space_group_name_Hall           '-P 2ybc'
_space_group_name_H-M_alt        'P 1 21/c 1'
_atom_sites_solution_hydrogens   geom
_atom_sites_solution_primary     dual
_audit_creation_date             2022-05-26
_audit_creation_method
;
Olex2 1.3
(compiled 2020.11.12 svn.r5f609507 for OlexSys, GUI svn.r6408)
;
_audit_update_record
;
2022-08-10 deposited with the CCDC.	2023-05-17 downloaded from the CCDC.
;
_cell_angle_alpha                90
_cell_angle_beta                 134.03(3)
_cell_angle_gamma                90
_cell_formula_units_Z            4
_cell_length_a                   9.4717(14)
_cell_length_b                   15.5617(7)
_cell_length_c                   14.976(2)
_cell_measurement_reflns_used    2602
_cell_measurement_temperature    293(2)
_cell_measurement_theta_max      29.4940
_cell_measurement_theta_min      3.9460
_cell_volume                     1587.1(9)
_computing_cell_refinement       'CrysAlisPro 1.171.38.46 (Rigaku OD, 2015)'
_computing_data_collection       'CrysAlisPro 1.171.38.46 (Rigaku OD, 2015)'
_computing_data_reduction        'CrysAlisPro 1.171.38.46 (Rigaku OD, 2015)'
_computing_molecular_graphics    'Olex2 1.3 (Dolomanov et al., 2009)'
_computing_publication_material  'Olex2 1.3 (Dolomanov et al., 2009)'
_computing_structure_refinement  'SHELXL 2018/3 (Sheldrick, 2015)'
_computing_structure_solution    'SHELXT 2018/2 (Sheldrick, 2018)'
_diffrn_ambient_temperature      293(2)
_diffrn_detector                 'CCD plate'
_diffrn_detector_area_resol_mean 10.4757
_diffrn_detector_type            Atlas
_diffrn_measured_fraction_theta_full 0.997
_diffrn_measured_fraction_theta_max 0.834
_diffrn_measurement_details
;
List of Runs (angles in degrees, time in seconds):

  # Type    Start    End  Width  t~exp~   \w     \q     \k     \f   Frames
#--------------------------------------------------------------------------
  1  \w    -18.00   9.00   1.00    5.48    --   12.36 -37.00-180.00   27
  2  \w    -75.00  93.00   1.00    5.48    --   12.36   0.00-120.00  168
;
_diffrn_measurement_device       'four-circle diffractometer'
_diffrn_measurement_device_type  'SuperNova, Dual, Cu at zero, Atlas'
_diffrn_measurement_method       '\w scans'
_diffrn_orient_matrix_type
'CrysAlisPro convention (1999,Acta A55,543-557)'
_diffrn_orient_matrix_UB_11      -0.0094074000
_diffrn_orient_matrix_UB_12      -0.0268290000
_diffrn_orient_matrix_UB_13      -0.0421961000
_diffrn_orient_matrix_UB_21      -0.1033393000
_diffrn_orient_matrix_UB_22      0.0055692000
_diffrn_orient_matrix_UB_23      -0.0443961000
_diffrn_orient_matrix_UB_31      0.0088358000
_diffrn_orient_matrix_UB_32      0.0364234000
_diffrn_orient_matrix_UB_33      -0.0242975000
_diffrn_radiation_monochromator  mirror
_diffrn_radiation_probe          x-ray
_diffrn_radiation_type           'Mo K\a'
_diffrn_radiation_wavelength     0.71073
_diffrn_reflns_av_R_equivalents  0.0315
_diffrn_reflns_av_unetI/netI     0.0484
_diffrn_reflns_Laue_measured_fraction_full 0.997
_diffrn_reflns_Laue_measured_fraction_max 0.834
_diffrn_reflns_limit_h_max       13
_diffrn_reflns_limit_h_min       -9
_diffrn_reflns_limit_k_max       21
_diffrn_reflns_limit_k_min       -20
_diffrn_reflns_limit_l_max       17
_diffrn_reflns_limit_l_min       -20
_diffrn_reflns_number            8305
_diffrn_reflns_point_group_measured_fraction_full 0.997
_diffrn_reflns_point_group_measured_fraction_max 0.834
_diffrn_reflns_theta_full        25.242
_diffrn_reflns_theta_max         29.764
_diffrn_reflns_theta_min         3.394
_diffrn_source                   'micro-focus sealed X-ray tube'
_diffrn_source_type              'SuperNova (Mo) X-ray Source'
_exptl_absorpt_coefficient_mu    11.441
_exptl_absorpt_correction_T_max  0.441
_exptl_absorpt_correction_T_min  0.052
_exptl_absorpt_correction_type   gaussian
_exptl_absorpt_process_details
;
CrysAlisPro 1.171.38.46 (Rigaku Oxford Diffraction, 2015)
Numerical absorption correction based on gaussian integration over
			a multifaceted crystal model
Empirical absorption correction using spherical harmonics,
 implemented in SCALE3 ABSPACK scaling algorithm.
;
_exptl_crystal_colour            'light yellow'
_exptl_crystal_colour_modifier   light
_exptl_crystal_colour_primary    yellow
_exptl_crystal_density_diffrn    2.152
_exptl_crystal_description       block
_exptl_crystal_F_000             960
_exptl_crystal_size_max          0.387
_exptl_crystal_size_mid          0.237
_exptl_crystal_size_min          0.155
_refine_diff_density_max         1.221
_refine_diff_density_min         -1.082
_refine_diff_density_rms         0.142
_refine_ls_extinction_method     none
_refine_ls_goodness_of_fit_ref   1.013
_refine_ls_hydrogen_treatment    constr
_refine_ls_matrix_type           full
_refine_ls_number_parameters     190
_refine_ls_number_reflns         3779
_refine_ls_number_restraints     0
_refine_ls_restrained_S_all      1.013
_refine_ls_R_factor_all          0.0500
_refine_ls_R_factor_gt           0.0322
_refine_ls_shift/su_max          0.001
_refine_ls_shift/su_mean         0.000
_refine_ls_structure_factor_coef Fsqd
_refine_ls_weighting_details
'w=1/[\s^2^(Fo^2^)+(0.0198P)^2^] where P=(Fo^2^+2Fc^2^)/3'
_refine_ls_weighting_scheme      calc
_refine_ls_wR_factor_gt          0.0580
_refine_ls_wR_factor_ref         0.0659
_reflns_Friedel_coverage         0.000
_reflns_number_gt                2857
_reflns_number_total             3779
_reflns_threshold_expression     'I > 2\s(I)'
_cod_data_source_file            d3sc02151c2.cif
_cod_data_source_block           4
_cod_original_cell_volume        1587.1(6)
_cod_database_code               1569315
_shelx_shelxl_version_number     2018/3
_chemical_oxdiff_formula         'Bi C15 Cl2 H12 N3'
_chemical_oxdiff_usercomment     'yellow needle'
_shelx_space_group_comment
;
The symmetry employed for this shelxl refinement is uniquely defined
by the following loop, which should always be used as a source of
symmetry information in preference to the above space-group names.
They are only intended as comments.
;
_reflns_odcompleteness_completeness 99.67
_reflns_odcompleteness_iscentric 1
_reflns_odcompleteness_theta     26.32
_olex2_refinement_description
;
1.a Aromatic/amide H refined with riding coordinates:
 C12(H12), C13(H13), C14(H14), C15(H15), C22(H22), C23(H23), C24(H24),
 C25(H25), C32(H32), C33(H33), C34(H34), C35(H35)
;
_shelx_res_file
;
TITL agr432crt_a.res in P2(1)/c
    agr432crt.res
    created by SHELXL-2018/3 at 22:09:42 on 15-Feb-2021
REM Old TITL AGR432crt in P2(1)/c
REM SHELXT solution in P2(1)/c: R1 0.083, Rweak 0.036, Alpha 0.033
REM <I/s> 0.292 for 132 systematic absences, Orientation as input
REM Formula found by SHELXT: C14 N4 Cl2 Bi
CELL 0.71073 9.4717 15.5617 14.9761 90 134.03 90
ZERR 4 0.0014 0.0007 0.0023 0 0.026 0
LATT 1
SYMM -X,0.5+Y,0.5-Z
SFAC C H Bi Cl N
UNIT 60 48 4 8 12

L.S. 4 0 0
PLAN  5
CONF
list 4
fmap 2 53
MORE -1
ACTA
BOND $H
REM <olex2.extras>
REM <HklSrc "%.\\AGR432crt.hkl">
REM </olex2.extras>

WGHT    0.019800
FVAR       0.33231
BI1   3    0.789452    0.254529    0.533926    11.00000    0.03378    0.02979 =
         0.03977   -0.00380    0.02678   -0.00515
CL1   4    0.653565    0.140463    0.366334    11.00000    0.06982    0.04506 =
         0.06375   -0.02028    0.05102   -0.01968
N1    5    0.652346    0.149882    0.739945    11.00000    0.07185    0.06366 =
         0.06627   -0.00413    0.05507   -0.01234
CL2   4    0.945954    0.364319    0.712049    11.00000    0.05218    0.04046 =
         0.04786   -0.01005    0.03487   -0.00908
N2    5    1.171402    0.410380    0.529530    11.00000    0.05873    0.05988 =
         0.06312   -0.00743    0.04695   -0.01566
N3    5    0.178683    0.347306    0.230965    11.00000    0.03452    0.05186 =
         0.05069   -0.00757    0.02287    0.00321
C11   1    0.733060    0.165387    0.622660    11.00000    0.02820    0.03815 =
         0.03808   -0.00033    0.02200   -0.00166
C12   1    0.698905    0.198758    0.690251    11.00000    0.05053    0.04352 =
         0.05032   -0.00062    0.03475   -0.00494
AFIX  43
H12   2    0.708374    0.257895    0.702272    11.00000   -1.20000
AFIX   0
C13   1    0.646030    0.065398    0.723546    11.00000    0.05755    0.05604 =
         0.05861    0.00796    0.03806   -0.01161
AFIX  43
H13   2    0.614645    0.030278    0.757926    11.00000   -1.20000
AFIX   0
C14   1    0.682455    0.027423    0.659930    11.00000    0.05403    0.03990 =
         0.05843    0.00684    0.03455   -0.00319
AFIX  43
H14   2    0.679728   -0.032086    0.653149    11.00000   -1.20000
AFIX   0
C15   1    0.723733    0.078841    0.605324    11.00000    0.04407    0.04022 =
         0.05207   -0.00052    0.03132   -0.00347
AFIX  43
H15   2    0.744507    0.055173    0.558222    11.00000   -1.20000
AFIX   0
C21   1    1.006386    0.294277    0.527144    11.00000    0.02904    0.04218 =
         0.03413   -0.00156    0.02069   -0.00362
C22   1    1.056584    0.379952    0.544000    11.00000    0.03885    0.04372 =
         0.05042   -0.00782    0.03370   -0.00842
AFIX  43
H22   2    1.009015    0.417681    0.566118    11.00000   -1.20000
AFIX   0
C23   1    1.240110    0.353360    0.501017    11.00000    0.06033    0.07422 =
         0.06982   -0.01794    0.05363   -0.02661
AFIX  43
H23   2    1.322004    0.373223    0.491811    11.00000   -1.20000
AFIX   0
C24   1    1.197495    0.267359    0.484460    11.00000    0.05241    0.06780 =
         0.06423   -0.01573    0.04720   -0.01045
AFIX  43
H24   2    1.249263    0.230505    0.464372    11.00000   -1.20000
AFIX   0
C25   1    1.077981    0.236333    0.497808    11.00000    0.04532    0.05110 =
         0.04870   -0.00316    0.03545   -0.00546
AFIX  43
H25   2    1.046513    0.178274    0.487410    11.00000   -1.20000
AFIX   0
C31   1    0.525286    0.337152    0.404738    11.00000    0.03408    0.03625 =
         0.04050    0.00001    0.02938    0.00045
C32   1    0.343191    0.300784    0.312378    11.00000    0.04768    0.03318 =
         0.05859   -0.00740    0.03915   -0.00562
AFIX  43
H32   2    0.333748    0.241199    0.306116    11.00000   -1.20000
AFIX   0
C33   1    0.201364    0.432356    0.240314    11.00000    0.03652    0.05111 =
         0.05371    0.00229    0.02197    0.01480
AFIX  43
H33   2    0.090147    0.466089    0.183057    11.00000   -1.20000
AFIX   0
C34   1    0.376347    0.473035    0.328024    11.00000    0.04508    0.03918 =
         0.05831    0.00216    0.03368   -0.00009
AFIX  43
H34   2    0.383102    0.532722    0.330445    11.00000   -1.20000
AFIX   0
C35   1    0.542198    0.424921    0.412595    11.00000    0.03209    0.03780 =
         0.05153   -0.00055    0.02728   -0.00241
AFIX  43
H35   2    0.663683    0.451101    0.474036    11.00000   -1.20000
AFIX   0
HKLF 4




REM  agr432crt_a.res in P2(1)/c
REM wR2 = 0.0659, GooF = S = 1.013, Restrained GooF = 1.013 for all data
REM R1 = 0.0322 for 2857 Fo > 4sig(Fo) and 0.0500 for all 3779 data
REM 190 parameters refined using 0 restraints

END

WGHT      0.0198      0.0000

REM Highest difference peak  1.221,  deepest hole -1.082,  1-sigma level  0.142
Q1    1   0.7609  0.2612  0.4587  11.00000  0.05    1.22
Q2    1   0.9212  0.2460  0.6011  11.00000  0.05    0.88
Q3    1   0.8737  0.2728  0.6427  11.00000  0.05    0.72
Q4    1   0.7966  0.2977  0.5019  11.00000  0.05    0.72
Q5    1   0.6437  0.2560  0.4597  11.00000  0.05    0.63
;
_shelx_res_checksum              50118
_shelx_hkl_file
;
   0   0  -2 5786.33  131.58
   0   0   2 5360.23  130.45
   0   0   3   -0.15    1.87
   0   0  -3    0.76    2.75
   0   0   4 5008.50  130.34
   0   0  -4 5246.45  133.16
   0   0  -5   -0.22    4.51
   0   0   5    1.04    3.41
   0   0  -6  533.35   31.83
   0   0   6  495.79   29.15
   0   0   6  488.56   27.26
   0   0  -7   -2.35    6.93
   0   0   7  -10.47    7.04
   0   0   7   11.81    5.99
   0   0   8   21.48    7.63
   0   0   8    4.56    5.04
   0   0   9   -1.31    5.54
   0   0  10  193.53   22.29
   0   0  11    5.43    7.38
   0   0  12  454.24   38.73
   0   0  13    7.08    6.12
   0   0  14  182.82   30.71
   0  -1   2 1668.36   41.73
   0  -1   2 1672.45   45.11
   0  -1  -3  634.43   27.31
   0  -1   3  591.29   23.56
   0   1  -3  600.71   24.44
   0  -1   3  618.10   20.95
   0  -1  -4 2762.18   81.48
   0  -1   4 2658.26   71.04
   0   1  -4 2741.89   77.70
   0  -1   4 2658.96   75.51
   0   1   4 2658.26   78.55
   0  -1   5  180.05   14.81
   0  -1  -5  173.76   17.13
   0   1  -5  172.00   15.72
   0  -1   5  165.70   12.65
   0  -1   6 6196.82  163.48
   0  -1   6 6220.91  157.81
   0  -1  -6 6164.15  170.80
   0   1   6 6398.68  166.68
   0   1   7   39.51    8.62
   0  -1  -7   39.47   10.25
   0   1   7   46.83    9.35
   0  -1   7   58.53   10.00
   0  -1   7   51.21    9.06
   0  -1   8 1562.26   63.75
   0   1   8 1546.89   64.85
   0  -1  -8 1526.72   70.68
   0  -1   8 1569.95   60.20
   0   1   8 1574.54   65.85
   0   1   9    1.39    6.18
   0  -1   9   -0.88    6.27
   0   1  10 1054.34   57.97
   0  -1  10 1069.54   53.14
   0  -1  11    3.25    5.14
   0   1  11    0.05    6.44
   0   1  12  159.06   24.92
   0  -1  12  162.77   22.09
   0   1  13   -7.43    7.00
   0  -1  13    9.85    7.81
   0  -1  14   -3.42   10.84
   0  -2  -2 9827.89  227.48
   0  -2   2 9722.27  218.64
   0  -2   3  166.12    8.03
   0  -2   3  161.09   10.60
   0  -2  -4 4329.27  117.30
   0  -2   4 4085.28  106.93
   0  -2   4 4162.84  100.54
   0  -2  -5    0.32    5.19
   0  -2   5   10.62    3.85
   0  -2   5    2.47    3.12
   0  -2   6  590.08   30.74
   0  -2  -6  576.08   36.16
   0  -2   6  594.00   26.60
   0  -2   7  165.48   14.39
   0   2   7  152.96   17.24
   0  -2  -7  204.67   22.41
   0  -2   7  191.76   17.91
   0   2   7  168.67   18.48
   0  -2  -8   17.11   11.07
   0  -2   8    6.56    5.31
   0   2   8   -1.67    5.74
   0  -2   8    7.01    4.17
   0  -2  -9   40.16   13.22
   0  -2   9   41.47    8.68
   0   2   9   26.37    9.34
   0  -2  10  198.03   20.42
   0   2  10  228.46   26.87
   0  -2  11   18.04    6.99
   0   2  11   37.80   13.38
   0  -2  12  399.06   38.55
   0   2  12  382.46   38.94
   0  -2  13    9.57   10.59
   0   2  13   32.27   13.45
   0   2  14  181.98   29.76
   0  -2  14  145.70   27.01
   0   3   0   -0.01    2.82
   0  -3   0   -2.10    3.38
   0  -3   1  235.79   10.38
   0  -3  -1  260.68   14.73
   0   3  -1  242.25    9.55
   0   3   1  242.72   15.11
   0   3  -2  972.65   28.97
   0  -3  -2 1045.35   37.98
   0   3   2 1015.06   37.37
   0  -3   2 1073.19   29.73
   0  -3  -3  533.73   27.47
   0  -3   3  508.53   20.24
   0  -3   4 3949.62  102.02
   0  -3  -4 4201.98  115.91
   0  -3   4 3875.07  101.83
   0  -3  -5  284.49   23.51
   0  -3   5  287.36   18.39
   0  -3   5  302.27   14.28
   0  -3   6 1743.31   52.79
   0  -3  -6 1867.01   73.71
   0  -3   6 1789.26   61.05
   0   3   7   70.21   12.24
   0  -3   7   72.88    8.59
   0  -3   7   72.24   10.92
   0  -3  -7   63.08   14.17
   0  -3   8 2239.97   79.82
   0  -3  -8 2323.34   94.57
   0   3   8 2291.35   88.81
   0  -3   8 2247.78   71.16
   0  -3   9    1.90    3.67
   0   3   9  -10.56    9.49
   0  -3  -9   -1.27    9.16
   0  -3 -10  502.49   45.21
   0   3  10  551.45   44.39
   0  -3  10  502.98   37.82
   0   3  11  -10.63    9.16
   0  -3  11    2.59    8.20
   0  -3  12  174.50   25.29
   0   3  12  122.79   23.80
   0  -3  13    6.39    7.92
   0   3  13   -5.00    8.45
   0  -3  14   -2.40    7.20
   0   3  14   16.49   10.46
   0  -4   0 2245.95   70.06
   0   4   0 2538.66   73.23
   0  -4   1  114.97    8.65
   0  -4  -1  107.50   10.44
   0   4  -1  114.08    6.94
   0   4   1  105.19   11.05
   0  -4   2 8708.87  197.46
   0   4   2 8436.82  211.51
   0   4  -2 8730.91  196.61
   0  -4  -2 8950.81  211.41
   0   4   3   38.03    7.63
   0  -4  -3   41.11    8.32
   0  -4   3   42.38    5.30
   0  -4   4 2305.63   66.40
   0  -4  -4 2459.71   81.13
   0  -4   4 2431.67   67.19
   0  -4   5   33.75    6.37
   0  -4  -5   33.68   10.10
   0  -4   5   34.24    6.14
   0  -4   6  818.15   36.68
   0  -4   6  944.86   38.78
   0  -4  -6  859.44   48.21
   0   4   7   11.44    6.78
   0  -4   7    9.45    4.72
   0  -4   7   13.23    5.53
   0  -4  -7   24.44   10.94
   0   4   8  143.17   21.11
   0  -4  -8  140.40   22.85
   0  -4   8  140.84   16.36
   0  -4   8  145.57   17.06
   0  -4   9   41.38    9.40
   0   4   9   32.11   10.77
   0  -4   9   39.93   10.09
   0  -4  -9   35.43   13.98
   0  -4  10  281.65   27.59
   0  -4 -10  313.89   35.68
   0   4  10  300.30   33.70
   0  -4  11  -12.59    8.93
   0   4  11   -1.31    9.88
   0  -4 -11   17.10   12.26
   0  -4  12  179.15   24.75
   0   4  12  176.53   29.38
   0  -4  13   -0.90    8.51
   0   4  13   17.01   11.01
   0   4  14  162.86   30.71
   0  -4  14  258.94   33.48
   0   5   0    4.40    3.96
   0  -5   0   -2.25    3.65
   0   5  -1   51.98    5.39
   0  -5   1   54.63    7.50
   0  -5  -1   65.30    8.95
   0   5   2 1698.39   60.05
   0  -5  -2 1689.75   57.66
   0  -5   2 1711.93   47.10
   0   5  -2 1600.60   44.32
   0  -5  -3   35.87    8.86
   0   5  -3   39.03    4.81
   0  -5   3   47.81    5.69
   0   5   3   37.96    7.85
   0  -5   4 3352.44   89.22
   0  -5  -4 3622.75  108.95
   0  -5   5    5.35    4.32
   0  -5  -5    8.81    7.63
   0  -5   5    0.42    2.50
   0  -5  -6 1389.58   64.43
   0  -5   6 1383.51   49.85
   0  -5   6 1306.69   49.11
   0  -5   7   21.37    6.23
   0   5   7   33.52    9.91
   0  -5  -7   20.74    9.34
   0  -5   7   26.81    7.21
   0  -5   8 2225.35   77.75
   0  -5  -8 2161.61   96.14
   0  -5   8 2217.84   77.90
   0   5   8 2286.57   93.90
   0  -5  -9   -0.53    9.11
   0  -5   9   -1.57    5.07
   0  -5   9   -1.14    4.74
   0   5   9   -3.47   10.10
   0   5  10  486.40   44.83
   0  -5  10  602.40   39.39
   0  -5 -10  555.80   49.65
   0  -5 -11   -8.15   12.98
   0   5  11   -4.45   11.80
   0  -5  11   11.47    8.14
   0   5  12  107.66   24.08
   0  -5  12  106.62   19.26
   0   5  13  -16.06   12.94
   0  -5  13   -1.39    6.88
   0  -5  14    7.31    9.75
   0   5  14   27.46   15.57
   0  -6   0 4223.08  120.27
   0   6   0 4591.07  123.36
   0   6   1 1041.13   49.51
   0  -6  -1 1131.98   44.83
   0   6  -1 1165.87   36.44
   0  -6   1 1175.82   45.53
   0   6  -2 7964.12  182.55
   0   6   2 7598.47  204.99
   0  -6   2 7900.51  188.19
   0  -6  -3   44.24    9.42
   0   6   3   55.58    9.83
   0   6  -3   60.41    6.08
   0  -6   3   48.50    6.11
   0  -6  -4 2802.40   92.72
   0  -6   4 2657.97   73.70
   0  -6   5  206.43   14.74
   0  -6   5  203.91   14.76
   0  -6  -5  220.08   23.12
   0   6   6  181.78   20.78
   0  -6   6  165.32   14.86
   0  -6   6  184.91   15.33
   0  -6  -6  154.62   21.54
   0  -6   7    4.14    4.64
   0  -6  -7   -5.12   10.68
   0  -6   8   73.59   11.97
   0  -6  -8   64.20   16.98
   0  -6   8   62.28   10.94
   0  -6   9   48.80   10.58
   0  -6  -9   46.10   15.13
   0   6   9   27.79   10.70
   0  -6  10  179.43   21.00
   0  -6 -10  196.73   30.77
   0   6  10  193.69   29.51
   0  -6  11   -1.16    7.44
   0   6  11   -7.27   11.79
   0  -6 -11    2.93   10.86
   0  -6  12  222.69   26.63
   0   6  12  220.03   34.73
   0  -6 -12  186.66   35.28
   0  -6  13   21.14   10.96
   0   6  13   13.42   12.40
   0  -6  14  172.27   26.05
   0  -7   0    1.58    4.35
   0   7   0    2.31    3.62
   0  -7  -1  446.79   27.36
   0   7  -1  515.33   22.13
   0   7   1  463.56   32.73
   0  -7   1  483.37   29.80
   0  -7   2  929.35   37.50
   0   7   2  890.01   45.91
   0  -7  -2  920.58   42.69
   0   7  -2  954.76   30.22
   0   7  -3  123.39    8.96
   0  -7   3  126.65   10.68
   0  -7  -3  135.50   16.59
   0   7   3  118.49   15.89
   0  -7  -4 2310.29   83.85
   0  -7   4 2249.60   65.23
   0   7   5   25.56    9.63
   0  -7  -5   12.27    7.65
   0  -7   5   19.41    4.63
   0  -7   5    9.97    4.43
   0  -7   6 2646.46   81.18
   0   7   6 2971.23  103.38
   0  -7  -6 2780.45  105.18
   0  -7   6 2788.04   82.23
   0  -7  -7  175.62   24.10
   0  -7   7  189.35   16.78
   0  -7   7  203.90   17.56
   0  -7   8 1291.01   53.41
   0  -7   8 1360.16   54.95
   0  -7  -8 1298.41   73.17
   0  -7  -9   -2.02   11.57
   0  -7   9   23.04    8.18
   0  -7   9   23.25    7.01
   0   7   9    8.60   10.45
   0  -7 -10  426.39   46.15
   0  -7  10  370.88   29.60
   0   7  10  399.55   42.70
   0   7  11   17.49   13.93
   0  -7 -11   42.79   17.65
   0  -7  11   11.61    6.69
   0  -7  12  100.42   18.16
   0   7  12  103.13   24.49
   0  -7 -12  144.24   28.73
   0   7  13   27.21   15.81
   0  -7  13   10.76    6.73
   0   8   0 5845.39  153.57
   0  -8   0 5515.14  152.43
   0   8   1    6.85    5.41
   0   8  -1    6.32    3.64
   0  -8  -1   20.80    8.11
   0  -8   1   12.67    6.23
   0  -8   2 3712.52  104.91
   0   8   2 3354.11  116.19
   0  -8  -2 3645.98  109.79
   0   8  -2 3625.91   90.96
   0   8  -3   71.58    7.04
   0  -8  -3   55.28   11.16
   0  -8   3   52.24    7.63
   0  -8   4 1494.60   49.96
   0   8   4 1623.40   70.10
   0  -8  -4 1603.72   67.68
   0   8   5  242.59   25.10
   0  -8  -5  254.16   25.94
   0  -8   5  236.84   16.30
   0  -8   6  319.77   20.56
   0  -8  -6  341.63   32.52
   0  -8   6  350.51   21.34
   0  -8   7  111.68   12.78
   0  -8  -7   93.54   19.73
   0  -8   7  104.67   12.41
   0  -8   8   20.01    6.41
   0  -8  -8   11.53   10.38
   0  -8   8   16.73    5.66
   0  -8   9   75.87   12.02
   0   8   9   56.52   16.59
   0  -8   9   67.01   11.57
   0  -8  -9   73.64   20.14
   0   8  10  208.35   32.62
   0  -8 -10  195.86   31.90
   0  -8  10  186.27   20.68
   0  -8  11   21.65    8.81
   0  -8 -11   23.08   17.18
   0   8  11   -2.96   11.01
   0  -8  12  303.26   29.51
   0  -8 -12  356.81   47.55
   0   8  12  346.37   46.17
   0   9   0   -1.89    4.40
   0  -9   0   -2.38    5.01
   0   9  -1  452.02   22.79
   0  -9  -1  488.62   30.09
   0  -9   1  454.91   29.69
   0   9   1  446.52   32.95
   0  -9   2  372.72   25.73
   0  -9  -2  395.99   28.10
   0   9   2  354.38   31.05
   0   9  -2  366.38   18.03
   0  -9  -3   93.21   14.28
   0  -9   3   98.59   11.57
   0   9  -3   86.76    8.05
   0  -9  -4 1147.28   56.73
   0  -9   4 1065.66   41.26
   0   9   4 1176.17   60.13
   0   9  -4 1161.46   38.09
   0  -9  -5  181.19   23.29
   0  -9   5  182.94   14.59
   0   9   5  204.33   24.02
   0  -9   6 2789.47   81.62
   0  -9  -6 2653.09  106.33
   0  -9   6 2702.28   81.14
   0  -9   7    4.48    4.66
   0  -9   7   11.10    4.81
   0  -9  -7   10.86    7.94
   0  -9  -8  594.60   50.72
   0  -9   8  634.11   33.86
   0   9   8  627.97   51.56
   0  -9   8  666.29   35.67
   0  -9   9    4.00    5.76
   0   9   9  -15.60   13.64
   0  -9   9   -1.94    4.48
   0  -9  -9   -9.59   14.57
   0  -9  10  299.01   25.17
   0   9  10  330.83   41.29
   0  -9 -10  350.50   43.58
   0   9  11   36.31   10.44
   0  -9 -11   15.79   12.56
   0  -9  11   37.25    9.90
   0   9  12   41.03   19.31
   0  10   0 5837.33  155.87
   0 -10   0 5617.43  156.21
   0  10  -1  348.34   20.24
   0 -10  -1  333.43   25.40
   0  10   1  359.11   29.67
   0 -10   1  329.02   24.90
   0 -10  -2 1591.83   64.77
   0  10  -2 1567.17   49.03
   0 -10   2 1657.09   64.73
   0  10   3   70.40   14.07
   0  10  -3   95.52    8.88
   0 -10   3  102.05   13.16
   0  10  -3   97.43    7.80
   0 -10  -3   88.59   14.41
   0  10  -4 1133.53   37.14
   0  10   4 1112.16   60.81
   0  10  -4 1018.26   27.32
   0 -10   4 1071.23   43.22
   0 -10  -4 1011.31   54.40
   0 -10   5  227.64   17.14
   0 -10  -5  236.42   26.33
   0  10   5  176.20   23.62
   0 -10  -6   97.60   19.10
   0 -10   6  101.20   11.41
   0 -10   6   73.40   10.10
   0 -10  -7   13.26   11.74
   0 -10   7   24.10    6.06
   0 -10   7   14.25    5.68
   0  10   8   -3.05   10.51
   0 -10  -8   24.79   13.75
   0 -10   8   10.44    5.33
   0 -10   8   10.19    5.13
   0 -10  -9   32.51   13.56
   0  10   9   35.35   14.33
   0 -10   9   52.04   10.02
   0 -10 -10  127.61   27.02
   0  10  10  141.88   28.48
   0 -10  10  179.78   18.93
   0 -10 -11   54.69   19.20
   0  10  11   71.51   20.59
   0 -11   0   -2.61    3.94
   0  11   0    0.70    4.57
   0  11   1  204.24   22.59
   0 -11  -1  172.27   18.23
   0 -11   1  200.07   19.28
   0  11  -1  185.34   14.94
   0 -11   2  333.78   25.52
   0 -11  -2  300.37   25.65
   0  11  -2  322.79   18.18
   0  11  -3  187.48   12.79
   0  11   3  177.75   24.21
   0 -11  -3  180.76   21.08
   0  11  -3  194.50   12.14
   0 -11   3  201.13   19.58
   0 -11  -4  864.22   51.86
   0  11   4  822.75   54.44
   0  11  -4  912.81   26.37
   0  11  -4  902.46   33.36
   0 -11   5  228.30   18.11
   0 -11  -5  207.06   25.36
   0 -11  -6 1191.98   67.70
   0 -11   6 1229.40   48.07
   0 -11   6 1303.12   47.28
   0 -11   7   18.80    5.73
   0 -11  -7   25.36   13.14
   0 -11   7    4.58    3.87
   0  11   8  624.38   54.67
   0 -11  -8  613.66   52.74
   0 -11   8  600.15   32.65
   0 -11   9    3.95    4.43
   0 -11  -9  -18.89   15.89
   0  11   9   -4.45   14.73
   0  11  10  356.27   47.01
   0 -11 -10  413.66   48.11
   0  11  11  -29.77   15.79
   0 -11 -11    1.14   11.30
   0  12   0 1873.10   67.68
   0 -12   0 1820.43   69.56
   0  12  -1  100.72   11.31
   0 -12  -1   71.96   12.15
   0 -12   1   89.32   12.75
   0  12   2 2067.01   88.34
   0 -12  -2 2153.84   82.62
   0 -12   2 2303.11   79.43
   0  12  -2 2240.19   65.50
   0  12  -3   52.41    6.56
   0  12   3   40.09   12.18
   0 -12  -3   58.69   13.12
   0  12  -3   53.81    7.15
   0 -12   3   64.54   11.32
   0  12  -4  601.87   25.99
   0 -12  -4  604.32   42.71
   0  12   4  562.71   45.58
   0 -12   4  658.67   35.98
   0  12  -4  626.89   21.13
   0 -12  -5   -0.10    6.79
   0 -12   5    3.29    4.45
   0 -12   6   23.63    6.29
   0 -12   6   20.12    5.83
   0 -12  -7  164.20   26.20
   0 -12   7  163.72   15.47
   0 -12  -8    4.58   10.51
   0 -12   8    1.84    3.74
   0  12   8    5.22   10.33
   0  12   9   43.94   15.45
   0 -12  -9   84.30   22.07
   0 -12 -10  136.83   28.96
   0  12  10  111.69   28.58
   0 -13   0    1.82    4.93
   0  13  -1  199.40   16.28
   0 -13   1  179.43   18.35
   0 -13  -1  184.55   19.96
   0  13   1  186.99   21.25
   0  13   2  386.92   33.20
   0  13  -2  365.49   20.77
   0 -13  -2  316.91   28.21
   0  13  -2  391.36   22.56
   0 -13   2  389.50   27.41
   0  13  -3  314.22   17.86
   0 -13   3  284.00   23.71
   0  13   3  290.65   30.77
   0 -13  -3  301.88   28.83
   0  13  -3  289.98   17.02
   0  13  -4 1015.79   36.99
   0  13  -4 1075.22   32.53
   0 -13   4 1074.67   49.74
   0 -13  -4  973.34   57.13
   0 -13   5   55.85   10.20
   0 -13  -5   55.00   14.10
   0 -13   6  390.92   25.63
   0 -13  -6  338.56   36.44
   0 -13  -7   10.74   11.09
   0  13   7   13.65   14.10
   0 -13   7    3.00    3.63
   0 -13  -8  710.02   59.94
   0  13   8  990.74   72.57
   0  13   9   12.55   14.40
   0 -13  -9   -6.42   12.13
   0  13  10  192.63   36.45
   0 -13 -10  226.07   36.86
   0 -14   0  627.91   36.95
   0 -14   1    8.36    5.67
   0  14   1    9.73    4.48
   0  14  -1    4.09    4.34
   0 -14  -1    5.66    5.53
   0  14  -2 1474.63   53.63
   0 -14  -2 1491.16   67.40
   0 -14   2 1548.99   60.49
   0  14   2 1540.29   72.31
   0  14  -2 1524.29   51.18
   0  14  -3   23.31    5.01
   0 -14   3   14.46    5.43
   0 -14  -3   28.85   10.99
   0  14  -3   20.37    4.87
   0  14  -4  393.32   17.40
   0 -14   4  377.16   27.23
   0 -14  -4  392.79   35.66
   0  14  -4  404.61   20.66
   0 -14   5  106.70   13.89
   0 -14  -5  118.68   21.44
   0  14   6   90.20   21.01
   0 -14  -6  101.38   20.91
   0 -14   6   99.61   13.22
   0  14   7  114.99   24.01
   0 -14  -7  177.40   28.03
   0 -14  -8   55.71   18.63
   0  14   8   63.74   20.73
   0 -14  -9   68.49   19.98
   0  14   9   34.49   16.09
   0  15   0   -2.02    4.34
   0  15   0    0.21    4.34
   0 -15   0    2.74    4.65
   0 -15   1  224.70   20.73
   0  15  -1  195.68   18.16
   0  15   1  215.46   22.26
   0 -15  -1  244.08   23.68
   0 -15   2  252.84   21.20
   0  15   2  288.45   28.93
   0 -15  -2  255.91   25.72
   0  15  -2  243.33   17.30
   0  15  -2  258.70   19.33
   0  15  -3  121.86   11.62
   0 -15   3  143.37   15.17
   0 -15  -4  496.11   40.58
   0 -15   4  497.29   29.81
   0  15  -4  522.36   21.43
   0 -15  -5   12.16    9.96
   0  15   5    8.18    8.68
   0  15   6  613.96   51.96
   0 -15  -6  407.91   41.27
   0  15   7   22.68   12.72
   0 -15  -7   14.96    9.78
   0 -15  -8  445.55   47.98
   0  15   8  524.94   54.90
   0 -15  -9   16.59   11.17
   0 -16   0  874.73   45.47
   0  16   0  843.35   44.88
   0  16   1   -3.34    5.26
   0 -16  -1   -7.78    6.36
   0 -16   1    0.34    4.21
   0  16   1   -5.31    7.87
   0  16  -1   -0.22    3.77
   0 -16  -2  608.28   41.52
   0 -16   2  679.95   35.33
   0  16  -2  622.04   32.47
   0  16   2  640.58   43.13
   0 -16   3   41.65    8.46
   0  16   3   41.37   13.05
   0 -16  -3   38.54   11.00
   0  16  -3   46.09    7.17
   0  16   4  325.30   34.40
   0 -16  -4  283.69   30.93
   0 -16  -5  100.37   20.46
   0  16   5  131.45   23.43
   0 -16  -6    7.50   11.59
   0  16   6    3.57    7.51
   0  16   7  102.25   24.43
   0 -16  -7   96.49   23.02
   0 -16  -8    0.08    9.55
   0 -17   0    0.69    5.69
   0  17   0    4.12    5.63
   0  17  -1  184.14   18.58
   0 -17  -1  191.67   21.60
   0  17   1  171.13   20.80
   0 -17   1  171.75   18.06
   0  17   2  114.50   19.06
   0 -17  -2  109.32   17.74
   0  17  -2   73.19   10.82
   0  17   3   55.84   13.02
   0 -17  -3   79.55   15.65
   0  17   4  251.04   30.65
   0 -17  -4  270.92   30.61
   0  17   5   17.00   11.99
   0 -17  -5   24.59   12.51
   0 -17  -6  489.49   45.62
   0  17   6  517.59   50.51
   0 -17  -7    2.97    9.57
   0  17   7    6.26   11.27
   0 -17  -8  127.31   26.84
   0  18   0  845.16   46.56
   0  18   1    4.63    5.92
   0  18  -1   10.67    5.63
   0 -18  -1    7.76    5.53
   0 -18  -2  246.64   26.73
   0  18   2  238.96   27.14
   0  18   3   24.22    9.63
   0 -18  -3    9.37    7.17
   0  18   4  158.58   24.50
   0 -18  -4  136.13   22.38
   0  18   5   57.91   17.73
   0 -18  -5  101.53   20.00
   0  18   6   48.59   16.42
   0 -18  -6   34.86   14.05
   0 -18  -7   48.61   17.19
   0  19   0    6.90    6.61
   0  19   1   98.20   16.69
   0  19   2   50.94   12.75
   0  19   3   76.47   17.56
   0 -19  -4  204.10   26.89
   0  19   4  206.65   29.31
   0 -19  -5   53.44   15.51
   0  19   5   72.09   18.27
   0 -19  -6  277.12   35.07
   0 -19  -7  -11.08   11.23
   0  20   1   36.40   10.10
   0  20   2  184.43   24.66
   0  20   3   14.53    9.02
   0  20   4  126.34   23.39
   0  21   2   34.50   11.22
   0  21   3   56.79   15.24
  -1   0  14   16.76    9.81
  -1   0  13   -5.35    9.26
  -1   0  12  750.26   49.01
   1   0 -11   -5.02    8.21
  -1   0  11    1.67    5.56
  -1   0  10  930.03   49.98
   1   0 -10  932.10   55.32
  -1   0   9   -3.63    6.16
   1   0  -9    3.51    8.33
  -1   0   8 2739.58   88.05
   1   0  -8 2545.64   92.85
  -1   0   7   -3.96    5.66
   1   0  -7   -1.09    5.58
  -1   0   6 4308.63  118.18
   1   0  -6 4458.14  123.72
  -1   0   5   -0.99    3.10
   1   0  -5    2.11    3.59
   1   0  -4  340.16   19.15
  -1   0   4  310.21   17.32
   1   0  -3    5.16    3.17
  -1   0   3    2.07    2.37
  -1   0  -1    0.08    1.55
  -1   0  -2 5909.83  140.16
   1   0   2 5781.98  140.97
   1   0   3    0.92    2.99
   1   0   4 5873.41  149.55
   1   0   5   -2.32    4.66
   1   0   5   -1.41    4.72
   1   0   6 3702.63  111.31
   1   0   6 3824.42  116.25
   1   0   7    5.41    5.41
   1   0   7   -2.71    4.86
   1   0   8  999.84   50.70
   1   0   9   -6.68    6.58
   1   0  10  332.97   31.65
   1   0  11   -2.94   10.39
   1   0  12   41.72   14.62
  -1   1  14  228.96   30.36
  -1  -1  13   -0.82    6.34
  -1   1  13    0.35    8.11
  -1  -1  12  474.65   35.81
  -1   1  12  487.18   41.32
   1  -1 -12  458.98   43.88
  -1   1  11   11.55    6.46
   1  -1 -11   34.18   14.56
  -1  -1  11   21.66    7.90
  -1  -1  10   66.43   11.99
   1  -1 -10   99.59   18.88
   1   1 -10   98.70   17.82
  -1   1   9    5.28    5.22
   1   1  -9   12.98    7.79
   1  -1  -9    6.09    8.31
  -1  -1   9   -2.97    5.46
  -1   1   8   16.25    6.05
   1   1  -8   36.86   10.23
  -1  -1   8   15.45    5.94
   1  -1  -8   22.77    9.70
  -1  -1   7    4.06    3.81
  -1   1   7    3.93    3.55
   1   1  -7    4.89    4.85
   1  -1  -7    0.91    5.37
  -1   1   6 1396.59   52.74
  -1  -1   6 1456.84   50.19
   1   1  -6 1387.36   52.07
   1  -1  -6 1427.42   57.18
   1  -1  -5  288.44   20.51
   1   1  -5  269.89   17.64
  -1  -1   5  242.55   15.73
  -1   1   5  259.97   18.26
   1   1  -4 1676.40   49.85
  -1  -1   4 1550.73   47.84
   1  -1  -4 1749.42   56.37
  -1   1   4 1647.27   53.77
  -1  -1   3   72.60    6.32
   1   1  -3   70.66    6.20
   1  -1  -3   84.12    9.66
  -1   1  -1  161.65   10.07
   1  -1   1  165.33   10.27
  -1  -1  -1  142.37    9.89
   1   1   1  155.74   10.38
   1  -1   2  778.32   29.56
  -1   1  -2  747.18   26.35
   1   1   2  807.11   29.88
   1   1   3  122.99   11.65
   1  -1   3  141.01   10.95
   1  -1   3  118.22   11.31
   1   1   4  239.57   17.83
   1  -1   4  218.16   15.51
   1  -1   4  233.20   17.81
   1   1   5   35.25    8.02
   1  -1   5   34.49    8.09
   1  -1   5   28.05    6.20
   1  -1   6   50.69    9.76
   1   1   6   63.66   11.18
   1  -1   6   48.69   10.40
   1   1   6   57.54   10.67
   1  -1   7   -8.05    5.18
   1   1   7   -1.82    5.65
   1  -1   7    5.80    5.36
   1   1   8  131.07   18.56
   1  -1   8   96.02   14.43
   1   1   9   13.55    7.91
   1  -1   9    6.29    8.27
   1  -1  10  506.83   42.03
   1   1  10  433.18   38.28
   1  -1  11    8.75    9.20
   1   1  11   19.69    9.74
   1  -1  12  307.34   37.13
   1   1  12  376.40   42.70
  -1  -2  15  -20.16   12.90
  -1   2  15  -18.38   11.00
  -1   2  14   46.18   16.41
  -1  -2  13   -0.16    4.93
  -1   2  13   14.54    8.18
  -1   2  12  438.33   41.23
  -1  -2  12  460.21   33.20
   1  -2 -12  449.90   44.41
  -1   2  11   28.88   12.44
   1  -2 -11   47.63   15.23
  -1  -2  11   28.57    7.98
  -1  -2  10 1401.28   56.38
   1  -2 -10 1270.01   70.52
  -1  -2  10 1362.88   59.67
  -1  -2   9   51.65    8.71
  -1   2   9   62.68   12.11
  -1  -2   9   44.77    9.38
   1  -2  -9   36.05   11.56
  -1  -2   8 2613.08   82.75
   1   2  -8 2473.68   85.95
   1  -2  -8 2445.48   94.86
  -1   2   8 2595.47   88.75
  -1  -2   7   45.00    7.76
   1   2  -7   36.36    7.80
   1  -2  -7   40.03   10.38
   1  -2  -6 4170.17  122.94
   1   2  -6 4042.58  110.35
  -1  -2   6 3915.82  106.97
   1   2  -5  789.16   31.58
  -1  -2   5  810.73   30.60
   1  -2  -5  872.76   40.81
   1   2  -4 1759.37   50.09
   1  -2  -4 1819.70   62.41
  -1  -2   4 1770.16   49.39
  -1  -2   3   96.85    6.20
   1  -2  -3   97.82   11.66
   1   2  -3  105.66    6.24
   1  -2  -2   38.66    8.94
   1   2  -1    7.97    1.61
  -1  -2   1    9.59    2.04
   1  -2   0 1805.94   47.09
  -1  -2   0 1715.44   45.69
   1   2   0 1703.69   47.30
   1   2   0 1684.20   46.16
  -1   2   0 1680.13   46.27
   1  -2   1 2740.92   70.57
  -1  -2  -1 2813.84   72.78
   1   2   1 2589.11   72.16
   1   2   1 2763.16   73.05
  -1   2  -1 2690.76   70.22
  -1   2  -2 3169.86   81.59
  -1  -2  -2 3415.28   91.26
   1   2   2 3328.81   89.54
   1  -2   2 3443.69   87.76
  -1   2  -3  129.21    9.40
   1  -2   3  143.51   12.11
   1  -2   3  133.37   11.98
  -1  -2  -3  136.60   13.91
   1   2   3  133.97   12.83
   1   2   4 4639.07  127.94
  -1  -2  -4 4827.83  133.00
   1  -2   4 4572.66  125.06
   1  -2   4 4757.36  126.31
   1  -2   5   83.02   11.82
  -1  -2  -5   58.66   11.87
   1   2   5   55.53   10.02
   1  -2   5   47.53    9.15
   1   2   6 3526.22  112.62
   1  -2   6 3425.49  107.67
   1  -2   6 3603.03  108.80
   1   2   6 3535.52  111.01
   1   2   7  116.77   16.51
   1  -2   7  132.14   17.36
   1  -2   7  130.10   16.70
   1  -2   8 1305.10   61.65
   1   2   8 1163.72   60.78
   1   2   9   15.96    8.91
   1  -2   9    5.01    9.64
   1  -2  10  353.54   34.69
   1   2  10  382.74   36.73
   1   2  11   14.00    9.79
   1  -2  11    2.06    7.17
   1   2  12   58.45   16.09
   1  -2  12   58.40   17.45
   1  -2  13   -0.98   10.37
  -1  -3  15   -5.61    9.00
  -1   3  15   -1.12    8.29
  -1   3  14  243.00   35.57
  -1  -3  14  270.18   32.83
   1  -3 -13   13.28   13.50
  -1   3  13  -28.40   13.94
   1  -3 -12  286.77   36.48
  -1  -3  12  275.89   23.44
  -1   3  12  230.53   31.31
   1  -3 -11   69.14   18.21
  -1  -3  11   80.13   11.95
  -1   3  11   61.99   16.15
   1  -3 -10  268.83   32.07
  -1  -3  10  286.00   24.18
  -1  -3  10  266.59   20.36
   1  -3  -9   -1.28    8.20
  -1  -3   9   15.72    5.72
  -1  -3   9    4.25    3.07
  -1  -3   8   25.82    6.84
   1  -3  -8   34.62   12.71
  -1   3   8   29.72    9.11
  -1  -3   8   26.69    5.89
  -1  -3   7   49.31    8.19
   1  -3  -7   36.92   12.13
   1  -3  -6  982.22   49.03
  -1  -3   6  903.37   35.06
  -1  -3   5  199.05   12.68
   1  -3  -5  218.45   20.69
  -1  -3   4 5846.64  138.16
   1  -3  -4 6218.58  161.67
  -1  -3   3  172.41    7.39
   1  -3  -3  171.78   17.05
  -1   3   2 4883.49  143.09
   1  -3  -2 5218.58  145.90
  -1  -3   2 5140.98  117.43
  -1   3   1    5.55    3.45
   1   3  -1    3.14    1.91
   1   3  -1    2.87    1.28
  -1  -3   1    3.86    1.38
  -1  -3   1    5.06    2.12
   1  -3  -1    3.97    2.94
   1   3   0 5392.91  129.14
   1   3   0 5242.25  127.81
  -1   3   0 5287.45  127.87
   1  -3   0 5520.25  129.09
  -1  -3   0 5454.39  126.78
   1   3   1  617.56   26.23
  -1   3  -1  655.02   24.04
  -1  -3  -1  636.63   26.02
   1   3   1  612.88   26.48
   1  -3   1  700.76   24.93
  -1  -3  -2 6224.30  153.43
   1   3   2 6059.79  153.10
   1  -3   2 6056.58  147.56
  -1   3  -2 6134.20  146.84
   1   3   2 5933.76  152.50
  -1  -3  -3   28.61    6.81
   1  -3   3   26.34    5.55
   1   3   3   26.38    6.93
  -1   3  -3   23.26    3.86
  -1  -3  -4 1406.48   56.26
   1  -3   4 1380.34   50.05
   1   3   4 1403.11   54.28
   1  -3   4 1309.08   48.84
  -1  -3  -5   67.68   13.43
   1   3   5   64.01   11.47
   1  -3   5   60.60    9.80
   1  -3   5   84.63   11.30
   1   3   6   33.53    9.28
  -1  -3  -6   27.33   12.07
   1  -3   6   27.14    8.27
   1   3   6   31.40   10.37
   1  -3   6   24.31    7.57
   1  -3   7    1.80    5.68
   1  -3   7   -2.78    4.67
  -1  -3  -7   14.19   10.18
   1   3   7   -1.01    6.19
   1   3   8  324.95   31.40
   1  -3   8  331.10   28.52
   1   3   9   23.25   10.63
   1  -3   9   28.43   10.84
   1   3  10  359.79   37.30
   1  -3  10  368.91   34.71
   1   3  11    4.22    8.56
   1  -3  11    8.37    9.35
   1   3  12  274.46   35.71
   1  -3  12  248.38   31.94
   1  -3  13   12.97    9.90
  -1  -4  15   -9.63    9.61
  -1   4  15   -0.19   10.19
  -1   4  14   86.11   21.99
  -1  -4  14   42.72   14.44
   1  -4 -13   10.54   12.53
  -1  -4  13   -0.61    8.20
  -1   4  13  -20.71   14.41
  -1  -4  12  207.12   24.63
   1  -4 -12  223.80   33.19
  -1   4  12  181.44   28.25
   1  -4 -11   -0.80    9.74
  -1  -4  11    2.71    3.98
  -1  -4  10 1388.38   59.36
  -1  -4  10 1442.30   50.83
   1  -4 -10 1532.17   80.68
  -1  -4   9   -1.31    3.50
   1  -4  -9  -12.58   11.62
  -1  -4   9    0.65    4.29
   1  -4  -8 2370.53   96.50
  -1  -4   8 2233.87   73.80
  -1   4   8 2371.02   88.15
  -1  -4   8 2308.53   63.90
  -1  -4   7   -3.10    4.08
  -1  -4   7    0.07    1.74
  -1  -4   6 2903.37   80.09
  -1  -4   6 2894.55   70.09
   1  -4  -6 3099.75  104.40
   1  -4  -5   76.45   13.28
  -1  -4   5   77.00    7.20
  -1  -4   4 3115.66   75.68
  -1  -4   4 3095.90   75.07
   1  -4  -4 3160.69  100.91
  -1  -4   3   97.67    5.11
  -1   4   3   85.21   12.81
   1  -4  -3   97.30   13.86
  -1   4   2  237.90   22.16
   1  -4  -2  204.66   20.75
   1   4  -2  261.18   11.19
   1   4  -1   78.05    7.00
  -1   4   1   91.89   10.29
  -1  -4   1   86.23    5.71
   1  -4  -1   79.22   11.09
   1   4  -1   88.41    7.04
  -1  -4   0  245.21   13.08
   1   4   0  228.97   13.55
   1  -4   0  249.67   14.81
   1   4   0  223.22   13.86
  -1   4   0  218.16   13.08
  -1   4  -1   35.42    4.79
   1   4   1   45.52    7.20
   1  -4   1   37.69    5.55
   1   4   1   42.81    6.81
  -1  -4  -1   37.72    6.03
  -1  -4  -2 6594.21  167.70
  -1   4  -2 6738.30  160.06
   1   4   2 6806.07  168.51
   1  -4   2 6591.74  160.75
   1   4   2 6643.09  168.09
  -1   4  -3  243.64   11.85
   1   4   3  268.84   20.09
   1  -4   3  239.46   16.15
  -1  -4  -3  240.72   19.75
   1   4   4 2276.32   77.89
  -1  -4  -4 2198.80   78.85
   1  -4   4 2323.97   71.13
   1  -4   5   -2.64    5.28
  -1  -4  -5    0.88    6.01
   1   4   5   -1.88    5.88
   1  -4   5    0.48    3.52
   1  -4   6 2344.00   79.26
   1  -4   6 2313.78   78.72
  -1  -4  -6 2220.93   88.82
   1   4   6 2280.09   86.39
   1   4   6 2344.21   86.95
   1  -4   7    3.97    4.85
  -1  -4  -7   -0.28    9.26
   1  -4   7    0.09    5.02
   1   4   7    7.03    7.52
   1   4   8 1928.06   84.86
  -1  -4  -8 1916.69   89.82
   1  -4   8 1809.17   75.14
   1  -4   9   -8.21    8.49
   1   4   9  -10.42    9.05
   1   4  10  267.12   33.44
   1  -4  10  264.52   28.86
   1  -4  11   -6.68    8.51
   1   4  11   16.76   12.38
   1  -4  12   57.18   15.66
   1   4  12   38.62   14.89
   1   4  13   22.53   12.48
   1  -4  13   14.57   11.08
  -1  -5  15    2.43    9.09
  -1   5  15   52.83   19.54
   1  -5 -14  287.51   41.70
  -1   5  14  224.67   37.90
  -1  -5  14  237.51   28.90
   1  -5 -13   18.05   13.66
  -1  -5  13    8.73    7.33
  -1   5  13    2.57   11.26
  -1  -5  12  167.67   21.60
   1  -5 -12  185.18   31.50
  -1   5  12   99.55   22.60
  -1  -5  11   11.81    7.02
   1  -5 -11    9.97   12.38
  -1  -5  10  211.35   20.89
  -1  -5  10  202.06   19.95
   1  -5 -10  228.03   30.59
  -1  -5   9   48.53    9.58
   1  -5  -9   79.19   17.54
  -1  -5   9   67.57   10.89
  -1   5   8   26.97    9.43
   1  -5  -8   34.25   14.27
  -1  -5   8   10.31    4.80
  -1  -5   8   29.57    6.62
  -1  -5   7   34.34    6.57
  -1  -5   7   59.02    8.30
   1  -5  -7   62.73   14.51
   1  -5  -6  648.04   42.16
  -1  -5   6  617.77   26.07
  -1  -5   6  641.31   26.53
   1  -5  -5  330.59   28.00
  -1  -5   5  344.08   15.96
  -1  -5   5  375.93   16.46
   1  -5  -4 6087.16  172.66
  -1  -5   4 6246.68  141.61
  -1  -5   4 6161.44  141.38
  -1   5   3   -4.04    5.34
   1  -5  -3   -0.60    5.47
  -1   5   2 5133.94  150.84
   1   5  -2 5002.09  121.21
   1   5  -2 5216.93  116.93
   1  -5  -2 4758.86  149.10
  -1  -5   2 5250.25  117.39
  -1  -5   1   13.56    2.88
  -1   5   1    6.05    2.71
   1   5  -1   11.32    3.43
   1  -5  -1    9.24    4.75
   1   5  -1    6.45    2.68
   1   5   0 4064.58  107.26
   1  -5   0 4121.40  110.70
  -1   5   0 4127.93  105.84
   1   5   0 4240.51  107.29
  -1  -5   0 4183.06  104.31
  -1  -5  -1   33.18    6.60
   1   5   1   36.19    6.76
   1   5   1   40.91    6.75
   1  -5   1   32.44    5.87
  -1   5  -1   41.17    5.78
  -1  -5  -2 5817.51  150.61
   1  -5   2 5800.22  143.06
  -1   5  -2 5823.03  141.72
   1   5   2 5703.00  151.03
   1   5   2 5803.93  151.40
   1  -5   3  223.05   15.35
  -1  -5  -3  173.79   17.42
  -1   5  -3  208.50   10.27
   1   5   3  234.13   19.81
   1   5   3  195.88   17.89
  -1   5  -4  667.67   22.68
   1   5   4  682.00   37.89
  -1  -5  -4  638.71   37.55
   1  -5   4  677.73   31.26
   1  -5   5   32.14    7.47
   1   5   5   47.28   10.60
   1   5   5   40.37   10.31
   1  -5   5   41.76    8.36
  -1  -5  -5   34.17   10.30
  -1  -5  -6    9.93    9.40
   1   5   6   -3.74    8.20
   1  -5   6   16.08    6.00
   1  -5   6   17.84    6.83
   1  -5   7   87.74   13.49
  -1  -5  -7   97.21   18.06
   1   5   7   91.33   17.13
   1  -5   7   85.35   13.91
   1   5   8  422.36   38.47
   1  -5   8  392.88   31.74
  -1  -5  -8  425.65   40.25
   1   5   9   -8.60   10.32
   1  -5   9    2.02    6.73
   1   5  10  148.91   26.44
   1  -5  10  177.12   23.34
   1  -5  11    0.43    8.83
   1   5  11   16.27   12.47
   1   5  12  287.18   40.63
   1  -5  12  277.76   33.19
   1   5  13   10.91    9.97
   1  -5  13   -1.07    8.94
  -1   6  15   -6.80   13.01
  -1   6  14   17.62   15.31
  -1  -6  14   65.16   15.51
  -1  -6  13    4.50    6.86
   1  -6 -13    8.43   15.94
  -1   6  13   -8.76   13.32
   1  -6 -12  259.46   37.45
  -1  -6  12  275.33   27.11
  -1   6  12  211.78   33.34
  -1  -6  11   34.90   10.02
   1  -6 -11   16.18   12.38
  -1  -6  10 1181.60   52.13
  -1  -6  10 1195.25   52.84
   1  -6 -10 1203.91   75.45
  -1  -6   9   45.48    8.58
   1  -6  -9   55.18   16.96
  -1  -6   9   42.15    8.33
  -1  -6   8 1795.82   60.16
   1  -6  -8 1837.08   87.08
  -1  -6   8 1706.25   59.58
  -1  -6   7  171.76   13.81
  -1  -6   7  194.06   14.63
   1  -6  -7  156.79   22.80
  -1  -6   6 1670.51   50.58
   1  -6  -6 1642.65   74.86
  -1  -6   6 1666.13   50.28
  -1  -6   5  175.25   10.48
   1  -6  -5  139.28   19.03
  -1  -6   5  159.96    9.99
  -1   6   4 2189.00   82.90
  -1  -6   4 2109.88   53.25
   1  -6  -4 2111.07   81.60
  -1  -6   4 2151.57   54.34
   1  -6  -3  997.33   51.93
  -1  -6   3 1213.22   35.84
  -1   6   3 1076.23   55.92
   1   6  -3 1139.93   29.02
   1   6  -2   43.67    5.28
   1  -6  -2   35.28    9.23
  -1  -6   2   45.00    4.65
  -1   6   2   43.86   10.59
   1   6  -2   42.60    4.35
   1   6  -1  326.42   17.21
   1  -6  -1  304.54   25.79
   1   6  -1  263.84   18.90
  -1   6   1  319.72   22.06
  -1  -6   1  331.66   15.32
   1  -6   0  769.26   36.79
  -1  -6   0  817.64   31.12
   1   6   0  851.77   33.46
   1   6   0  751.89   33.78
  -1   6   0  851.27   32.77
   1  -6   1  317.50   19.12
  -1  -6  -1  328.29   20.05
   1   6   1  319.87   20.78
  -1   6  -1  313.20   16.86
   1   6   1  317.23   21.06
  -1  -6  -2 2602.95   82.09
   1  -6   2 2730.59   75.86
   1   6   2 2623.02   83.23
   1   6   2 2657.71   83.78
  -1   6  -2 2626.52   73.26
  -1  -6  -3   74.24   11.09
   1  -6   3   60.96    8.46
  -1   6  -3   74.04    8.43
   1   6   3   79.04   12.00
   1   6   4 2439.50   86.71
   1  -6   4 2400.80   74.65
  -1   6  -4 2464.01   61.14
  -1  -6  -4 2446.59   86.96
   1   6   4 2539.12   87.30
   1  -6   5   -0.88    5.01
   1   6   5   13.69    6.48
   1   6   5   17.83    8.97
   1  -6   5   10.13    4.03
  -1  -6  -5   -6.45    9.39
   1  -6   6 2163.53   74.99
   1  -6   6 2252.01   76.75
   1   6   6 2186.50   89.01
  -1  -6  -6 2164.15   89.53
   1  -6   7   38.63    9.52
   1   6   7   48.96   13.27
   1  -6   7   62.70   11.40
  -1  -6  -7   56.19   15.67
   1   6   8 1160.56   67.00
   1  -6   8 1080.76   52.90
  -1  -6  -8 1051.87   66.25
   1   6   9    6.34    8.62
  -1  -6  -9   26.48   14.98
   1  -6   9   11.34    8.17
   1  -6  10  229.34   25.80
   1   6  10  242.37   33.51
   1   6  11    9.86   11.82
   1  -6  11   12.25    8.94
   1   6  12   42.96   16.53
   1  -6  12   24.51   10.72
   1  -6  13   -7.54    8.55
  -1   7  14  246.01   42.33
   1  -7 -13   19.41   16.02
  -1   7  13   23.81   10.73
  -1  -7  13   46.75   12.38
   1  -7 -12  276.68   40.66
  -1   7  12  257.70   37.28
  -1  -7  12  276.57   26.47
  -1  -7  11    9.93    6.29
   1  -7 -11  -17.81   11.06
  -1  -7  10   64.17   11.33
   1  -7 -10   35.67   13.18
  -1  -7  10   46.17    9.75
   1  -7  -9  134.92   25.42
  -1  -7   9  124.37   14.00
  -1  -7   9  129.11   14.29
  -1  -7   8    6.45    4.25
  -1  -7   8   11.97    4.42
   1  -7  -8   22.48   11.71
  -1  -7   7   48.68    7.19
  -1   7   7   37.24   10.86
   1  -7  -7   40.40   12.37
  -1  -7   7   39.66    6.52
  -1   7   6  761.28   47.42
  -1  -7   6  777.90   28.91
  -1  -7   6  773.43   28.80
   1  -7  -6  784.65   50.00
  -1  -7   5  273.98   12.96
   1  -7  -5  242.26   25.20
  -1  -7   5  254.20   13.24
  -1  -7   4 2636.98   67.65
   1  -7  -4 2546.31   95.32
   1   7  -3  204.19   10.73
  -1  -7   3  203.29   12.30
   1  -7  -3  172.78   20.69
   1   7  -3  186.51    8.09
  -1   7   3  170.48   21.39
   1   7  -2 4126.78   99.68
  -1  -7   2 4130.63  100.39
  -1   7   2 4381.44  135.27
   1   7  -2 4110.85  102.96
   1  -7  -1   55.52   12.51
   1   7  -1   41.39    8.29
  -1  -7   1   41.51    5.91
   1   7  -1   52.87    7.26
  -1   7   1   64.16   10.10
   1   7   0 3751.26  110.68
   1  -7   0 3664.75  114.86
  -1   7   0 4011.60  105.37
   1   7   0 3854.14  105.37
  -1  -7   0 4050.81  103.61
   1   7   1  112.68   12.73
  -1   7  -1  117.96   10.29
   1   7   1  112.01   13.20
  -1  -7  -1  118.65   12.31
   1  -7   1  118.22   12.16
   1  -7   2 1987.34   62.36
   1   7   2 1926.73   69.00
  -1  -7  -2 2029.05   68.78
  -1   7  -2 1973.29   58.97
   1   7   2 2003.67   71.49
  -1   7  -3  235.08   15.56
  -1  -7  -3  229.25   20.96
   1   7   3  214.49   20.64
   1  -7   3  198.68   15.39
   1  -7   4  581.07   28.73
  -1   7  -4  536.05   17.37
   1   7   4  531.07   35.29
   1   7   4  561.73   36.58
  -1  -7  -4  575.89   36.74
  -1  -7  -5   76.05   15.27
   1  -7   5   77.70   10.87
   1   7   5  101.00   16.12
   1   7   5   82.30   14.89
   1  -7   6   19.66    6.51
  -1  -7  -6   28.82   12.45
   1  -7   6   21.48    6.85
   1   7   6    9.44    8.58
   1  -7   7  143.55   17.09
  -1  -7  -7  115.11   20.32
   1   7   7  115.52   20.58
   1  -7   7  131.10   15.80
   1  -7   8  152.70   18.60
   1   7   8  139.08   24.46
  -1  -7  -8  164.26   26.33
   1  -7   9    1.79    5.06
  -1  -7  -9   12.18   11.87
   1   7   9   -1.91    9.07
   1  -7  10  250.52   26.49
   1   7  10  300.56   38.34
   1   7  11    1.59    8.76
   1  -7  11   23.13   10.68
   1   7  12  183.53   34.13
   1  -7  12  185.71   26.40
  -1   8  14   11.53   13.54
  -1  -8  13   17.10    8.07
  -1   8  13   -4.83   15.27
   1  -8 -13    1.83   11.17
  -1  -8  12  275.29   25.24
   1  -8 -12  319.79   44.58
  -1   8  12  254.74   38.01
   1  -8 -11   -7.62   17.48
  -1  -8  11    5.51    5.77
  -1  -8  10  479.26   29.70
   1  -8 -10  523.46   51.33
  -1  -8  10  491.22   30.33
   1  -8  -9   17.45   13.72
  -1  -8   9   11.33    4.64
  -1  -8   9   11.24    5.33
  -1  -8   8 2158.57   67.26
   1  -8  -8 2102.39   98.53
  -1  -8   8 2070.94   66.45
   1  -8  -7  270.86   31.22
  -1  -8   7  259.70   16.57
  -1  -8   7  278.04   16.80
  -1  -8   6 2762.75   73.07
  -1   8   6 2852.40  106.52
   1  -8  -6 2580.27  104.96
  -1  -8   6 2682.83   73.55
  -1  -8   5   18.94    3.27
  -1  -8   5   23.28    4.39
   1  -8  -4  747.10   46.89
  -1  -8   4  886.54   31.70
   1   8  -3  224.23    9.95
  -1   8   3  239.79   25.57
  -1  -8   3  227.34   13.37
   1   8  -3  234.23   12.72
   1  -8  -3  227.91   24.39
   1  -8  -2   49.61   12.04
  -1  -8   2   57.72    6.82
   1   8  -2   42.88    6.34
   1   8  -2   62.08    6.45
  -1   8   2   52.35   11.45
   1   8  -1  247.05   16.44
   1   8  -1  246.92   20.76
  -1   8   1  251.47   20.39
   1  -8  -1  241.16   24.45
  -1  -8   1  250.46   15.18
  -1  -8   0  872.92   35.88
   1  -8   0  928.68   47.12
  -1   8   0  927.99   37.57
   1   8   0  907.59   38.16
   1   8   0  913.32   43.67
   1   8   1  380.47   24.94
   1  -8   1  360.51   24.36
  -1   8  -1  383.86   20.69
   1   8   1  388.43   27.38
  -1  -8  -1  380.05   23.91
  -1   8  -2  624.14   27.61
   1   8   2  662.51   36.22
  -1  -8  -2  664.90   35.02
   1  -8   2  671.98   31.62
  -1  -8  -3    8.21    7.21
   1   8   3    5.31    6.14
   1   8   3    6.68    5.74
  -1   8  -3   12.82    4.49
   1  -8   3    7.12    4.47
   1   8   4 2806.93   97.94
   1  -8   4 2705.44   81.12
   1   8   4 2711.49   96.93
  -1  -8  -4 2760.45   95.96
  -1   8  -4 2597.89   62.20
   1   8   5   -6.90    9.38
  -1  -8  -5    0.12    9.40
   1  -8   5   13.04    4.83
   1  -8   6 1751.08   65.08
   1  -8   6 1781.23   66.45
   1   8   6 1956.89   86.64
  -1  -8  -6 1782.68   82.05
   1  -8   7   21.60    7.61
   1  -8   7   19.17    7.00
  -1  -8  -7   39.30   13.94
   1   8   7   18.13    9.67
   1   8   8  592.54   50.39
  -1  -8  -8  584.36   49.27
   1  -8   8  565.30   35.92
   1  -8   9   33.64   10.37
  -1  -8  -9   28.29   14.66
   1   8   9   24.36   13.35
  -1  -8 -10  233.35   35.30
   1  -8  10  282.81   27.99
   1   8  10  276.61   38.72
   1   8  11    2.72   10.16
   1  -8  11   -0.90    7.00
   1  -8  12   16.04    9.46
  -1   9  13    4.80   11.52
   1  -9 -13   33.84   20.29
  -1  -9  12  362.29   28.43
  -1   9  12  380.93   48.56
   1  -9 -12  376.72   48.15
   1  -9 -11   71.65   19.38
  -1  -9  11   61.93   11.08
  -1  -9  10   78.26   11.41
   1  -9 -10   72.09   20.37
  -1  -9   9   57.12    9.22
  -1  -9   9   50.60    8.55
   1  -9  -9   77.21   20.02
  -1  -9   8    7.33    4.19
  -1  -9   8    1.88    2.89
  -1  -9   7  143.51   11.87
  -1  -9   7  143.94   11.71
   1  -9  -7  145.28   22.79
  -1  -9   6  752.29   28.69
  -1   9   6  736.89   49.79
   1  -9  -6  702.86   49.59
  -1  -9   6  727.83   27.05
  -1  -9   5   84.51    6.82
   1  -9  -5   53.16   12.31
  -1   9   5   68.79   14.89
  -1  -9   5   82.68    8.15
  -1   9   4  970.76   57.42
   1   9  -4  952.45   28.26
  -1  -9   4 1033.99   37.58
   1  -9  -4  926.10   53.72
   1   9  -3   51.99    6.17
   1   9  -3   57.35    5.13
  -1  -9   3   57.36    6.57
   1  -9  -3   46.39   12.46
  -1  -9   2 3895.30   97.74
   1   9  -2 3848.60  100.38
   1   9  -2 3624.06   95.96
   1  -9  -2 3514.66  124.77
   1   9  -1   17.77    5.07
   1   9  -1   19.32    6.68
   1  -9  -1   21.83    8.65
  -1  -9   1   15.86    4.55
  -1   9   1   14.44    6.23
  -1  -9   0 4358.60  116.55
   1   9   0 4091.34  129.96
   1  -9   0 4467.49  136.82
   1   9   0 4244.44  119.80
  -1   9   0 4437.92  118.58
   1  -9   1  188.23   18.79
  -1  -9  -1  183.02   16.84
  -1   9  -1  170.16   13.87
   1   9   1  185.37   18.05
   1   9   1  183.28   19.96
  -1   9  -2  941.11   36.25
   1   9   2  952.33   46.59
  -1  -9  -2  961.06   44.74
   1  -9   2  919.17   41.72
  -1   9  -3  213.64   15.61
  -1  -9  -3  238.64   22.44
   1   9   3  226.56   23.48
   1  -9   3  191.90   16.83
   1   9   3  200.36   21.24
  -1  -9  -4  657.14   41.33
   1   9   4  667.67   43.01
   1   9   4  657.75   43.01
   1  -9   4  630.81   32.10
   1  -9   5   67.60   10.44
   1   9   5   74.10   15.10
  -1  -9  -5   66.50   14.63
   1  -9   6    0.49    4.89
   1  -9   6   -1.93    5.05
   1   9   6    0.11    8.73
  -1  -9  -6   -2.00    7.93
  -1  -9  -7   36.96   14.45
   1   9   7   19.06   11.08
   1  -9   7   30.82    8.66
   1  -9   7   39.92    9.41
   1  -9   8   35.72    9.67
  -1  -9  -8   42.93   16.71
   1   9   8   18.94    9.10
  -1  -9  -9   37.29   16.78
   1   9   9   11.10   10.82
   1  -9   9   23.15    7.09
   1   9  10  401.08   47.30
  -1  -9 -10  366.53   44.44
   1  -9  10  412.25   33.14
   1   9  11    8.98    9.42
   1  -9  11   11.97    7.31
  -1  10  12  186.75   34.63
   1 -10 -12  188.36   35.54
   1 -10 -11  -12.60   16.15
  -1 -10  11    1.22    4.19
  -1 -10  10  504.37   28.97
   1 -10 -10  496.55   51.41
  -1 -10   9    4.70    4.24
  -1 -10   9    3.37    2.72
  -1 -10   8 1345.00   46.92
   1 -10  -8 1350.69   79.22
  -1 -10   8 1361.01   47.66
  -1 -10   7   59.84    7.61
  -1 -10   7   45.61    6.63
   1 -10  -7   73.44   18.45
  -1 -10   6 1882.65   56.17
   1 -10  -6 1703.51   84.13
  -1 -10   6 1800.11   51.91
   1 -10  -5  193.63   25.05
  -1  10   5  185.05   25.28
  -1 -10   5  239.29   15.70
   1 -10  -4  706.93   46.79
   1  10  -4  789.10   24.74
  -1  10   4  750.64   50.01
  -1 -10   4  815.38   31.41
   1  10  -3   48.19    6.73
  -1 -10   3   45.56    6.20
   1 -10  -3   49.71   10.87
   1  10  -3   52.55    5.18
   1  10  -2  129.78   10.42
   1 -10  -2  131.82   19.33
  -1 -10   2  138.61   11.37
   1  10  -2  141.21   12.31
   1 -10  -1  388.22   31.92
   1  10  -1  379.04   25.10
   1  10  -1  355.47   22.48
  -1 -10   1  366.89   20.74
  -1  10   1  349.95   25.84
  -1  10   0  161.76   14.92
   1  10   0  124.30   17.34
   1  10   0  165.66   16.28
   1 -10   0  137.65   19.31
  -1 -10   0  147.94   14.43
   1  10   1   95.11   12.93
  -1 -10  -1  107.55   13.21
   1  10   1   89.47   15.15
   1 -10   1   87.28   14.56
  -1  10  -1   91.14   10.31
   1 -10   2  440.77   29.18
   1  10   2  512.65   33.33
  -1  10  -2  449.54   23.83
  -1 -10  -2  505.19   31.75
   1  10   3  311.79   28.24
   1 -10   3  376.56   25.27
  -1 -10  -3  380.05   29.40
  -1  10  -3  382.67   21.76
   1  10   3  390.73   32.61
  -1 -10  -4 2277.30   89.14
   1  10   4 2301.58   92.49
   1  10   4 2297.62   93.50
   1 -10   4 2287.97   75.60
   1 -10   5   15.42    5.42
  -1 -10  -5   23.34   10.19
   1  10   5   26.65   10.45
   1 -10   6 1344.79   55.72
   1  10   6 1374.30   74.91
   1 -10   6 1286.08   53.60
  -1 -10  -6 1308.82   70.69
   1 -10   7   18.80    7.10
   1 -10   7   38.53   10.16
   1  10   7   44.70   14.84
  -1 -10  -7   44.05   14.73
   1 -10   8  431.33   30.62
  -1 -10  -8  425.13   43.87
   1  10   8  485.38   47.35
   1  10   9   10.19   12.61
  -1 -10  -9   -2.52    9.84
   1 -10   9    4.34    5.29
  -1 -10 -10  215.68   36.09
   1  10  10  207.52   35.88
   1 -10  10  234.72   24.79
   1 -11 -12  215.85   39.17
  -1  11  12  253.42   42.84
   1 -11 -11  145.41   30.13
   1 -11 -10  152.29   29.96
  -1 -11   9   60.60    9.02
   1 -11  -9   57.02   17.71
   1 -11  -8    5.52   12.08
  -1 -11   8    2.75    2.70
  -1 -11   8    6.41    3.74
  -1 -11   7  177.87   13.70
  -1 -11   7  177.44   12.25
   1 -11  -7  171.41   26.72
   1 -11  -6  201.92   27.73
  -1 -11   6  220.46   12.74
  -1 -11   6  246.03   16.31
  -1 -11   5   17.47    4.67
  -1  11   5   14.47    9.29
   1 -11  -5   10.42    8.18
   1  11  -4 1167.30   36.90
  -1 -11   4 1115.65   38.67
  -1  11   4 1089.07   61.98
   1  11  -4 1168.44   33.51
   1 -11  -4 1052.85   60.23
   1 -11  -3  350.92   31.74
   1  11  -3  358.21   15.64
   1  11  -3  342.37   19.22
  -1 -11   3  337.56   18.22
  -1  11   3  330.59   30.37
  -1 -11   2 2734.79   76.08
   1  11  -2 2682.65   79.56
   1 -11  -2 2497.71   99.85
   1  11  -2 2630.48   73.84
  -1 -11   1   11.01    4.62
   1  11  -1   14.31    4.74
   1  11  -1   15.02    4.92
   1 -11  -1    5.67    6.94
  -1 -11   0 2643.70   83.12
  -1  11   0 2706.74   84.23
   1  11   0 2673.14   87.11
   1 -11   0 2834.62  102.25
   1  11   0 2673.20   95.79
  -1  11  -1  300.77   19.97
   1 -11   1  321.45   28.68
  -1 -11  -1  301.04   23.49
   1  11   1  290.74   24.52
   1 -11   2 1350.17   57.98
   1  11   2 1145.98   61.52
  -1  11  -2 1235.89   45.43
   1  11   2 1230.94   57.98
  -1 -11  -2 1239.26   55.10
  -1 -11  -3   34.27   10.71
   1  11   3   45.00   11.17
  -1  11  -3   46.55    7.61
   1 -11   3   36.50    7.90
   1  11   3   34.97   11.08
  -1 -11  -4  123.21   19.07
   1  11   4  161.22   22.68
   1 -11   4  142.65   15.91
   1  11   5  106.77   20.36
   1 -11   5  101.01   13.28
  -1 -11  -5   87.32   17.36
   1 -11   6   13.16    6.31
  -1 -11  -6   20.29   10.00
   1 -11   6   11.23    5.79
   1  11   6   13.84    9.89
   1  11   7   28.58   12.99
   1 -11   7   17.31    6.20
  -1 -11  -7   21.53   10.83
  -1 -11  -8   47.78   16.45
   1 -11   8   57.02   10.85
   1  11   8   81.01   22.20
   1  11   9  124.79   26.80
   1 -11   9  108.28   16.01
  -1 -11  -9  123.06   25.98
  -1 -11 -10  150.98   29.76
   1  11  10  175.63   32.40
  -1  12  11   -6.45   17.85
   1 -12 -11   -5.29   11.45
   1 -12 -10  634.85   59.66
   1 -12  -9   13.79   10.69
  -1 -12   8  745.93   31.75
   1 -12  -8  698.11   57.37
  -1 -12   7   12.11    3.65
  -1 -12   7    9.96    4.22
  -1 -12   6  547.30   26.28
  -1 -12   6  483.10   19.90
   1 -12  -6  471.28   42.64
   1 -12  -5  380.29   36.35
  -1 -12   5  459.42   21.79
  -1  12   4  895.47   55.52
   1  12  -4  993.29   34.47
  -1 -12   4  975.98   34.02
   1  12  -4  980.54   30.06
   1  12  -3   86.61    9.75
   1  12  -3   79.03    7.21
   1 -12  -3   70.37   15.30
  -1  12   3  102.92   17.67
  -1 -12   3   76.59    8.51
  -1  12   2   60.88   12.78
  -1 -12   2   84.21    9.65
   1  12  -2   79.52   10.29
   1 -12  -2   74.08   15.14
   1  12  -2   74.90    8.62
  -1 -12   1  258.56   18.69
   1 -12  -1  261.42   26.80
   1  12  -1  268.57   20.47
   1  12  -1  236.31   19.77
   1 -12   0   46.65   12.08
  -1 -12   0   33.23    7.68
   1  12   0   32.90    8.65
   1  12   0   49.56   11.75
   1  12   1  157.04   18.59
  -1 -12  -1  152.22   16.82
   1 -12   1  165.38   21.12
  -1 -12  -2  799.56   43.71
   1  12   2  795.39   46.89
   1 -12   2  932.61   49.58
   1  12   2  775.34   51.03
   1  12   3  166.41   22.22
   1 -12   3  209.67   20.88
  -1 -12  -3  202.84   22.74
   1  12   3  159.75   22.38
   1  12   4 1223.62   66.70
   1 -12   4 1310.81   55.06
  -1 -12  -4 1151.92   61.49
   1 -12   5   22.24    7.49
   1  12   5   -2.63    9.06
  -1 -12  -5   11.70    9.47
   1 -12   6  687.93   37.39
   1  12   6  784.85   57.83
  -1 -12  -6  631.54   49.41
  -1 -12  -7  -16.44   13.78
   1 -12   7    6.77    5.48
   1  12   7  -12.84   14.02
  -1 -12  -8  411.21   44.71
   1 -12   8  398.98   29.09
   1  12   8  446.85   49.14
   1  12   9   10.44    9.16
  -1 -12  -9   -1.14   11.79
   1 -13 -11   44.22   17.54
  -1  13  11    6.35   17.30
   1 -13 -10  153.32   31.05
   1 -13  -9  162.33   30.62
   1 -13  -8    1.69    8.80
   1 -13  -7  115.11   23.50
  -1 -13   7  129.48   12.17
  -1 -13   6  161.83   12.25
   1 -13  -6  165.84   25.86
   1 -13  -5   50.47   14.69
  -1 -13   5   50.47    6.25
   1 -13  -4 1202.05   66.99
   1  13  -4 1342.64   38.62
  -1 -13   4 1338.10   42.17
   1  13  -4 1303.27   43.82
  -1 -13   3   42.63    6.41
  -1  13   3   49.46   12.31
   1 -13  -3   55.76   14.29
   1  13  -3   42.96    7.39
   1  13  -3   62.87    6.71
  -1 -13   2 1419.88   48.75
  -1  13   2 1449.05   66.49
   1  13  -2 1364.03   52.34
   1 -13  -2 1394.09   68.35
   1  13  -2 1351.79   46.10
  -1  13   1    9.38    5.90
   1  13  -1   10.80    5.55
   1 -13  -1    3.84    5.92
   1  13  -1    4.40    4.17
  -1 -13   1   12.32    5.63
  -1 -13   0 1195.61   49.75
   1 -13   0 1188.38   60.83
   1  13   0 1128.44   52.56
   1 -13   1   20.37    9.03
   1  13   1   19.23    8.12
  -1 -13  -1   27.71    8.03
   1  13   1   12.75    7.70
   1  13   2 1300.69   62.95
   1 -13   2 1388.56   64.70
   1  13   2 1158.76   66.99
  -1 -13  -2 1220.06   57.48
   1  13   3    4.58    7.08
   1 -13   3   35.40   10.08
  -1 -13  -3   28.19   11.55
   1  13   4  117.77   20.44
  -1 -13  -4  109.34   18.61
   1 -13   4  143.47   17.37
  -1 -13  -5  120.31   20.90
   1 -13   5  143.45   16.87
   1  13   5  108.59   20.82
  -1 -13  -6    1.58    9.27
   1  13   6   17.49   11.54
   1 -13   6    7.29    5.60
  -1 -13  -7  103.13   21.32
   1  13   7  118.01   24.20
   1 -13   7  136.52   16.20
   1  13   8  108.50   24.39
  -1 -13  -8  103.01   24.26
  -1 -13  -9   78.14   22.82
   1 -14 -10  351.82   46.60
  -1  14  10  427.10   51.72
   1 -14  -9   13.99   11.61
   1 -14  -8  597.91   54.77
   1 -14  -7    2.41   10.40
   1 -14  -6  456.75   42.96
  -1 -14   5   72.90    6.88
   1 -14  -5   62.79   15.09
   1  14  -4  566.95   21.08
   1 -14  -4  538.53   42.96
  -1 -14   4  530.01   22.66
   1  14  -3  344.21   21.61
   1 -14  -3  302.04   30.65
   1  14  -3  317.96   16.41
  -1 -14   3  329.96   18.39
  -1  14   3  272.38   28.88
   1 -14  -2   49.43   12.56
  -1 -14   2   57.64    8.65
  -1  14   2   52.67   11.30
   1  14  -2   48.07    7.24
   1  14  -2   53.66    9.47
  -1 -14   1  165.41   15.59
   1 -14  -1  178.10   22.40
  -1  14   1  137.11   16.42
   1  14  -1  141.58   14.73
   1  14  -1  146.26   16.44
  -1 -14   0   78.45   12.03
   1  14   0   58.51   12.20
   1 -14   0   80.13   15.26
  -1  14   0   70.39   10.97
  -1  14  -1  218.07   18.28
  -1 -14  -1  238.80   22.07
   1 -14   1  274.65   27.60
   1  14   1  221.06   23.63
   1  14   1  238.43   25.86
  -1 -14  -2  859.50   47.49
   1  14   2  827.29   50.13
   1 -14   2  865.75   50.03
   1  14   2  811.04   53.99
   1  14   3   38.49   12.49
   1 -14   3   68.38   14.02
  -1  14  -3   49.41    6.20
  -1 -14  -3   66.96   14.60
   1  14   4  486.57   42.01
   1 -14   4  508.96   34.79
  -1 -14  -4  430.59   37.03
   1 -14   5   45.91   10.78
  -1 -14  -5   32.01   12.13
   1  14   5   30.68   10.42
  -1 -14  -6  425.46   41.27
   1  14   6  486.34   46.93
  -1 -14  -7   -5.43    9.45
   1  14   7   -3.67   11.17
   1  14   8  425.08   49.43
  -1 -14  -8  348.26   41.56
   1 -15 -10    9.82   11.48
   1 -15  -9  117.45   26.36
   1 -15  -8   21.01   14.52
   1 -15  -7   92.94   22.09
   1 -15  -6  180.77   27.93
   1 -15  -5  226.70   29.70
   1 -15  -4  876.66   56.30
  -1 -15   4  835.75   29.98
  -1 -15   3    1.35    2.44
   1  15  -3    6.14    4.26
   1  15  -3    1.13    2.34
   1 -15  -2  971.86   56.21
   1  15  -2  936.08   36.64
  -1 -15   2  909.62   38.21
   1  15  -2  955.97   43.73
  -1  15   2  948.05   51.30
  -1 -15   1   -1.39    3.59
  -1  15   1    1.26    4.03
   1  15  -1   -4.01    6.24
   1 -15  -1    4.21    6.29
   1 -15   0  847.05   50.31
   1  15   0  881.04   46.80
   1  15   0  778.24   44.87
  -1  15   0  844.20   41.79
  -1 -15   0  880.00   42.74
  -1  15  -1   15.56    5.68
  -1 -15  -1    8.80    6.43
   1 -15   1   -2.21    6.13
   1  15   1    4.44    5.47
   1  15   1   10.05    5.48
   1 -15   2  817.42   47.54
  -1  15  -2  703.38   34.36
   1  15   2  759.70   48.25
  -1 -15  -2  676.05   42.75
  -1 -15  -3  107.11   17.25
   1 -15   3   92.53   15.11
  -1  15  -3  101.53    9.25
   1  15   3  110.63   19.58
   1 -15   4  172.50   20.63
   1  15   4  156.53   25.00
  -1 -15  -4  168.00   23.35
  -1 -15  -5   81.96   18.01
   1  15   5   88.65   20.51
   1  15   6   -5.67   10.49
  -1 -15  -6    9.46    8.86
  -1 -15  -7   92.85   22.10
   1  15   7  175.41   30.89
  -1 -15  -8   31.46   15.72
   1 -16  -9   34.30   17.82
   1 -16  -8  387.68   44.73
   1 -16  -7   29.05   12.56
   1 -16  -6  502.72   46.86
   1 -16  -5   15.68   10.36
   1 -16  -4  223.00   28.04
   1  16  -3  200.82   17.34
   1 -16  -3  200.66   25.75
   1  16  -2   42.27    8.72
   1 -16  -2   41.90   11.64
  -1 -16   2   37.95    7.55
   1 -16  -1  217.59   25.10
   1  16  -1  186.03   19.49
  -1 -16   1  220.68   18.82
  -1 -16   0  118.90   14.82
   1  16   0   90.81   15.06
   1 -16   0  122.33   18.55
   1 -16   1  420.22   33.36
   1  16   1  350.58   31.45
  -1 -16  -1  389.20   29.59
  -1  16  -2  239.27   17.63
  -1 -16  -2  227.98   24.14
   1  16   2  199.58   25.35
   1 -16   2  244.18   24.93
   1 -16   3   26.71    8.72
   1  16   3    5.80    7.33
  -1 -16  -3   23.44    9.02
  -1 -16  -4  373.83   35.22
   1  16   4  418.29   41.27
   1  16   5   76.40   19.12
  -1 -16  -5   29.26   11.43
   1  16   6  540.09   52.81
  -1 -16  -6  482.13   45.49
  -1 -16  -7   23.08   13.12
   1 -17  -9   70.75   19.97
  -1  17   8  -16.92   17.55
   1 -17  -8    1.16    9.35
   1 -17  -7  136.38   26.64
   1 -17  -6  138.70   25.54
   1 -17  -5  115.51   22.31
   1 -17  -4  256.51   31.04
   1 -17  -3   13.55    7.96
   1  17  -3   10.97    4.44
   1  17  -2  712.34   38.72
   1 -17  -2  727.99   48.08
   1 -17  -1    1.83    6.34
   1  17  -1   -7.79    6.16
  -1 -17   0  749.34   40.36
   1  17   0  774.54   45.80
   1 -17   0  796.65   47.65
   1 -17   1    1.75    5.39
  -1 -17  -1   -8.19    5.39
  -1  17  -1    6.28    4.00
   1  17   1    7.38    6.35
   1  17   2  218.83   26.92
  -1 -17  -2  237.47   24.95
   1  17   3   58.48   16.17
  -1 -17  -3   64.93   14.88
  -1 -17  -4   68.57   15.62
   1  17   4   98.53   20.81
   1  17   5  124.31   24.95
  -1 -17  -5   85.66   19.46
  -1 -17  -6    8.03    7.48
  -1 -17  -7   32.71   14.13
   1 -18  -8  204.68   34.62
   1 -18  -7   38.42   16.37
  -1  18   7    2.57    9.24
   1 -18  -6  438.72   44.37
   1 -18  -5   86.06   19.87
   1 -18  -4   52.41   15.72
   1 -18  -3  130.43   20.88
   1  18  -2   35.10    8.77
   1 -18  -2   12.82    7.87
   1  18  -1  201.30   21.21
   1 -18  -1  204.03   23.75
  -1  18   0   31.69    8.55
   1  18   0   28.78    9.49
   1  18   1  114.46   17.95
  -1 -18  -2  158.84   20.72
   1  18   2  162.70   24.15
  -1 -18  -3   43.31   12.15
   1  18   3   60.99   16.92
  -1 -18  -4  260.52   30.67
   1  18   4  371.98   39.94
   1  18   5   32.08   12.63
  -1 -18  -5   28.29   11.77
  -1 -18  -6  236.43   32.05
   1 -19  -7   99.33   23.40
  -1  19   6   56.24   16.52
   1 -19  -6   52.65   17.14
   1 -19  -5   57.48   15.52
  -1  19   5   40.93   14.57
  -1  19   4  153.21   23.57
   1 -19  -4  162.92   24.77
  -1  19   3   34.48   10.51
   1 -19  -3   52.25   13.95
  -1  19   2  363.69   32.42
   1  19  -1    7.21    5.55
  -1  19   1    0.08    4.31
   1  19   0  372.68   32.19
   1  19   1   24.18   10.35
   1  19   2  141.06   22.38
   1  19   3   23.33   11.83
   1  19   4   58.83   17.09
  -1  20   5   76.26   18.37
  -1  20   4   64.10   15.70
  -1  20   3   55.66   13.70
  -1  20   2   -0.70    5.54
   1  20   0   30.46   10.61
   1  20   1   52.31   13.84
   1  20   2   92.77   18.66
   1  20   3   56.36   15.77
  -1  21   4  167.64   25.90
  -1  21   3   16.62    9.43
   1  21   1   42.49   12.50
   1  21   2  113.56   21.14
  -2   0  15    3.58    8.85
  -2   0  14  436.89   39.70
   2   0 -13    6.97    9.67
  -2   0  13  -13.99   10.42
   2   0 -12  247.32   30.08
   2   0 -11   -1.93    8.18
   2   0 -10    8.58    6.14
  -2   0  10   -4.27    4.26
  -2   0   9   -0.72    3.30
   2   0  -9   -0.84    6.20
  -2   0   8 1024.68   45.21
   2   0  -8  948.65   48.12
  -2   0   7   -0.11    3.26
   2   0  -7   -3.92    6.06
  -2   0   6 2064.11   67.03
   2   0  -6 1876.22   67.21
  -2   0   5   -3.60    4.70
   2   0  -5    1.24    4.14
  -2   0   4 8411.55  211.42
   2   0  -4 8290.97  212.08
   2   0  -3    1.05    3.15
  -2   0   3    2.72    2.92
  -2   0   2 6858.02  162.12
   2   0  -2 6976.99  160.92
   2   0  -1   -0.07    2.23
   2   0   0 9753.30  226.54
  -2   0  -1   -0.38    2.19
   2   0   1   -3.42    4.31
   2   0   2 1728.43   57.68
  -2   0  -2 1687.12   54.97
   2   0   3    0.36    4.56
  -2   0  -3    0.17    3.35
   2   0   4   27.54    7.73
   2   0   5   -0.94    4.29
   2   0   5    1.79    5.18
   2   0   6    3.81    6.99
   2   0   7   -1.12    6.47
   2   0   8  114.95   19.53
   2   0   9    5.62    8.03
   2   0  10  508.49   46.44
   2   0  11  -17.49   12.66
  -2   1  15  -16.80   12.77
  -2  -1  14  148.29   21.12
   2  -1 -14  175.57   30.36
  -2   1  14  171.27   26.23
   2   1 -13    4.69    8.50
  -2  -1  13   -1.93    6.27
   2   1 -12  943.10   57.65
   2  -1 -12  901.64   60.64
   2  -1 -11   -6.22   10.85
   2   1 -11    2.15    7.26
  -2  -1  11   12.42    6.55
  -2  -1  10 1274.42   56.22
   2   1 -10 1359.85   63.26
  -2   1  10 1343.30   60.05
   2  -1 -10 1325.49   67.25
  -2  -1   9  133.53   15.28
   2  -1  -9  121.97   18.77
  -2   1   9  113.00   15.24
   2   1  -9  136.58   17.23
  -2  -1   8 4295.35  122.46
   2   1  -8 4274.25  127.53
  -2   1   8 4519.81  128.99
   2  -1  -8 4414.97  135.31
  -2   1   7   -1.26    4.69
   2   1  -7   -1.40    4.35
   2  -1  -7   -1.33    5.37
  -2  -1   7    6.29    4.58
   2  -1  -6 1756.20   65.66
  -2  -1   6 1669.64   56.61
  -2   1   6 1692.14   62.53
   2   1  -6 1700.58   58.25
   2   1  -5  587.01   28.01
  -2   1   5  602.65   33.26
   2  -1  -5  575.31   33.56
  -2  -1   5  571.14   27.93
  -2  -1   4 1623.61   56.15
   2   1  -4 1423.58   52.55
   2  -1  -4 1479.16   60.80
  -2   1   4 1482.76   59.57
   2  -1  -3   15.54    5.54
   2   1  -3   17.64    3.04
  -2  -1   3   12.36    2.99
  -2   1   3   10.93    4.34
  -2  -1   2   88.66    6.74
   2  -1  -2   84.98    7.98
   2   1  -2   87.51    6.42
   2   1  -1    2.81    2.19
  -2  -1   1    1.44    2.12
   2  -1  -1    2.30    2.63
   2  -1   0  118.85   10.21
   2   1   0  135.62   10.43
  -2  -1   0  108.86    9.86
  -2  -1  -1  624.59   27.57
   2   1   1  597.69   27.47
   2  -1   1  624.83   27.84
  -2   1  -1  625.93   26.16
  -2   1  -2 3052.51   84.74
  -2  -1  -2 3063.73   87.68
   2  -1   2 3083.08   88.59
  -2   1  -3  745.29   32.03
   2   1   3  664.93   33.68
   2  -1   3  725.11   34.92
   2  -1   4 3431.95  106.23
   2  -1   4 3426.30  105.28
   2   1   4 3507.63  105.54
   2  -1   5   14.80    6.81
   2   1   5   16.18    5.93
   2   1   5   34.15    9.22
   2  -1   5   30.24    9.31
   2   1   6 1306.31   59.73
   2  -1   6 1345.00   61.54
   2  -1   7   73.08   15.02
   2  -1   8  331.33   32.39
   2   1   8  325.79   33.14
   2  -1   9  -11.09   10.10
   2   1   9   -8.64    9.28
   2   1  10  118.24   23.59
   2  -1  10  100.03   21.14
   2  -1  11    5.53    8.75
   2   1  11  -20.88   13.70
   2  -2 -15  -13.80   11.93
  -2   2  15  -14.47   10.79
  -2   2  14  228.95   31.86
  -2  -2  14  215.02   23.89
   2  -2 -14  275.73   37.05
  -2  -2  13   10.19    5.23
   2  -2 -13   -9.72   13.95
  -2  -2  12  307.03   26.35
   2  -2 -12  270.72   33.72
   2   2 -12  272.90   29.77
  -2  -2  11    7.36    4.48
   2  -2 -11   19.34   11.02
   2   2 -11   15.74    8.96
   2   2 -10    4.22    7.49
  -2  -2  10    6.83    5.32
  -2   2  10   -6.13    3.58
   2  -2 -10   13.23   10.03
   2  -2  -9   59.17   14.86
  -2  -2   9   57.66    9.60
  -2   2   9   65.80   12.11
   2   2  -9   49.06   10.38
  -2   2   8  577.68   35.68
   2   2  -8  576.88   32.43
   2  -2  -8  603.50   40.37
  -2  -2   8  596.14   30.77
  -2  -2   7    5.75    3.82
   2  -2  -7    4.48    7.54
  -2   2   7   15.92    6.06
   2   2  -7    5.12    4.19
   2   2  -6 2961.47   83.55
   2  -2  -6 2908.42   99.06
  -2  -2   6 2971.95   83.39
   2   2  -5  537.86   23.60
  -2   2   5  594.44   34.90
  -2  -2   5  540.80   25.34
   2  -2  -5  510.69   34.63
   2   2  -4 5795.87  145.40
  -2  -2   4 6224.18  148.36
   2  -2  -4 5911.81  170.12
   2  -2  -3 4787.54  129.13
   2   2  -3 4558.88  107.34
  -2  -2   3 4435.84  105.11
   2   2  -2 9519.73  212.98
  -2  -2   2 9208.81  213.80
   2   2  -1 1367.65   39.77
   2  -2  -1 1351.27   42.79
   2   2   0 5492.79  133.98
   2  -2   0 5644.60  135.45
  -2   2   0 5365.33  135.12
   2   2   0 5407.42  135.94
   2   2   1  142.24   12.94
  -2  -2  -1  154.28   12.96
   2  -2   1  171.36   13.37
  -2   2  -1  145.93   12.11
   2   2   1  154.87   13.26
  -2   2  -2 1343.28   44.53
  -2  -2  -2 1358.60   49.08
   2  -2   2 1332.53   48.41
   2   2   2 1314.24   49.74
   2  -2   3   35.50    8.26
   2   2   3   30.89    7.76
  -2   2  -3   37.57    6.36
  -2   2  -4  141.76   13.15
   2  -2   4  161.44   17.05
   2   2   4  150.30   16.82
   2  -2   4  174.19   17.45
   2  -2   5    2.57    4.09
   2   2   5   -2.51    4.75
   2  -2   5    7.61    5.80
   2   2   5   -0.61    5.62
   2  -2   6   66.03   13.40
   2   2   6   60.60   12.56
   2   2   7   -1.16    5.90
   2  -2   7   -4.02    6.90
   2   2   8  442.37   37.46
   2  -2   8  379.22   34.37
   2  -2   9   29.55   12.42
   2   2  10  340.49   39.33
   2  -2  10  365.67   37.95
   2  -2  11   -0.14    8.94
   2   2  11   -5.33   14.67
  -2   3  16   42.78   16.26
  -2  -3  16  -23.35   14.65
  -2   3  15   -2.31   12.94
   2  -3 -15    7.40   12.79
  -2   3  14  114.36   23.64
   2  -3 -14  110.93   24.46
   2  -3 -13   -1.99   10.16
  -2  -3  13    3.97    4.73
  -2  -3  12  728.93   38.72
   2  -3 -12  688.74   55.36
   2  -3 -11   37.68   14.56
  -2  -3  11   25.48    8.13
  -2  -3  10 2372.33   81.05
   2  -3 -10 2442.66  102.84
   2   3 -10 2308.17   85.52
  -2  -3   9  154.71   15.26
   2   3  -9  153.26   17.14
  -2   3   9  147.41   18.47
   2  -3  -9  165.64   23.04
   2   3  -8 2389.86   77.68
  -2  -3   8 2523.70   75.91
   2  -3  -8 2437.59   95.82
  -2   3   8 2436.45   88.95
  -2  -3   7  128.65   11.69
   2   3  -7  122.39   11.76
   2  -3  -7  107.97   16.57
  -2  -3   6 3792.25   99.25
   2   3  -6 3859.61   99.06
   2  -3  -6 3684.67  122.90
   2   3  -5  564.48   21.36
   2  -3  -5  525.21   37.41
  -2  -3   5  566.10   23.52
   2   3  -4  524.27   18.28
   2  -3  -4  474.08   35.73
  -2  -3   4  496.24   18.72
   2   3  -3    9.84    1.85
  -2  -3   3   11.98    1.77
   2  -3  -3    8.29    4.93
  -2  -3   2   58.87    6.70
   2   3  -2   65.85    5.00
   2  -3  -2   50.37    7.95
   2   3  -1   15.89    3.73
  -2  -3   1   12.52    3.64
   2  -3  -1   17.52    4.74
   2   3  -1   11.13    2.75
  -2   3   1    8.32    3.13
  -2   3   0 3320.99   88.90
   2   3   0 3310.63   89.25
   2  -3   0 3377.72   89.22
   2   3   0 3230.79   90.44
   2   3   1   62.24    8.67
   2   3   1   74.56    9.82
  -2   3  -1   68.99    8.63
   2  -3   1   64.90    8.57
  -2   3  -2 2613.18   71.80
   2  -3   2 2572.99   77.32
   2   3   2 2513.53   80.38
  -2   3  -3  634.78   27.31
   2  -3   3  616.67   31.83
   2   3   3  625.60   34.31
  -2   3  -4 2145.80   65.33
   2   3   4 2050.94   76.59
   2  -3   4 2118.64   74.10
   2  -3   4 2224.82   75.90
   2   3   5   46.05   10.63
   2  -3   5   37.95    9.57
   2  -3   5   38.77    8.98
   2   3   5   41.73   10.89
   2  -3   6 1470.26   64.21
   2   3   6 1489.33   68.15
   2  -3   7   19.09    9.16
   2   3   7   22.50    9.93
   2  -3   8  631.53   44.05
   2   3   8  589.97   45.87
   2  -3   9   10.68    8.75
   2   3   9   -7.28    9.10
   2  -3  10   61.19   17.01
   2  -3  11    0.61    8.22
   2   3  11   -7.15   13.85
  -2   4  16  262.98   41.52
  -2  -4  16  255.19   32.30
  -2   4  15  -22.20   13.79
   2  -4 -15   -2.18   10.36
  -2  -4  15   -7.46    7.94
   2  -4 -14  201.61   33.32
  -2   4  14  134.91   27.08
  -2  -4  13   21.28    6.76
   2  -4 -13    2.27   10.46
   2  -4 -12  190.96   30.46
  -2  -4  12  233.24   18.94
   2  -4 -11   -8.80   11.47
  -2  -4  11    3.91    3.59
  -2  -4  11   -0.33    4.49
  -2  -4  10    6.08    6.10
   2  -4 -10    9.75   13.26
   2  -4  -9   19.29   10.64
  -2  -4   9   25.02    6.50
  -2   4   9   11.23    6.78
  -2  -4   8   93.52   10.80
   2  -4  -8   86.23   17.26
   2   4  -8   92.34   11.46
  -2  -4   7    9.70    4.10
   2   4  -7    8.77    3.67
  -2  -4   6 3235.15   83.37
   2  -4  -6 3166.88  113.43
   2   4  -6 3180.48   82.02
  -2  -4   5   12.38    3.20
   2  -4  -5   15.55    8.79
   2   4  -5   18.36    2.90
   2  -4  -4 9882.11  266.57
  -2  -4   3   55.77    6.06
  -2   4   3   40.51    9.07
   2  -4  -3   56.59   11.63
  -2  -4   2 2971.85   79.75
   2   4  -2 2952.40   71.35
   2  -4  -2 3059.09   91.36
  -2   4   2 3066.66   88.69
   2   4  -2 2935.47   73.09
   2   4  -1  255.42   16.29
  -2  -4   1  284.98   17.13
  -2   4   1  279.68   17.49
   2  -4  -1  288.63   18.02
   2   4  -1  252.84   14.41
   2   4   0 5321.60  137.29
   2   4   0 5489.49  140.03
  -2   4   0 5376.81  137.04
   2  -4   0 5726.86  138.48
   2   4   1   45.91    8.59
  -2   4  -1   67.37    8.55
   2   4   1   55.15    8.66
   2  -4   1   50.18    7.84
  -2   4  -2 2517.87   74.77
   2  -4   2 2494.46   75.38
   2   4   2 2356.19   79.01
   2  -4   3   27.02    7.07
  -2   4  -3   27.00    5.44
   2   4   3   24.65    7.69
   2   4   4   21.78    7.68
   2   4   4   26.03    9.33
   2  -4   4   11.45    5.63
  -2   4  -4   36.87    6.29
   2   4   5   39.05   10.93
   2  -4   5   22.89    7.90
   2  -4   5   27.70    7.77
   2   4   6  164.81   21.65
   2  -4   6  156.09   19.12
   2   4   7   11.64    7.60
   2  -4   7    3.09    5.42
   2  -4   8  482.14   38.24
   2   4   8  516.94   43.70
   2  -4   9   -2.90    8.43
   2   4   9    5.41    8.41
   2   4  10  267.72   35.08
   2  -4  10  230.93   29.89
   2  -4  11   -8.68    9.09
  -2   5  16   -4.48   12.62
   2  -5 -15   12.85   14.98
  -2   5  15  -23.95   18.48
  -2  -5  15    7.02    7.90
  -2  -5  14  174.04   22.87
   2  -5 -14  181.42   34.11
   2  -5 -13    8.84   12.26
  -2  -5  13   -2.04    6.64
  -2  -5  12  540.28   35.65
   2  -5 -12  580.21   53.99
  -2  -5  12  619.38   27.88
   2  -5 -11    5.53    9.90
  -2  -5  11   -2.75    2.90
  -2  -5  11    2.85    3.76
  -2  -5  10 2590.87   82.34
   2  -5 -10 2578.17  112.96
  -2  -5  10 2533.06   69.61
  -2  -5   9  137.97   13.39
   2  -5  -9  121.84   21.85
  -2  -5   8 1691.10   54.58
   2  -5  -8 1654.76   81.68
  -2  -5   7    5.32    3.29
   2  -5  -7   -9.11   11.40
  -2  -5   6 3096.95   77.62
   2  -5  -6 2750.24  110.79
   2  -5  -5   43.87   13.19
  -2  -5   4 1390.89   40.17
   2  -5  -4 1279.43   66.05
   2  -5  -3  329.72   29.33
  -2  -5   3  357.46   17.30
  -2   5   3  371.89   28.70
  -2  -5   2   40.00    6.11
  -2   5   2   41.36    8.45
   2   5  -2   45.54    5.20
   2  -5  -2   40.03    9.71
  -2   5   1   54.29    7.81
   2  -5  -1   58.04    9.46
   2   5  -1   60.07    7.13
  -2  -5   1   60.57    8.31
   2   5  -1   65.34    8.53
   2   5   0 1436.62   52.04
  -2  -5   0 1497.01   48.65
   2  -5   0 1515.38   51.23
  -2   5   0 1483.26   49.77
   2   5   0 1524.34   50.80
   2   5   1  226.53   17.61
   2   5   1  214.04   18.17
   2  -5   1  196.37   15.61
  -2  -5  -1  201.06   16.21
  -2   5  -1  209.38   15.30
   2  -5   2 3073.21   88.56
  -2   5  -2 3049.29   87.89
   2   5   2 2933.79   94.03
  -2  -5  -2 3023.85   92.90
   2   5   3   22.39    7.24
  -2  -5  -3   14.46    6.15
   2   5   3    7.18    5.22
  -2   5  -3   19.09    3.98
   2  -5   3   15.63    5.69
   2   5   4 1306.12   59.86
   2   5   4 1270.29   59.51
  -2   5  -4 1443.30   45.44
   2  -5   4 1308.47   53.89
   2  -5   5    3.60    4.42
   2   5   5   -0.12    6.08
   2  -5   5    2.23    5.67
   2  -5   6 1671.99   68.11
   2   5   6 1642.31   76.50
   2   5   7   10.13    8.42
   2  -5   7   13.84    8.56
   2  -5   8  513.76   38.74
   2   5   8  606.47   48.32
   2  -5   9    4.31    8.58
   2   5   9   12.48   11.26
   2  -5  10   76.08   16.90
   2   5  10   73.38   19.37
   2  -5  11   18.84    9.35
   2   5  11  -19.87   12.46
  -2   6  16  216.34   40.58
  -2  -6  15   11.48    6.22
  -2   6  15    6.29   14.03
   2  -6 -14  312.79   45.34
  -2  -6  14  268.42   27.43
   2  -6 -13    0.26   10.92
  -2  -6  13   -6.36    6.22
  -2  -6  12  141.85   17.58
   2  -6 -12  148.61   28.61
  -2  -6  12  147.73   17.34
  -2  -6  11    2.95    4.08
   2  -6 -11    1.74    9.58
  -2  -6  11   -4.85    6.03
   2  -6 -10   14.43   10.48
  -2  -6  10   33.85    7.78
  -2  -6  10   26.44    6.96
  -2  -6   9  107.77   11.47
   2  -6  -9   69.04   17.81
  -2  -6   9  100.34   11.09
  -2  -6   8  233.75   15.47
   2  -6  -8  230.71   29.54
  -2  -6   8  245.09   15.34
  -2   6   8  249.65   26.56
   2  -6  -7   25.61   10.28
  -2  -6   7   41.95    5.62
  -2  -6   7   35.75    5.16
  -2  -6   6 1734.89   45.22
  -2  -6   6 1611.35   41.71
  -2  -6   6 1703.81   43.22
  -2  -6   5   53.88    5.21
   2  -6  -5   16.87    8.38
   2  -6  -4 5098.40  162.76
  -2  -6   4 5147.78  123.93
  -2   6   3  148.13   18.38
  -2  -6   3  146.70   11.17
   2  -6  -3  145.21   20.80
   2   6  -2 4865.25  121.41
   2  -6  -2 4935.22  147.30
  -2   6   2 5102.74  138.97
   2   6  -2 5156.09  127.23
   2  -6  -1   -5.37    6.14
   2   6  -1    0.57    3.43
  -2   6   1   -2.65    4.21
   2   6  -1   -0.37    2.56
  -2  -6   1    3.28    3.16
   2   6   0 3983.14  110.35
  -2  -6   0 4003.54  106.88
  -2   6   0 4115.41  109.43
   2  -6   0 4122.88  112.24
   2   6   0 4078.97  113.00
  -2   6  -1   35.67    6.58
   2   6   1   32.43    7.40
   2  -6   1   38.05    7.09
   2   6   1   35.09    8.84
  -2  -6  -1   32.53    7.02
   2   6   2 1522.31   61.03
  -2   6  -2 1633.20   54.98
  -2  -6  -2 1523.27   58.47
   2  -6   2 1557.96   55.56
  -2  -6  -3   20.22    7.25
   2   6   3   41.80    9.96
  -2   6  -3   28.52    4.88
   2   6   3   31.20    9.98
   2  -6   3   14.94    5.93
   2   6   4  189.18   21.26
   2   6   4  170.90   20.59
  -2   6  -4  202.09   12.98
   2  -6   4  179.37   17.55
  -2  -6  -4  169.25   20.87
   2  -6   5  175.37   18.85
   2  -6   5  164.66   18.01
   2   6   5  153.70   20.86
  -2  -6  -5  169.80   22.21
   2  -6   6  120.02   16.20
   2   6   6  117.31   20.37
   2   6   7   51.71   14.64
   2  -6   7   25.83    8.39
   2  -6   8  308.86   29.21
   2   6   8  284.58   34.50
   2  -6   9   -6.21    7.28
   2   6   9    2.81    8.07
   2  -6  10  205.59   26.52
   2   6  10  212.03   33.79
   2  -6  11  -20.63   10.87
   2   6  11   25.37   15.41
  -2   7  15  -40.26   19.39
   2  -7 -14   98.90   26.32
  -2  -7  14  134.79   19.40
   2  -7 -13    8.95   12.29
  -2  -7  13   10.98    5.74
  -2  -7  12  553.39   34.05
   2  -7 -12  488.60   53.20
  -2  -7  11   43.54    8.79
   2  -7 -11   59.63   19.96
  -2  -7  11   39.42    8.57
   2  -7 -10 1494.30   87.11
  -2  -7  10 1343.99   50.93
  -2  -7  10 1350.64   50.61
  -2  -7   9  137.96   12.37
  -2  -7   9  127.17   11.96
   2  -7  -9  102.42   21.26
   2  -7  -8 2105.00  100.41
  -2  -7   8 2370.06   65.64
  -2  -7   8 2253.32   64.68
  -2   7   8 2321.70   96.47
   2  -7  -7   -2.30   12.12
  -2  -7   7    9.69    3.19
  -2   7   7    1.00    6.50
  -2  -7   7    3.65    2.00
   2  -7  -6 1838.74   88.17
  -2  -7   6 1981.94   47.95
  -2  -7   6 1929.00   48.90
   2  -7  -5   32.35   10.34
   2  -7  -4  679.03   46.44
   2  -7  -3  279.44   29.11
   2   7  -3  298.18   13.14
  -2   7   3  319.07   27.60
  -2  -7   2   18.75    3.46
  -2   7   2   11.78    5.33
   2   7  -2   12.12    4.41
   2  -7  -2    6.00    6.41
   2   7  -2    8.03    4.30
  -2   7   1  217.49   17.72
   2   7  -1  250.03   17.10
  -2  -7   1  219.94   14.02
   2  -7  -1  231.14   20.44
   2   7  -1  220.33   17.09
   2   7   0  983.34   41.19
  -2   7   0 1021.31   40.07
   2  -7   0 1001.70   43.28
  -2  -7   0  954.95   37.59
   2   7   0  954.81   42.14
   2   7   1  134.11   14.43
   2  -7   1  160.19   15.30
  -2   7  -1  152.18   13.45
   2   7   1  117.73   14.38
  -2  -7  -1  152.67   14.49
   2  -7   2  955.87   41.06
  -2  -7  -2  953.17   44.03
   2   7   2  919.22   46.04
   2   7   3   91.46   14.40
   2  -7   3   98.24   12.31
  -2  -7  -3   64.66   12.10
   2   7   3   91.96   14.83
   2   7   4 2218.04   85.57
   2   7   4 2173.89   86.86
  -2   7  -4 2297.71   61.62
   2  -7   4 2090.63   74.42
  -2  -7  -4 2029.18   82.50
  -2  -7  -5  117.89   18.98
   2   7   5   99.80   17.22
   2  -7   5   86.36   12.89
   2   7   6 1101.00   63.16
   2  -7   6 1053.01   51.25
   2   7   7   -3.25    7.67
   2  -7   7    7.75    6.33
   2  -7   8  410.57   33.64
   2   7   8  474.53   45.42
   2   7   9   -1.53    9.09
   2  -7   9    5.33    7.68
   2  -7  10   29.99   10.61
   2   7  10   72.80   23.07
   2  -7  11   13.50    8.24
  -2   8  15  -58.31   23.17
   2  -8 -14  229.96   40.91
  -2  -8  13   26.79    8.14
   2  -8 -13   -0.40   12.95
   2  -8 -12   60.31   22.45
  -2  -8  12   88.42   12.94
  -2  -8  11    1.51    4.75
  -2  -8  11    0.87    4.02
   2  -8 -11    2.98   10.74
   2  -8 -10   -3.18    9.61
  -2  -8  10    6.95    3.47
  -2  -8  10    5.11    4.19
   2  -8  -9   91.63   21.20
  -2  -8   9   82.28    9.28
  -2  -8   9   95.53    9.79
  -2  -8   8  247.43   13.99
   2  -8  -8  222.40   30.97
  -2  -8   8  260.49   14.65
   2  -8  -7   64.58   15.08
  -2  -8   7  100.48    7.26
  -2   8   7   73.05   16.61
  -2  -8   7   93.19    6.79
  -2   8   6 1725.56   81.28
   2  -8  -6 1542.67   80.59
   2  -8  -5  151.24   22.95
  -2   8   5  147.38   21.06
   2  -8  -4 1849.90   84.49
  -2  -8   3  204.87    9.01
   2   8  -3  205.26   10.84
   2  -8  -3  185.87   23.66
   2   8  -3  224.69   15.05
  -2  -8   2 7360.36  167.74
   2   8  -2 7378.81  178.67
   2   8  -2 6973.98  178.58
  -2   8   2 7222.14  190.79
   2   8  -1  123.73   13.47
  -2  -8   1  148.37   11.57
   2  -8  -1  138.51   17.25
  -2   8   1  116.86   13.45
   2   8  -1  121.71   13.00
   2   8   0 2212.94   76.49
   2   8   0 2331.72   77.44
  -2   8   0 2409.48   74.23
   2  -8   0 2362.09   79.91
  -2  -8   0 2364.55   71.59
  -2  -8  -1   11.55    5.18
  -2   8  -1   14.46    4.63
   2  -8   1    6.13    4.31
   2   8   1   12.88    6.15
   2  -8   2 1068.03   45.29
   2   8   2 1068.88   50.76
   2   8   2 1069.52   51.71
  -2  -8  -2 1057.70   47.77
   2  -8   3  102.12   13.04
  -2  -8  -3   72.20   13.06
  -2   8  -3   88.40   11.65
   2   8   3   89.81   15.25
   2   8   3  111.95   15.98
  -2  -8  -4  135.11   19.18
  -2   8  -4  135.87    9.64
   2  -8   4  135.40   15.77
   2   8   4  149.34   20.89
   2  -8   5   71.14   11.70
   2   8   5   62.99   15.37
  -2  -8  -5   81.87   15.52
  -2  -8  -6   66.40   16.36
   2   8   6   58.42   17.16
   2  -8   6   63.59   12.39
   2   8   7   15.22   11.39
   2  -8   7    7.53    6.15
   2   8   8  138.24   26.49
   2  -8   8  128.39   18.61
   2  -8   9   16.88    9.89
   2   8   9   16.56   11.19
   2   8  10  354.01   44.75
   2  -8  10  299.32   31.42
   2  -8  11    6.10    8.81
   2  -9 -13   -0.84   13.81
  -2  -9  12  460.22   28.41
   2  -9 -12  432.56   51.77
  -2  -9  11   -1.44    3.75
   2  -9 -11    5.52   12.39
   2  -9 -10  561.61   54.58
  -2  -9  10  606.85   28.86
  -2  -9  10  641.87   29.17
   2  -9  -9   25.29   15.12
  -2  -9   9   31.84    5.50
  -2  -9   9   29.11    5.56
  -2  -9   8 2799.40   72.12
   2  -9  -8 2665.04  118.66
  -2  -9   8 2745.20   71.73
   2  -9  -7  120.18   21.09
  -2  -9   7  110.36    6.99
   2  -9  -6 1046.27   66.06
  -2   9   6 1316.17   68.95
   2  -9  -5   -0.43    7.42
  -2   9   5    9.81    6.61
  -2   9   4  240.65   26.19
   2  -9  -4  215.11   26.39
  -2  -9   3  207.41    9.90
   2   9  -3  205.46   11.23
   2  -9  -3  196.11   25.15
   2   9  -3  215.51   15.47
   2   9  -2  130.45   12.84
   2   9  -2  100.72   12.68
  -2  -9   2  124.88    9.76
   2   9  -1  229.88   18.64
   2  -9  -1  190.59   21.71
   2   9  -1  183.51   17.25
  -2  -9   1  178.18   13.73
   2   9   0  555.45   32.50
   2  -9   0  563.67   35.19
   2   9   0  575.34   33.54
  -2  -9   0  582.44   28.99
   2   9   1  324.47   26.07
   2  -9   1  398.62   27.31
  -2  -9  -1  342.26   23.80
   2   9   2  996.58   50.95
   2   9   2 1015.86   50.84
  -2  -9  -2  973.38   46.73
   2  -9   2  983.70   44.57
  -2  -9  -3   25.11    9.11
   2   9   3   16.34    7.66
   2  -9   3   33.30    8.59
  -2   9  -3   29.86    7.00
   2   9   3   19.73    8.25
  -2   9  -4 2319.04   60.40
   2  -9   4 2138.12   77.34
   2   9   4 2369.32   94.22
  -2  -9  -4 2108.89   86.76
   2  -9   5   17.73    7.33
  -2  -9  -5   13.53    8.77
   2   9   5   17.61    9.94
   2   9   6  759.79   54.57
   2  -9   6  688.98   40.26
  -2  -9  -6  666.63   49.70
   2   9   7    5.69    9.32
   2  -9   7    5.37    5.82
   2  -9   8  315.50   29.35
   2   9   8  370.27   42.43
   2   9   9  -11.25   13.26
   2  -9   9   -2.38    6.05
   2  -9  10   36.60   11.65
   2 -10 -13   19.27   16.25
   2 -10 -12   96.76   24.54
   2 -10 -11   52.72   18.95
  -2 -10  11   37.36    7.22
   2 -10 -10  -12.35   12.35
  -2 -10  10   16.89    4.41
  -2 -10   9  130.27   10.11
   2 -10  -9  108.53   23.96
  -2 -10   9  111.31    9.35
   2 -10  -8  388.06   42.09
  -2 -10   8  457.02   18.06
   2 -10  -7   -8.33   12.19
   2 -10  -6  969.25   63.34
  -2  10   6 1033.92   61.44
   2 -10  -5   -3.85    6.58
  -2  10   5   -3.08    5.82
  -2  10   4 2396.53   95.46
   2 -10  -4 2387.34  101.03
  -2  10   3  117.69   17.90
   2 -10  -3  110.89   19.76
   2  10  -3  125.73    8.75
   2  10  -3  141.48   12.84
  -2 -10   3  121.21    8.01
   2  10  -2 4473.56  124.23
   2 -10  -2 4526.77  152.29
   2  10  -2 4724.91  130.35
  -2 -10   2 4512.60  113.28
   2  10  -1   95.69   12.71
  -2 -10   1   88.84   10.25
   2  10  -1  106.28   14.16
   2 -10  -1  125.42   19.22
   2  10   0 2130.84   79.21
   2 -10   0 2081.07   80.89
  -2 -10   0 2146.89   69.50
   2  10   0 2163.01   76.51
  -2 -10  -1  110.64   14.31
   2 -10   1   97.66   14.71
   2  10   1  123.71   16.54
   2  10   2  592.29   39.27
   2  10   2  617.28   39.33
  -2 -10  -2  533.62   33.75
   2 -10   2  528.63   32.60
   2 -10   3   36.07    8.91
  -2 -10  -3   43.88   11.84
  -2  10  -3   30.11    7.12
   2  10   3   41.11   11.66
   2  10   3   13.79    7.63
  -2 -10  -4  125.86   18.78
  -2  10  -4  109.17    7.67
   2 -10   4   82.71   12.94
   2  10   4  100.33   19.12
   2 -10   5   60.97   11.83
  -2 -10  -5   71.80   16.06
   2  10   5   76.04   16.90
  -2 -10  -6   27.96   12.67
   2  10   6   18.33   12.17
   2 -10   6   21.38    8.01
   2  10   7   33.60   14.70
  -2 -10  -7   29.21   14.71
   2 -10   7   15.01    7.15
   2  10   8  143.85   29.00
   2 -10   8  128.37   18.42
   2  10   9   76.41   22.11
   2 -10   9   53.12   12.89
   2 -11 -13   52.30   23.48
   2 -11 -12  413.52   52.06
   2 -11 -11   18.99   15.67
   2 -11 -10  927.23   72.47
  -2 -11   9    0.24    1.75
   2 -11  -9   -0.54   11.84
   2 -11  -8 1067.20   71.48
   2 -11  -7  203.99   29.77
   2 -11  -6  886.14   60.62
   2 -11  -5  238.87   29.89
  -2  11   5  303.88   29.92
  -2  11   4  589.92   42.52
   2 -11  -4  565.45   45.27
   2 -11  -3  165.31   23.54
  -2  11   3  167.44   20.83
   2  11  -3  171.52   10.57
   2  11  -3  179.93   15.33
  -2 -11   3  161.41   10.00
  -2 -11   2   13.45    4.17
   2  11  -2   17.11    5.61
  -2  11   2    6.27    5.13
   2 -11  -2    4.05    8.28
   2  11  -2   15.41    5.68
  -2  11   1  267.31   22.20
   2  11  -1  307.37   23.33
   2  11  -1  316.03   26.52
  -2 -11   1  297.31   19.30
   2 -11  -1  300.97   30.71
   2  11   0  167.46   18.50
   2 -11   0  170.40   21.49
  -2 -11   0  178.94   16.49
   2 -11   1  129.22   17.40
  -2  11  -1  138.00   14.52
   2  11   1  122.23   17.70
  -2 -11  -1  126.20   15.32
   2  11   1  119.58   16.75
   2  11   2 1945.56   82.23
  -2  11  -2 1915.51   66.46
   2  11   2 2001.32   81.28
  -2 -11  -2 1846.54   73.43
   2 -11   2 1930.61   74.04
   2 -11   3  365.81   27.78
  -2 -11  -3  329.59   28.54
   2  11   3  360.53   33.24
  -2  11  -3  388.56   25.19
   2  11   4 1417.84   73.10
   2 -11   4 1318.03   57.24
  -2 -11  -4 1305.10   65.58
  -2 -11  -5   24.86   11.88
   2 -11   5   31.76    9.38
   2  11   5   40.41   14.00
   2 -11   6  675.48   40.48
   2  11   6  778.26   57.90
  -2 -11  -6  632.48   50.15
  -2 -11  -7    1.72    8.89
   2  11   7    9.83   14.07
   2 -11   7   -0.29    6.72
   2  11   8  159.62   30.57
   2 -11   8  142.32   19.25
   2 -12 -12  112.62   29.76
   2 -12 -11   97.30   26.30
   2 -12 -10   63.15   20.43
   2 -12  -9   28.74   14.47
   2 -12  -8  174.20   29.95
   2 -12  -7  115.00   23.00
   2 -12  -6  728.65   55.79
   2 -12  -5   -2.85    8.84
   2 -12  -4 2153.13   94.87
  -2  12   4 2121.69   88.77
  -2 -12   4 1956.94   48.13
   2 -12  -3  189.44   25.26
  -2 -12   3  156.89   10.43
  -2  12   3  169.39   21.34
   2  12  -3  150.92   10.37
   2  12  -3  165.99   15.50
   2 -12  -2 1988.94   88.25
  -2 -12   2 1849.73   56.97
   2  12  -2 1841.43   64.18
   2  12  -2 1946.73   67.90
  -2  12   2 1826.30   73.17
  -2  12   1  104.57   14.41
   2  12  -1   93.08   13.53
  -2 -12   1   77.48   10.11
   2  12  -1   75.31   13.42
   2 -12  -1   70.24   15.81
   2  12   0 1694.83   69.18
  -2  12   0 1688.74   64.05
   2 -12   0 1732.80   78.59
  -2 -12   0 1726.43   61.94
  -2  12  -1   67.07   10.42
  -2 -12  -1   49.88   10.12
   2  12   1   37.76   10.68
   2  12   1   59.77   12.97
   2 -12   1   52.50   12.74
   2  12   2  509.05   39.87
   2  12   2  528.87   39.06
  -2 -12  -2  480.58   33.65
   2 -12   2  443.49   33.07
  -2  12  -2  479.49   28.67
   2 -12   3  127.69   16.92
  -2 -12  -3  136.70   19.19
   2  12   3  177.09   23.40
  -2  12  -3  162.05   16.20
   2 -12   4   84.17   13.52
  -2 -12  -4   85.76   16.00
   2  12   4   87.21   18.11
  -2 -12  -5   36.25   12.70
   2 -12   5   49.71   10.92
   2  12   5   63.69   17.46
  -2 -12  -6   50.03   15.83
   2 -12   6   40.52   10.20
   2  12   6   35.94   16.40
  -2 -12  -7   93.91   19.83
   2  12   7   43.12   16.51
   2 -12   7   74.81   13.31
   2  12   8  137.63   28.65
   2 -13 -12  213.51   39.26
   2 -13 -11   13.50   14.60
   2 -13 -10  788.22   68.47
   2 -13  -9    5.78   11.95
   2 -13  -8  512.21   50.53
   2 -13  -7   32.21   14.99
   2 -13  -6  693.97   55.26
   2 -13  -5  449.74   42.48
  -2 -13   4  282.99   10.94
   2 -13  -4  293.08   32.61
   2 -13  -3  311.73   32.98
  -2 -13   3  316.10   15.84
  -2  13   3  293.20   28.27
   2  13  -3  304.33   21.75
   2  13  -3  293.29   15.24
   2  13  -2    4.00    3.53
  -2 -13   2   17.16    4.53
   2  13  -2    9.38    5.94
  -2  13   2    4.34    4.30
   2 -13  -2   11.08    7.99
   2  13  -1  355.69   27.15
  -2  13   1  374.26   27.79
   2 -13  -1  371.27   34.59
   2  13  -1  351.28   28.79
  -2 -13   1  336.58   21.77
   2  13   0  407.17   34.92
  -2 -13   0  415.23   26.74
  -2  13   0  396.71   27.70
   2  13   0  413.78   31.64
   2 -13   0  466.11   38.80
  -2 -13  -1  105.91   14.35
   2  13   1  104.53   18.05
  -2  13  -1  130.50   14.91
   2  13   1  104.42   16.54
   2 -13   1   88.96   16.13
   2  13   2 1127.45   61.34
  -2  13  -2 1159.67   49.30
   2 -13   2 1193.62   58.93
  -2 -13  -2 1205.39   57.08
  -2 -13  -3  140.07   19.39
   2 -13   3  150.80   19.11
   2  13   3  159.98   22.62
  -2  13  -3  148.55   15.86
   2  13   4  608.33   49.08
   2 -13   4  624.82   39.05
  -2 -13  -4  569.10   42.57
   2 -13   5    8.80    4.45
  -2 -13  -5   12.45    9.84
   2  13   5   15.22   11.51
   2  13   6  516.73   50.35
  -2 -13  -6  446.72   42.91
   2 -13   6  480.83   34.06
  -2 -13  -7    1.19    8.90
   2  13   7   -1.61    8.54
   2 -14 -11   85.24   27.15
   2 -14 -10    8.78   10.57
   2 -14  -9   74.43   20.96
   2 -14  -8    5.18   11.93
   2 -14  -7   99.71   22.59
   2 -14  -6  495.60   46.50
   2 -14  -5  131.98   23.91
   2 -14  -4 1349.13   74.41
  -2 -14   4 1278.77   34.05
   2 -14  -3    4.51    7.90
  -2 -14   3    2.42    2.40
   2  14  -3    2.08    2.17
   2  14  -3    4.00    4.31
   2 -14  -2  891.62   56.28
   2  14  -2  820.98   42.23
   2  14  -2  815.99   35.84
  -2 -14   2  817.88   33.59
  -2  14   2  807.31   45.53
   2  14  -1    0.53    5.15
  -2  14   1   -6.67    5.42
   2 -14  -1   -6.12    6.45
  -2 -14   1   -4.30    4.28
   2  14   0 1005.67   52.55
  -2  14   0  998.62   47.11
   2 -14   0 1054.57   61.64
   2  14   0  955.31   55.15
  -2 -14   0  951.69   44.66
  -2 -14  -1   67.50   12.05
  -2  14  -1   96.48   12.93
   2  14   1   72.17   14.14
   2  14   1   72.71   15.97
   2 -14   1   55.07   13.60
  -2  14  -2  461.46   28.70
   2  14   2  509.23   40.27
   2 -14   2  399.11   33.53
  -2 -14  -2  448.74   33.32
  -2 -14  -3   73.17   14.27
   2  14   3  121.77   21.32
   2 -14   3  111.28   16.87
  -2 -14  -4   18.60    9.39
   2  14   4   14.17   11.52
   2 -14   4   12.00    6.77
   2  14   5  112.31   22.86
   2 -14   5  139.80   18.49
  -2 -14  -5  104.65   20.00
   2  14   6   30.17   12.78
  -2 -14  -6   79.36   19.61
  -2 -14  -7  124.82   24.84
   2 -15 -11   25.20   14.61
   2 -15 -10  451.05   52.51
   2 -15  -9   74.97   23.37
   2 -15  -8  396.90   45.15
   2 -15  -7    4.46   10.19
   2 -15  -6  409.53   42.74
   2 -15  -5   80.85   17.77
   2 -15  -4  120.15   22.36
   2  15  -3  335.37   16.60
   2 -15  -3  354.15   35.70
  -2 -15   3  331.51   17.35
   2  15  -3  381.79   26.29
   2  15  -2    5.43    5.51
   2  15  -2   12.36    4.35
   2 -15  -2   17.63   10.60
  -2 -15   2   11.79    4.44
   2  15  -1  288.35   25.93
   2 -15  -1  261.93   29.39
  -2  15   1  249.05   23.46
  -2 -15   1  264.43   20.06
   2  15   0  359.29   30.98
   2 -15   0  421.60   37.00
   2  15   0  388.42   32.80
  -2 -15   0  354.35   25.78
  -2  15   0  383.59   27.92
   2  15   1  293.06   29.25
  -2  15  -1  279.03   22.62
  -2 -15  -1  268.02   24.51
   2 -15   1  240.86   28.45
   2 -15   2  409.49   35.40
   2  15   2  411.01   37.12
  -2 -15  -2  412.92   32.40
  -2 -15  -3    9.42    7.25
   2  15   3   14.06    7.45
   2 -15   3   28.63    9.08
   2 -15   4  413.31   33.09
   2  15   4  416.41   42.13
  -2 -15  -4  385.01   35.94
   2  15   5   89.92   21.26
  -2 -15  -5   59.92   16.92
  -2 -15  -6  347.22   38.59
   2  15   6  381.29   45.23
  -2 -15  -7   -3.43    9.07
   2 -16 -10    9.02   12.08
   2 -16  -9   60.47   18.58
   2 -16  -8   60.55   20.36
   2 -16  -7   80.09   20.23
   2 -16  -6  240.65   33.42
   2 -16  -5   96.52   21.32
   2 -16  -4  531.95   46.08
   2 -16  -3   45.05   14.36
   2  16  -3   76.65   12.27
   2  16  -2  914.43   47.35
   2 -16  -2  951.61   59.54
  -2 -16   2  941.32   37.73
   2  16  -1    9.02    7.18
   2 -16  -1   17.76    7.41
  -2 -16   1   21.05    6.92
   2  16   0  470.04   36.31
   2 -16   0  543.38   42.24
  -2 -16   0  492.17   31.09
   2 -16   1   63.31   15.08
  -2 -16  -1   58.07   11.31
   2  16   1   63.69   14.77
   2 -16   2  195.18   25.28
  -2 -16  -2  143.13   19.17
   2  16   2  152.25   23.68
   2  16   3  133.80   23.55
  -2 -16  -3  131.60   20.22
   2  16   4   29.04   13.26
  -2 -16  -4    2.50    7.73
   2  16   5   66.25   18.83
  -2 -16  -5   95.66   19.68
  -2 -16  -6   33.08   14.07
   2 -17  -9   31.21   15.92
   2 -17  -8  435.33   49.23
   2 -17  -7   48.84   16.83
   2 -17  -6  232.06   33.36
   2 -17  -5   64.03   17.25
   2 -17  -4   64.15   16.12
   2  17  -3  184.23   19.10
   2 -17  -3  209.45   27.42
   2 -17  -2  -10.74    8.82
   2  17  -2    5.98    5.41
   2 -17  -1  260.38   29.35
   2  17  -1  224.59   24.03
  -2 -17   0  161.71   17.63
   2  17   0  150.26   21.03
   2 -17   0  158.32   22.81
   2  17   1  105.25   18.67
  -2 -17  -1  104.12   15.15
   2 -17   1  103.82   18.19
  -2 -17  -2  198.52   22.53
   2  17   2  167.55   25.07
  -2 -17  -3   10.96    7.55
   2  17   3   29.15   12.42
  -2 -17  -4  445.87   39.99
   2  17   4  478.98   46.77
  -2 -17  -5   23.63   11.62
  -2 -17  -6  213.84   30.84
   2 -18  -9   41.22   16.46
   2 -18  -8    2.02   10.75
   2 -18  -7   93.51   22.25
   2 -18  -6  189.76   29.83
   2 -18  -5   14.12    8.59
   2 -18  -4  322.11   36.36
   2 -18  -3    1.31    7.91
   2 -18  -2  684.46   50.00
   2  18  -2  634.00   39.88
   2  18  -1    2.72    4.80
   2 -18  -1    1.50    7.28
   2  18   0  315.08   30.79
   2  18   1   41.66   12.55
   2  18   2  122.19   21.69
  -2 -18  -3   73.59   15.76
   2  18   3   86.66   19.99
  -2 -18  -4    9.05    9.32
  -2 -18  -5   53.85   15.93
   2 -19  -8  248.38   37.72
   2 -19  -7   32.00   12.85
   2 -19  -6  260.32   34.92
   2 -19  -5   95.24   21.33
   2 -19  -4   21.68   11.14
   2 -19  -3  207.03   28.40
   2  19  -2   25.10    8.34
   2  19  -1  132.63   19.20
   2  19   0   60.48   14.22
   2  19   1   59.53   15.41
   2  19   2  164.08   25.68
   2 -20  -7   32.79   14.08
   2 -20  -6   80.58   22.86
   2  20  -1   21.72    9.09
   2  20   0  205.59   25.87
   2  20   1   28.40   11.71
   3   0 -16   74.94   20.01
  -3   0  16   37.65   12.24
   3   0 -15    8.83   11.88
   3   0 -14  472.35   45.07
   3   0 -13   -8.54   11.23
   3   0 -12  957.40   58.63
   3   0 -11   -2.53    5.86
  -3   0  11   -4.07    5.18
   3   0 -10 1954.97   82.67
  -3   0  10 2169.10   79.71
   3   0  -9   -1.98    6.33
  -3   0   9   -1.80    6.08
   3   0  -8 3606.65  116.48
  -3   0   8 3810.24  115.98
   3   0  -7   -2.16    6.81
  -3   0   7   -1.59    4.46
  -3   0   6 1429.34   58.64
   3   0  -6 1379.88   60.52
  -3   0   5   -0.26    3.68
   3   0  -5   -0.75    4.90
   3   0  -4  449.29   23.46
  -3   0   4  433.22   23.36
   3   0  -3    4.04    2.86
  -3   0   3   -2.13    2.51
  -3   0   2 1451.23   47.53
   3   0  -2 1452.96   46.24
   3   0  -1    0.63    3.61
  -3   0   1    0.80    3.23
   3   0   0  575.91   28.17
  -3   0  -1    3.30    3.55
   3   0   1   -0.77    4.81
   3   0   2 5731.57  155.38
  -3   0  -3   -0.82    3.90
   3   0   3   -9.21    6.58
   3   0   3    0.35    5.46
   3   0   4 3655.09  117.53
   3   0   5   -7.11    7.77
   3   0   6  363.22   33.80
   3   0   7    7.98    9.80
   3   0   8  350.48   36.86
   3   0   9    4.60   10.15
   3   0  10   14.07   11.91
   3  -1 -16  182.16   30.43
  -3   1  16  148.21   25.64
   3   1 -15    7.68   11.02
   3  -1 -15    6.15   11.75
  -3  -1  15   -9.30    8.64
   3  -1 -14  473.11   46.05
   3   1 -14  477.96   43.14
   3  -1 -13   20.10   11.00
   3   1 -13   18.61    8.84
   3  -1 -12  153.18   24.44
  -3  -1  12  146.30   18.87
   3   1 -12  175.32   23.57
   3  -1 -11    4.55    7.48
  -3  -1  11   -3.10    4.88
  -3   1  11   14.41    8.60
   3   1 -11   10.71    7.15
   3   1 -10   46.78   12.23
   3  -1 -10   56.74   14.06
  -3  -1  10   74.39   12.56
  -3   1  10   56.26   11.69
   3   1  -9   -0.67    6.26
   3  -1  -9    0.04    7.28
  -3  -1   9   -1.18    4.87
  -3   1   9   -4.34    7.12
   3   1  -8 1827.33   68.67
  -3  -1   8 1828.44   67.85
  -3   1   8 1904.38   73.18
   3  -1  -8 1789.18   75.60
   3   1  -7  201.17   18.99
  -3  -1   7  221.94   20.15
  -3   1   7  213.27   21.97
   3  -1  -7  179.90   21.20
   3  -1  -6 3615.00  117.67
   3   1  -6 3388.75  108.20
  -3   1   6 3434.40  111.41
  -3  -1   6 3690.71  108.02
   3  -1  -5  941.91   46.43
   3   1  -5  922.61   40.85
  -3   1   5  867.66   43.59
  -3  -1   5  848.84   36.40
  -3  -1   4 4599.43  118.93
   3   1  -4 4862.19  119.65
   3  -1  -4 4856.35  127.74
  -3   1   4 4606.46  127.08
  -3  -1   3   46.63    6.34
   3  -1  -3   49.18    7.21
   3   1  -3   37.70    5.54
  -3   1   3   60.15    8.23
   3  -1  -2 8443.28  198.31
  -3  -1   2 8039.32  197.38
   3   1  -2 8436.20  195.57
  -3  -1   1  575.43   26.92
   3  -1  -1  579.89   26.81
   3   1  -1  583.83   26.35
   3  -1   0 2534.58   76.05
   3   1   0 2521.63   76.01
   3  -1   1    1.30    4.98
  -3  -1  -1    4.02    4.10
   3   1   1    9.85    6.18
  -3   1  -1    7.78    3.96
  -3   1  -2 1000.99   41.42
   3  -1   2  927.81   43.24
   3   1   2  913.35   42.93
  -3  -1  -3   -0.73    3.90
   3  -1   3   -4.45    4.27
   3  -1   3    2.54    6.12
   3   1   3    3.96    5.54
   3  -1   4   -0.27    6.73
   3   1   4   -7.54    7.77
  -3   1  -4   -0.64    4.51
   3  -1   5   11.18    8.19
   3   1   5  -10.48    7.76
   3  -1   6   78.18   16.17
   3   1   6   70.13   15.28
   3  -1   7    8.59    8.08
   3   1   7    3.40    8.45
   3   1   8  424.22   41.07
   3  -1   8  369.87   37.80
   3  -1   9   -1.77    9.56
   3   1   9   -6.65   11.67
   3  -1  10  246.88   34.51
   3  -2 -17    7.33   11.91
   3  -2 -16   70.97   20.87
  -3   2  16   27.33   13.08
   3  -2 -15   14.22   13.75
  -3  -2  15   24.59    9.02
   3   2 -14  319.10   34.55
   3  -2 -14  388.69   42.94
   3   2 -13   17.00    9.45
   3  -2 -13    7.26    9.18
  -3  -2  12 1077.88   53.55
   3  -2 -12 1130.13   68.44
   3   2 -12 1102.47   59.11
   3   2 -11   39.47   10.14
  -3  -2  11   27.26    7.39
   3  -2 -10 2404.15  100.89
  -3  -2  10 2661.07   86.69
  -3   2  10 2562.67   94.47
   3   2 -10 2449.06   88.96
   3   2  -9  217.30   20.60
  -3  -2   9  181.73   17.39
   3  -2  -9  191.68   23.94
  -3   2   9  192.13   21.38
   3   2  -8 2918.06   91.61
   3  -2  -8 2875.76  107.79
  -3  -2   8 3043.61   92.97
  -3   2   8 3039.59  103.60
   3   2  -7  326.75   21.97
  -3  -2   7  323.21   23.39
   3  -2  -7  288.44   28.85
  -3   2   7  331.16   28.62
   3   2  -6 1571.09   58.48
   3  -2  -6 1581.39   71.69
  -3   2   6 1611.94   67.92
  -3   2   5    0.17    4.88
  -3  -2   5    2.07    2.43
   3  -2  -5    1.27    5.53
   3   2  -5    3.50    3.49
   3  -2  -4  100.86   13.38
  -3  -2   4  104.26    8.54
  -3   2   4   84.90   11.68
   3   2  -4   89.86    8.01
   3  -2  -3    6.72    4.32
   3   2  -3    3.06    2.29
  -3  -2   3    2.21    2.46
   3  -2  -2  607.86   27.38
   3   2  -2  599.44   24.28
  -3  -2   2  587.96   25.03
   3  -2  -1  402.12   22.54
   3   2  -1  431.20   21.91
   3  -2   0 2185.51   68.19
   3   2   0 2079.86   66.26
   3  -2   1   21.93    6.59
   3   2   1   24.51    6.44
   3  -2   2 3245.22   96.85
  -3   2  -2 3436.53   93.00
   3   2   2 3438.60   98.78
   3  -2   3   74.13   12.69
   3   2   3   58.81   11.02
   3   2   4 1843.93   74.32
  -3   2  -4 1737.18   64.06
   3  -2   4 1902.74   73.09
   3  -2   5   15.58    8.60
   3   2   5   -2.53    8.92
   3   2   6  907.67   55.85
   3  -2   6  879.11   52.54
   3  -2   7   -2.59    8.04
   3   2   7   -0.22    6.96
   3   2   8  246.32   31.44
   3  -2   8  232.33   29.33
   3  -2   9   30.45   13.44
   3   2   9  -16.13   14.41
   3  -2  10    9.41   10.49
  -3   3  17  -19.29   12.71
   3  -3 -16  248.69   38.83
   3  -3 -15    2.88   10.36
   3  -3 -14  162.51   28.92
  -3  -3  14  151.99   18.40
   3  -3 -13   85.03   20.21
   3   3 -13   32.58   10.55
   3   3 -12  110.55   17.52
   3  -3 -12  142.60   24.96
  -3  -3  12  118.42   16.19
   3  -3 -11   12.08   11.82
  -3  -3  11    4.21    4.04
   3   3 -11    6.89    6.42
   3   3 -10   64.34   11.37
   3  -3 -10   66.26   17.56
  -3  -3  10   62.38   10.51
  -3   3  10   43.93   11.43
  -3  -3   9   30.07    6.84
   3  -3  -9   11.24    6.84
  -3   3   9   25.55    7.58
   3   3  -9   37.85    8.09
   3   3  -8  654.11   31.61
   3  -3  -8  643.80   46.05
  -3  -3   8  634.16   32.60
  -3   3   8  641.00   41.91
   3  -3  -7   26.47   11.46
  -3  -3   7   31.46    7.01
   3   3  -7   27.68    6.02
  -3  -3   6 4526.12  117.55
   3   3  -6 4316.34  116.14
   3  -3  -6 4720.38  147.45
  -3  -3   5  512.29   20.39
   3  -3  -5  526.25   38.05
   3   3  -5  501.38   24.86
   3  -3  -4 8321.52  207.43
   3   3  -4 7927.27  179.42
   3   3  -3  170.61   10.26
   3  -3  -3  177.97   16.44
  -3  -3   3  162.57   10.52
   3   3  -2 4542.42  113.28
  -3  -3   2 4505.01  120.91
   3  -3  -2 4675.11  121.48
   3  -3  -1  340.10   20.79
   3   3  -1  299.13   17.91
   3   3   0 3889.42  108.56
   3  -3   0 4096.78  110.83
   3   3   0 4039.73  112.11
   3  -3   1    8.72    6.10
   3   3   1    4.00    4.47
   3   3   2  328.95   24.39
   3  -3   2  343.44   24.11
  -3  -3  -2  355.28   25.28
  -3   3  -2  342.71   21.70
   3   3   3   33.36    9.29
   3  -3   3   25.80    7.92
  -3   3  -3   24.76    6.38
   3   3   3   10.51    5.32
   3  -3   4   34.03   10.17
   3  -3   5   10.40    7.94
   3   3   5   -3.39    8.60
   3   3   6  231.47   28.15
   3  -3   6  256.85   27.75
   3  -3   7   71.23   16.15
   3   3   7   38.61   13.55
   3  -3   8  243.14   29.51
   3   3   8  268.92   34.01
   3  -3   9    3.38    8.54
   3   3   9   -5.90   13.28
   3  -3  10  147.32   26.48
  -3   4  17  -23.79   14.69
   3  -4 -16   70.88   21.35
   3  -4 -15   30.10   16.83
   3  -4 -14  316.04   41.00
  -3  -4  14  254.76   22.03
   3  -4 -13  -10.45   12.79
   3   4 -12 1446.36   65.18
  -3  -4  12 1444.17   60.71
   3  -4 -12 1426.68   83.54
   3  -4 -11    4.91    9.17
   3   4 -11   -6.22    6.25
  -3  -4  11    0.69    4.33
  -3  -4  10 2654.17   83.89
  -3   4  10 2632.74  101.18
   3  -4 -10 2477.71  109.53
   3   4 -10 2533.04   84.32
   3   4  -9   88.75   10.90
   3  -4  -9   71.83   16.35
  -3  -4   9   85.67   10.85
  -3   4   9   80.96   15.19
   3  -4  -8  987.22   61.44
  -3  -4   8  999.78   41.39
   3   4  -8 1023.58   38.86
   3   4  -7   12.18    4.20
   3  -4  -7    9.36   11.32
  -3  -4   7   17.16    5.11
   3  -4  -6 3108.42  114.29
  -3  -4   6 2963.29   77.22
   3   4  -6 2952.32   76.94
   3   4  -5   27.50    4.97
   3  -4  -5   23.58   10.83
  -3  -4   5   26.96    3.40
   3   4  -4    3.54    2.08
  -3  -4   4    6.30    2.14
   3  -4  -4    0.07    5.40
   3  -4  -3    0.08    4.94
   3   4  -3    3.26    2.24
  -3  -4   3    7.27    3.77
  -3  -4   2  671.05   31.76
   3   4  -2  664.27   26.09
   3  -4  -2  696.09   32.82
   3   4  -1   10.30    4.22
   3   4  -1    3.35    3.66
   3  -4  -1    1.41    4.76
   3   4   0 2833.88   85.11
   3  -4   0 2719.01   83.51
   3   4   0 2677.04   80.91
  -3   4   0 2878.95   84.83
   3  -4   1   80.79   11.46
   3  -4   2 2224.78   76.67
  -3   4  -2 2233.18   70.68
   3   4   2 2411.82   82.83
   3   4   2 2308.70   81.65
  -3   4  -3   36.92    6.88
   3   4   3   31.39    8.48
   3  -4   3   27.93    9.06
   3   4   3   41.34   10.86
   3  -4   4 1300.37   57.86
   3   4   4 1275.63   61.99
   3  -4   5    2.83    7.22
   3   4   5    8.17    8.02
   3  -4   6 1123.07   59.23
   3  -4   7    7.44    9.05
   3   4   7  -21.33   14.43
   3  -4   8  202.67   26.18
   3   4   8  170.90   28.07
   3  -4   9    2.75    6.49
   3   4   9  -10.52   12.24
   3  -4  10   24.51   12.76
  -3   5  17  -18.06   14.98
   3  -5 -16  207.37   37.85
  -3  -5  16  293.40   30.70
   3  -5 -15    7.81   12.33
   3  -5 -14  127.78   27.10
   3  -5 -13    8.85    9.82
  -3  -5  13    9.33    5.64
  -3  -5  13    3.03    2.97
   3  -5 -12   80.88   21.45
  -3  -5  12   58.79   11.01
   3  -5 -11   61.81   18.64
  -3  -5  11   69.30   10.74
  -3  -5  10  106.21   12.22
   3  -5 -10  116.72   22.33
   3   5 -10  107.39   13.04
   3   5  -9   30.94    6.74
  -3   5   9   52.10   13.55
   3  -5  -9   27.27   12.58
  -3  -5   9   33.78    6.35
   3   5  -8  751.48   29.27
  -3  -5   8  798.06   33.41
   3   5  -7   33.68    4.44
  -3  -5   7   41.80    6.23
  -3  -5   6 5407.57  123.83
   3   5  -6 5379.56  124.19
   3   5  -5   19.05    3.12
  -3  -5   5   20.96    2.27
   3   5  -4 6371.94  145.40
   3  -5  -4 6813.61  187.99
  -3  -5   4 6348.25  158.75
   3   5  -3    0.71    2.39
   3  -5  -3    0.60    6.49
   3   5  -3    1.81    2.17
  -3  -5   3    5.78    3.74
   3   5  -2 3247.09   89.29
  -3  -5   2 3441.26   96.59
  -3   5   2 3330.29   99.21
   3  -5  -2 3394.13  100.11
   3   5  -2 3323.92   86.43
  -3   5   1    3.08    4.00
   3   5  -1    0.15    3.04
   3  -5  -1   -2.76    4.31
   3   5  -1   -2.00    4.06
   3  -5   0 3760.95  107.32
   3   5   0 3791.08  110.93
   3   5   0 3736.14  108.04
   3   5   1    1.86    4.56
   3  -5   1   -4.29    5.20
  -3   5  -2  500.90   30.03
   3  -5   2  484.82   29.72
   3   5   2  517.89   34.03
   3   5   2  532.47   33.83
  -3   5  -3    5.68    3.70
   3   5   3    5.97    4.97
   3  -5   3    5.25    5.17
   3   5   3    9.51    6.46
   3  -5   4    2.64    7.48
  -3   5  -4    1.34    3.19
   3   5   4  -11.63    7.76
   3  -5   5   48.65   12.38
   3   5   5   46.06   13.12
   3  -5   6  242.03   25.71
   3   5   6  267.84   30.74
   3  -5   7   -4.73    6.41
   3   5   7   11.01    9.06
   3  -5   8  225.52   27.64
   3   5   8  255.15   34.53
   3  -5   9  -12.78    9.53
   3   5   9   -9.24   10.67
   3  -5  10  134.35   24.49
  -3  -6  15   -5.26    7.08
   3  -6 -15   -1.92   15.47
  -3  -6  14  323.40   27.52
   3  -6 -14  245.95   38.18
  -3  -6  13   37.10    9.05
   3  -6 -13   45.12   18.56
   3  -6 -12  970.76   72.77
  -3  -6  12 1113.14   49.06
  -3  -6  12 1084.20   35.82
   3  -6 -11   -0.22   10.27
  -3  -6  11   -1.07    3.63
   3  -6 -10 1985.77  101.35
  -3  -6  10 2143.45   68.81
   3  -6  -9   23.10    9.33
  -3  -6   9   40.70    6.89
  -3   6   9   36.24   10.35
   3  -6  -8 1214.49   75.55
  -3  -6   8 1470.33   47.51
  -3  -6   7    4.76    1.63
   3  -6  -7    3.23    9.18
   3  -6  -6 1045.25   62.28
   3  -6  -5   46.30   13.97
  -3  -6   5   48.45    6.74
   3   6  -4   58.05    4.29
  -3  -6   4   68.46    8.58
   3   6  -4   64.19    5.19
   3  -6  -4   53.28   13.02
   3   6  -3   18.28    3.75
   3  -6  -3   13.95    8.15
   3   6  -3   16.34    3.24
  -3   6   3   21.47    7.63
  -3  -6   3   17.40    5.60
   3   6  -2  429.90   20.32
  -3   6   2  495.72   29.47
  -3  -6   2  488.06   27.51
   3  -6  -2  502.74   30.53
   3   6  -2  482.82   23.56
  -3  -6   1  797.50   38.47
   3  -6  -1  756.14   37.27
   3   6  -1  782.30   34.57
   3  -6   0 3122.51   94.30
   3   6   0 3107.83   94.55
   3   6   0 3072.20   97.01
  -3   6  -1   73.26   10.69
   3   6   1   37.14    8.68
   3  -6   1   59.47   10.44
   3   6   1   58.92   11.51
  -3   6  -2 2198.41   75.34
   3   6   2 2202.83   81.56
   3  -6   2 2243.69   76.33
   3   6   2 2096.71   81.38
   3   6   3   -2.18    7.17
  -3   6  -3    2.91    3.34
   3  -6   3    6.64    5.73
   3  -6   4 1642.28   66.81
  -3   6  -4 1593.74   55.45
   3   6   4 1665.88   75.20
   3   6   5   74.25   16.66
   3  -6   5   61.21   12.93
   3  -6   6  954.29   53.92
   3   6   6 1061.15   64.36
   3  -6   7    2.40    6.72
   3   6   7   41.74   16.12
   3  -6   8  126.69   20.40
   3  -6   9    5.90    8.14
   3   6   9   -9.34   13.34
   3  -6  10   -8.90   10.73
   3  -7 -15   37.61   16.96
   3  -7 -14  148.53   32.34
  -3  -7  14  228.60   22.12
   3  -7 -13   12.31   12.27
  -3  -7  13   -1.01    4.96
  -3  -7  12   23.66    6.44
   3  -7 -12   33.06   15.95
  -3  -7  12   24.17    6.55
   3  -7 -11   46.15   16.89
  -3  -7  11   54.40    8.91
  -3  -7  11   51.74    8.12
   3  -7 -10   36.96   13.44
  -3  -7  10   53.43    8.07
  -3  -7  10   62.83    7.77
  -3  -7   9   40.58    5.18
  -3  -7   9   30.54    5.95
   3  -7  -8  981.87   66.95
  -3   7   8 1130.66   63.58
  -3  -7   8 1127.40   35.47
  -3  -7   8 1049.40   29.93
  -3  -7   8 1082.60   32.70
  -3  -7   7  423.99   18.76
   3  -7  -7  441.85   42.01
  -3  -7   6 1983.48   58.41
   3  -7  -6 2112.27   94.47
   3  -7  -5   41.21   12.85
  -3  -7   5   34.16    6.04
  -3  -7   4 4937.93  129.30
   3   7  -4 4974.59  112.34
   3  -7  -4 4844.23  159.70
   3   7  -4 4951.39  116.46
   3   7  -3  114.90    9.75
   3   7  -3  120.51    8.37
   3  -7  -3  115.69   17.45
  -3  -7   3  119.72   12.58
   3   7  -2 4789.39  127.85
  -3  -7   2 5156.47  136.41
   3  -7  -2 5069.50  144.89
   3   7  -1   60.01    9.27
   3  -7  -1   51.69    9.66
   3   7  -1   75.28   11.69
   3   7   0 1649.35   64.83
   3  -7   0 1751.78   63.82
   3   7   1  166.43   18.16
   3  -7   1  158.15   16.74
  -3   7  -1  184.00   17.16
   3   7   1  156.43   18.72
  -3   7  -2  454.28   28.73
   3   7   2  460.47   32.65
   3  -7   2  412.28   28.16
   3   7   2  425.44   32.35
  -3   7  -3   50.51    7.77
   3  -7   3   41.93   10.12
   3   7   3   40.45   12.32
  -3   7  -4    6.31    4.18
   3  -7   4   12.35    7.98
   3   7   4   10.97   10.93
   3   7   5  116.82   20.38
   3  -7   5  126.24   17.70
   3  -7   6  158.15   20.84
   3   7   6  162.36   25.98
   3  -7   7    6.13    8.41
   3   7   7    3.51    7.90
   3  -7   8  196.69   25.48
   3   7   8  243.60   34.40
   3  -7   9    9.60    9.50
   3  -7  10  128.42   23.80
   3  -8 -15   -4.06   15.86
   3  -8 -14  340.49   48.11
   3  -8 -13   -5.42   14.86
  -3  -8  13   27.47    7.19
   3  -8 -12  652.95   62.47
  -3  -8  12  654.60   32.02
  -3  -8  11    6.35    3.86
   3  -8 -11  -10.84   15.47
  -3  -8  11   -0.87    3.76
  -3  -8  10 1226.54   43.35
  -3  -8  10 1263.59   40.11
  -3  -8   9   52.26    5.04
  -3  -8   9   52.47    6.30
   3  -8  -8 2450.05  112.77
  -3  -8   7    8.91    2.95
  -3   8   7   17.96    8.63
   3  -8  -6  457.22   41.19
  -3  -8   6  485.49   22.09
  -3   8   6  382.75   33.75
  -3   8   5  162.60   22.45
  -3  -8   5  156.57   13.06
   3  -8  -5  143.99   22.61
  -3  -8   4   35.32    6.78
   3   8  -4   24.77    4.00
   3   8  -4   34.16    3.04
  -3   8   4   26.68    8.99
   3  -8  -4   28.09   11.90
   3   8  -3  250.76   12.59
   3   8  -3  247.40   15.51
   3   8  -2  769.41   33.99
   3  -8  -2  747.21   43.04
   3   8  -1  336.45   22.90
   3  -8  -1  364.12   27.03
   3   8  -1  344.30   25.11
  -3   8   0 1015.27   45.03
   3  -8   0 1000.08   46.64
   3   8   0  984.07   48.01
  -3   8  -1   12.25    5.85
   3  -8   1    4.56    5.78
   3   8   1   -0.32    4.77
   3   8   2 1617.19   69.45
   3  -8   2 1580.56   63.73
  -3   8  -2 1685.46   63.36
   3   8   2 1704.25   72.70
   3   8   3   10.22    8.72
   3  -8   3   28.76    9.53
  -3   8  -4 1853.71   57.60
   3  -8   4 1762.54   71.64
   3   8   4 1752.50   82.47
   3   8   5   -2.14    9.00
   3  -8   5    5.45    6.71
   3  -8   6  542.55   39.08
   3   8   6  664.96   52.36
   3   8   7   -1.50    9.36
   3  -8   7   -3.41    7.63
   3   8   8  167.85   29.56
   3  -8   8  128.01   20.10
   3  -8   9  -10.03    8.90
   3  -8  10   20.90   11.14
   3  -9 -14  257.44   43.91
   3  -9 -13    3.92   11.32
   3  -9 -12   -0.97   12.41
  -3  -9  12   21.39    5.40
   3  -9 -11   89.99   24.99
  -3  -9  11   92.38    9.03
  -3  -9  11   79.62    9.25
  -3  -9  10   17.61    4.07
  -3  -9  10   13.86    2.95
   3  -9  -9  106.74   23.63
   3  -9  -8  616.25   52.64
   3  -9  -7   76.95   18.82
  -3   9   7   76.95   15.39
   3  -9  -6 1249.34   70.44
  -3   9   6 1036.43   58.63
  -3   9   5   -1.64    6.10
   3  -9  -5    6.41    8.15
   3  -9  -4 2922.57  118.50
   3   9  -4 2981.12   69.91
  -3   9   3   14.44    7.08
   3   9  -3    6.86    3.83
   3   9  -3    8.29    2.93
   3  -9  -3   11.13    7.24
  -3   9   2 4452.48  127.72
   3   9  -2 4142.67  116.47
   3   9  -2 4245.82  121.21
   3  -9  -1    9.35    6.36
   3   9  -1   11.43    3.94
   3   9  -1   12.26    6.42
  -3   9   1   18.50    6.28
   3  -9   0  895.91   45.63
   3   9   0  920.43   47.15
  -3   9   0  906.06   43.15
   3   9   1   13.80    7.48
  -3   9  -1   24.38    7.10
   3  -9   1   23.59    7.54
   3   9   1   18.46    6.62
   3   9   2  254.45   25.12
  -3   9  -2  286.42   23.27
   3   9   2  238.70   26.05
   3  -9   2  273.35   23.98
   3  -9   3  192.03   20.04
   3   9   3  215.07   25.54
  -3   9  -3  221.85   20.75
   3   9   4   31.67   12.58
   3  -9   4   19.81    7.03
  -3   9  -4   28.85    5.49
   3  -9   5   69.83   13.68
   3   9   5   54.03   15.83
   3  -9   6   54.07   12.85
   3   9   6   80.67   21.45
   3  -9   7   40.96   12.15
   3   9   7   34.46   15.10
   3   9   8  286.27   38.78
   3  -9   8  188.23   25.30
   3  -9   9   10.80    8.37
   3 -10 -14  252.68   44.21
   3 -10 -13   -5.22   17.56
   3 -10 -12  451.99   54.05
   3 -10 -11   12.31   15.73
  -3 -10  11   18.49    3.61
   3 -10 -10  642.86   59.72
   3 -10  -9   15.09   13.26
   3 -10  -8 1751.34   93.72
   3 -10  -7  138.15   24.18
   3 -10  -6  328.62   35.85
  -3  10   6  286.57   29.35
  -3  10   5    3.19    6.61
   3 -10  -5   17.79   11.15
  -3  10   4   33.05   10.66
   3  10  -4   28.81    2.89
   3 -10  -4   24.31   10.65
   3  10  -3  189.01   16.03
   3 -10  -3  144.75   22.14
  -3  10   2  342.41   26.85
   3  10  -2  349.80   24.40
   3 -10  -2  321.32   30.43
   3  10  -2  372.38   26.06
   3  10  -1  181.55   19.23
  -3  10   1  191.81   19.13
   3  10  -1  192.34   19.15
   3 -10  -1  184.81   21.90
   3  10   0  793.30   43.79
  -3  10   0  896.00   43.19
   3 -10   0  806.78   45.37
   3  10   0  867.21   46.28
   3  10   1  184.67   21.63
   3  10   1  207.93   21.72
  -3  10  -1  192.29   18.63
   3 -10   1  191.54   20.59
   3  10   2 1496.52   71.34
  -3  10  -2 1574.90   62.38
   3 -10   2 1517.27   63.83
   3 -10   3   29.82    8.93
   3  10   3   49.38   14.84
   3  10   4 1284.63   72.06
   3 -10   4 1159.76   57.06
  -3  10  -4 1310.49   42.62
   3  10   5   21.58   12.36
   3 -10   5   15.46    7.84
   3 -10   6  280.18   27.37
   3  10   6  358.04   40.64
   3 -10   7    3.04    5.73
   3  10   7   -0.80   10.37
   3 -10   8   93.69   17.39
   3 -10   9   12.23    7.85
   3 -11 -13   59.58   21.51
   3 -11 -12   73.90   23.37
   3 -11 -11   37.37   15.46
   3 -11 -10   24.99   13.08
   3 -11  -9  129.01   25.58
   3 -11  -8  754.59   59.63
   3 -11  -7   -6.07    9.26
   3 -11  -6 1543.16   82.31
  -3  11   5  129.40   20.16
   3 -11  -5   93.95   19.32
   3 -11  -4 2049.33   93.01
   3  11  -4 1970.37   47.48
   3  11  -4 1839.96   48.80
  -3  11   4 2001.14   82.86
  -3  11   3   61.58   12.25
   3  11  -3   51.67    9.28
   3 -11  -3   46.41   13.57
  -3  11   2 2166.19   79.21
   3  11  -2 2059.45   73.71
   3 -11  -2 1868.67   84.59
   3  11  -2 1914.73   72.04
  -3  11   1  152.24   17.20
   3  11  -1  147.18   17.73
   3 -11  -1  128.72   19.07
   3  11   0  673.89   41.25
   3 -11   0  559.16   39.37
   3  11   0  635.48   40.67
   3  11   1   45.29   12.37
   3 -11   1   44.65   10.96
  -3  11  -1   39.12    8.85
   3  11   1   39.98   11.03
   3  11   2  259.03   28.74
  -3  11  -2  248.37   21.75
   3 -11   2  223.14   22.79
   3  11   3  131.57   21.63
   3 -11   3  131.43   17.85
   3 -11   4   -1.24    6.27
   3  11   4   11.37   11.66
   3 -11   5   31.97   10.40
   3  11   5   19.29   11.44
   3  11   6  113.13   25.11
   3 -11   6  113.07   17.03
   3 -11   7   78.65   16.62
   3  11   7  108.69   25.52
   3 -11   8  177.01   23.67
   3 -12 -13  -14.55   11.44
   3 -12 -12  525.66   59.91
   3 -12 -11   -8.69   17.11
   3 -12 -10  598.41   59.09
   3 -12  -9   -7.97   13.61
   3 -12  -8  502.47   48.47
   3 -12  -7  149.00   25.78
   3 -12  -6  323.71   36.18
   3 -12  -5  175.80   26.62
  -3  12   4    1.69    4.88
   3  12  -4    2.11    1.45
   3  12  -4    5.78    1.56
   3 -12  -4    3.52    8.92
   3  12  -3  157.29   15.25
   3 -12  -3  175.52   25.63
  -3  12   3  148.68   19.18
  -3  12   2   56.45   11.74
   3  12  -2   59.20   10.69
   3  12  -2   85.61   13.72
   3 -12  -2   70.28   15.47
  -3  12   1    9.28    5.78
   3  12  -1   17.39    7.10
   3 -12  -1    9.73    7.86
   3  12   0 1441.86   65.99
   3  12   0 1400.35   65.92
  -3  12   0 1417.88   59.29
   3 -12   0 1316.50   65.87
   3  12   1  246.00   26.39
   3  12   1  207.73   24.40
  -3  12  -1  237.47   21.75
   3 -12   1  245.66   25.27
   3  12   2 1195.53   65.76
   3 -12   2 1266.81   60.88
   3  12   3   17.84   10.00
   3 -12   3    6.90    5.88
   3  12   4  727.66   54.95
   3 -12   4  591.57   39.81
   3  12   5    4.73    9.64
   3 -12   5   22.22    9.55
   3  12   6  345.67   41.64
   3 -12   6  329.07   29.75
   3 -12   7    0.99    5.65
   3 -13 -12   12.47   16.89
   3 -13 -11   32.58   14.81
   3 -13 -10   28.27   14.93
   3 -13  -9   30.01   14.34
   3 -13  -8  306.82   38.39
   3 -13  -7   49.05   16.03
   3 -13  -6 1829.78   92.47
   3 -13  -5   45.75   15.23
   3 -13  -4 1585.19   81.92
   3  13  -4 1503.27   38.48
   3  13  -3    6.31    4.61
   3 -13  -3   13.88   10.26
  -3  13   2  766.57   44.45
   3  13  -2  780.11   44.06
   3 -13  -2  712.53   52.36
   3  13  -2  778.29   42.71
  -3  13   1   92.83   14.44
   3 -13  -1   77.96   15.30
   3  13  -1   84.37   14.78
   3  13   0  940.11   54.86
  -3  13   0 1081.84   50.64
   3 -13   0  934.12   55.65
   3  13   0 1033.33   55.54
   3  13   1  190.17   24.82
   3 -13   1  210.44   24.01
   3 -13   2   88.37   15.84
   3  13   2   94.69   18.79
   3  13   3   69.61   17.36
   3 -13   3   61.60   13.35
   3  13   4   -0.73    8.15
   3 -13   4    1.42    5.81
   3 -13   5   61.77   13.11
   3  13   5   53.58   18.70
   3 -13   6  162.80   21.38
   3  13   6  163.07   30.19
   3 -14 -12  297.67   45.55
   3 -14 -11  -14.56   15.39
   3 -14 -10  561.65   57.16
   3 -14  -9   22.66   11.92
   3 -14  -8  218.93   32.85
   3 -14  -7   40.55   16.01
   3 -14  -6  393.64   41.19
   3 -14  -5  314.43   35.66
   3  14  -4    4.21    1.45
   3 -14  -4   32.73   13.62
   3 -14  -3  182.01   26.48
   3  14  -3  176.00   14.08
   3 -14  -2  110.29   21.83
   3  14  -2  130.17   17.32
   3  14  -2  123.78   16.55
   3  14  -1  121.64   18.71
   3 -14  -1  115.66   20.50
   3  14  -1  152.08   20.02
   3  14   0  695.68   47.63
   3 -14   0  736.68   49.16
   3  14   0  711.88   46.87
   3  14   1   59.61   14.78
   3 -14   1   44.06   13.13
   3  14   2  536.41   44.42
   3 -14   2  509.84   39.00
   3  14   3    7.98    8.79
   3 -14   3   -5.27    7.92
   3  14   4  374.29   41.79
   3 -14   4  335.44   30.47
   3 -14   5   25.52    9.35
   3  14   5    1.73    8.02
   3 -15 -11   68.72   21.32
   3 -15 -10    4.51   12.74
   3 -15  -9   28.76   16.63
   3 -15  -8  145.88   27.44
   3 -15  -7  143.38   26.80
   3 -15  -6  684.23   55.30
   3 -15  -5   -7.40    8.35
   3 -15  -4 1131.51   69.91
   3 -15  -3   11.07    8.31
   3 -15  -2  906.02   59.83
   3  15  -2  803.43   46.23
   3 -15  -1   -6.14    7.13
   3  15  -1   22.57    8.84
   3 -15   0  487.18   40.69
   3  15   0  485.20   38.77
   3 -15   1  112.21   18.98
   3  15   1  101.01   19.77
   3  15   2   81.58   18.22
   3 -15   2   73.19   14.87
   3  15   3   76.48   19.28
   3 -15   3   78.99   15.24
   3 -15   4   16.05    8.06
   3  15   4    4.72    9.96
   3 -16 -11   -7.16   12.79
   3 -16 -10  277.06   40.43
   3 -16  -9   82.56   22.62
   3 -16  -8  347.13   42.13
   3 -16  -7    3.24   10.18
   3 -16  -6  152.50   26.28
   3 -16  -5  172.89   27.03
   3 -16  -4   49.99   15.89
   3 -16  -3  215.47   29.50
   3 -16  -2  139.55   23.59
   3  16  -2  115.22   17.97
   3 -16  -1  224.64   29.21
   3  16  -1  196.23   23.65
   3 -16   0  284.17   32.14
   3  16   0  296.27   30.69
   3 -16   1   27.44   10.56
   3  16   1   49.07   14.13
   3 -16   2  271.11   29.78
   3  16   2  382.95   39.21
   3  16   3   31.12   12.99
   3  16   4  350.38   41.82
   3 -17 -10    4.99   11.90
   3 -17  -9   70.50   21.39
   3 -17  -8  111.03   24.77
   3 -17  -7  135.48   25.72
   3 -17  -6  300.02   37.01
   3 -17  -5    0.80    8.35
   3 -17  -4  612.13   50.16
   3 -17  -3    4.08    7.14
   3 -17  -2  762.24   55.69
   3 -17  -1    2.67    7.07
   3  17  -1    9.92    9.08
   3 -17   0  189.11   25.79
   3  17   0  190.95   25.26
   3 -17   1   84.34   17.74
   3  17   1   78.22   17.43
   3  17   2   84.38   19.67
   3  17   3   92.50   20.83
   3 -18  -9   22.64   14.92
   3 -18  -8  256.39   37.80
   3 -18  -7   53.96   18.36
   3 -18  -6   76.04   19.33
   3 -18  -5  111.67   22.76
   3 -18  -4   -0.77    8.06
   3 -18  -3  203.90   28.87
   3 -18  -2  148.65   23.86
   3 -18  -1   94.75   19.65
   3  18  -1   83.29   16.80
   3  18   0   62.37   15.26
   3  18   1   45.30   14.54
   3  18   2  307.24   36.69
   3 -19  -8   56.33   18.41
   3 -19  -7   39.42   16.21
   3 -19  -6  173.24   28.23
   3 -19  -5    2.02    9.28
   3 -19  -4  415.72   41.98
   3 -19  -3   -4.73    9.47
   3  19   0   88.46   18.47
   3  19   1   26.06   11.68
   3 -20  -7   71.41   18.92
   3 -20  -6   71.74   18.01
   4   0 -18   82.87   23.15
   4   0 -17    3.65    9.36
   4   0 -16  288.08   36.71
   4   0 -15   -4.23    8.66
   4   0 -14  289.62   33.89
   4   0 -13   -5.01    7.86
   4   0 -12   14.27    9.73
  -4   0  12    5.47    4.23
   4   0 -11  -13.97    9.82
  -4   0  11    2.04    4.04
   4   0 -10  951.44   52.48
  -4   0  10  899.20   49.27
   4   0  -9   -0.65    6.83
  -4   0   9   -2.71    4.37
   4   0  -8 5278.40  158.06
  -4   0   8 5238.74  151.32
  -4   0   7    7.57    5.76
   4   0  -7    3.47    6.63
   4   0  -6 1779.65   65.28
  -4   0   6 1574.89   60.03
   4   0  -5   -2.72    4.01
  -4   0   5   -5.51    5.20
  -4   0   4 9999.00  241.24
   4   0  -4 9906.08  236.34
  -4   0   3   -4.96    4.41
   4   0  -3   -0.76    3.51
   4   0  -2 4185.44  113.41
   4   0  -1   -1.06    4.46
   4   0   0 1230.59   50.33
  -4   0  -1    3.09    4.11
   4   0   1    2.76    5.33
  -4   0  -2  568.87   34.30
   4   0   2  567.09   36.20
   4   0   2  574.81   38.29
  -4   0  -3    8.86    5.74
   4   0   3   -5.88    8.07
   4   0   4  268.53   27.79
   4   0   5  -10.26    9.86
   4   0   6  221.90   28.42
   4   0   7   21.93   11.20
   4   0   8  478.70   46.52
   4  -1 -18   16.47   13.44
   4   1 -17   -0.22    8.43
   4  -1 -17   -3.54    8.64
   4   1 -16  186.09   28.47
   4  -1 -16  229.25   33.38
   4  -1 -15  -14.65   12.16
   4   1 -15   -4.11    7.45
   4  -1 -14  710.50   55.68
   4   1 -14  685.32   50.87
   4   1 -13   47.88   13.78
   4  -1 -13   63.97   16.37
   4   1 -12 1265.93   64.17
   4  -1 -12 1163.81   66.46
  -4  -1  12 1198.43   58.26
  -4   1  12 1148.53   60.14
   4   1 -11  135.48   18.51
   4  -1 -11  122.38   20.04
  -4  -1  11  124.31   17.04
  -4   1  11  110.26   17.57
   4   1 -10 3001.85  103.22
   4  -1 -10 2982.27  110.89
  -4   1  10 2830.74  103.65
  -4  -1  10 2851.96   99.41
   4   1  -9  162.53   19.10
   4  -1  -9  137.29   20.68
  -4   1   9  163.94   19.54
  -4  -1   9  184.87   19.09
   4   1  -8 3299.33  110.96
   4  -1  -8 3484.60  119.27
  -4   1   8 3456.79  111.52
  -4  -1   8 3439.47  107.85
  -4   1   7    3.34    5.46
  -4  -1   7   -1.91    4.35
   4   1  -7    1.17    5.36
   4  -1  -7   -2.04    7.62
   4  -1  -6  229.61   21.94
   4   1  -6  224.15   19.41
  -4   1   6  186.98   18.99
  -4  -1   6  189.07   16.08
   4  -1  -5   36.76    7.81
   4   1  -5   41.04    6.98
  -4   1   5   47.98    9.15
  -4  -1   5   48.50    7.91
   4   1  -4  119.20   10.73
  -4   1   4  115.85   12.89
  -4  -1   4  105.85   11.30
   4  -1  -4   99.38   11.31
  -4  -1   3    7.81    3.70
   4  -1  -3    8.85    4.24
   4   1  -3   10.93    4.81
   4  -1  -2 2105.72   68.08
   4   1  -2 2144.64   66.53
  -4  -1   2 2162.64   68.93
   4   1  -1   28.88    8.09
   4  -1  -1   27.84    7.38
   4   1   0 1422.80   53.88
   4  -1   0 1438.62   54.61
   4  -1   1   17.28    7.55
  -4  -1  -1    8.77    5.14
  -4   1  -1   15.97    6.03
   4   1   1   10.00    6.46
  -4   1  -2 4288.52  125.17
  -4  -1  -2 4347.42  128.43
   4  -1   2 4095.48  127.94
   4   1   2 4243.57  133.55
   4   1   2 4199.71  129.42
  -4  -1  -3   11.03    5.42
   4  -1   3    6.72    6.22
   4   1   3    5.66    8.64
  -4   1  -3   10.51    6.27
  -4   1  -4 1017.75   49.97
   4  -1   4 1022.07   55.45
   4   1   4 1035.02   56.55
   4  -1   5   -7.21    8.28
   4   1   5   -2.90    8.10
   4  -1   6  410.48   38.12
   4   1   6  402.04   38.56
   4  -1   7    0.30    8.45
   4   1   7    5.45   10.29
   4  -1   8   86.22   20.17
   4   1   8   52.29   15.65
   4  -2 -17   15.03   11.87
   4   2 -16  235.19   30.88
   4  -2 -16  278.73   38.23
   4  -2 -15    9.83    8.39
   4   2 -15    1.30    9.43
   4   2 -14  130.71   21.39
   4  -2 -14  134.47   25.26
   4   2 -13   19.88    8.86
   4  -2 -13   19.32   11.84
  -4  -2  13   10.31    6.00
   4  -2 -12    5.21    9.70
   4   2 -12    9.39    7.44
  -4  -2  12    0.92    4.25
   4   2 -11    8.61    5.93
   4  -2 -11   11.59    9.05
  -4  -2  11    7.22    5.48
  -4   2  11   -4.70    5.26
   4   2 -10  589.60   36.56
   4  -2 -10  664.70   47.95
  -4   2  10  633.86   41.95
  -4  -2  10  599.71   36.54
   4   2  -9    5.96    6.08
   4  -2  -9   -3.50    6.60
  -4   2   9    5.12    6.19
  -4  -2   9   -3.00    4.18
   4  -2  -8 3035.29  112.33
  -4   2   8 2743.63  101.49
   4   2  -8 3019.30   99.84
  -4   2   7   36.53    9.91
  -4  -2   7   36.52    7.66
   4   2  -7   50.79    9.91
   4  -2  -7   32.13   10.82
  -4  -2   6 5030.22  132.79
   4  -2  -6 5415.95  154.74
   4   2  -6 5401.56  139.28
  -4   2   6 4911.85  148.97
  -4  -2   5 1226.54   43.20
   4  -2  -5 1225.67   51.40
   4   2  -5 1234.14   42.31
   4   2  -4 7679.63  185.16
  -4  -2   4 7904.79  188.58
   4  -2  -4 7778.11  195.27
   4  -2  -3  109.27   12.46
   4   2  -3   96.20    9.97
  -4  -2   3  119.68   11.76
  -4  -2   2 4344.48  118.79
   4  -2  -2 4398.80  119.44
   4   2  -2 4360.14  116.25
   4  -2  -1  147.90   14.85
   4   2  -1  135.88   13.63
   4  -2   0 1440.22   56.58
   4   2   0 1456.52   56.18
   4   2   1   33.70    8.09
   4  -2   1   32.57    8.95
   4   2   1   42.76   10.02
  -4  -2  -1   47.88    9.88
   4  -2   2   55.52   12.12
  -4   2  -2   84.57   12.21
   4   2   2   81.98   14.09
  -4  -2  -2   77.18   12.95
   4  -2   3   75.12   14.32
  -4   2  -3   69.24   11.71
   4   2   3   67.99   13.71
   4  -2   4  112.35   18.62
   4   2   4  107.69   17.94
  -4   2  -4  115.28   15.49
   4  -2   5   -0.51    7.52
   4   2   5   -2.43    7.15
   4  -2   6  230.20   28.10
   4   2   6  224.75   29.32
   4  -2   7   29.07   12.61
   4   2   7    5.55    8.30
   4  -2   8  309.59   36.55
   4   2   8  326.36   39.69
   4  -3 -17  -14.58   11.79
   4  -3 -16  187.08   32.32
   4   3 -15   33.86   12.39
   4  -3 -15   23.28   13.09
   4   3 -14  676.48   46.18
   4  -3 -14  634.36   56.01
   4   3 -13   40.16   11.30
  -4  -3  13   37.48   10.00
   4  -3 -12 1883.17   94.43
  -4  -3  12 1783.44   72.25
   4   3 -12 1886.06   76.11
   4   3 -11   41.90   10.07
   4  -3 -11   30.13   13.52
  -4  -3  11   31.48    8.70
  -4   3  11   37.99   11.88
   4   3 -10 2095.68   73.98
   4  -3 -10 1909.37   92.94
  -4   3  10 2082.71   86.61
  -4  -3  10 2089.90   74.67
   4   3  -9  101.50   13.16
   4  -3  -9   98.30   18.77
  -4  -3   9  109.40   13.11
  -4   3   9  114.62   17.18
   4   3  -8 1103.12   46.89
   4  -3  -8 1157.99   62.60
  -4   3   8 1065.22   55.17
  -4  -3   8 1162.49   46.96
   4   3  -7   89.69   12.10
   4  -3  -7  105.32   18.01
  -4  -3   7  108.12   10.92
  -4  -3   6  807.87   31.40
   4  -3  -6  840.07   48.42
   4   3  -6  815.86   34.94
  -4  -3   5  458.02   21.59
   4  -3  -5  490.63   31.90
   4   3  -5  466.67   21.38
   4   3  -4  365.83   18.46
  -4  -3   4  359.01   19.42
   4  -3  -4  379.12   25.60
   4   3  -3   26.54    5.55
   4  -3  -3   27.50    6.99
  -4  -3   3   22.82    5.49
   4  -3  -2  977.08   41.66
   4   3  -2  936.28   37.57
   4   3  -1   29.66    7.11
   4  -3  -1   40.82    8.33
   4  -3   0 3959.28  117.08
   4   3   0 4015.02  115.99
   4   3   0 4067.59  121.03
  -4   3  -1  276.44   23.21
  -4  -3  -1  294.02   24.56
   4  -3   1  266.70   22.78
   4   3   1  247.43   22.16
   4   3   1  272.26   24.47
  -4   3  -2 1594.47   61.36
   4  -3   2 1561.62   65.50
  -4  -3  -2 1740.94   69.20
   4   3   2 1549.86   65.40
   4  -3   3   -0.79    6.06
   4   3   3   -1.44    5.82
  -4   3  -3   -3.03    3.34
  -4   3  -4 1497.97   60.84
   4  -3   4 1483.57   67.90
   4   3   4 1372.65   68.64
   4  -3   5    8.82    8.26
   4   3   5    4.43    7.40
   4  -3   6  450.34   39.45
   4   3   6  433.06   40.37
   4  -3   7    2.98    8.45
   4   3   7  -14.68   11.91
   4  -3   8   76.35   18.55
   4   3   8   74.84   20.10
   4  -4 -17   -3.13   13.25
   4  -4 -16  170.79   31.73
   4  -4 -15   10.44   11.85
   4  -4 -14   73.26   20.88
   4   4 -14   53.11   12.79
   4  -4 -13   79.32   19.81
  -4  -4  13   85.44   13.95
   4   4 -13  109.57   16.22
   4   4 -12   16.99    8.28
   4  -4 -12   13.22   11.61
  -4  -4  12   12.33    6.66
   4   4 -11   33.70    8.91
  -4  -4  11   56.70   10.13
   4  -4 -11   31.23   11.66
   4  -4 -10  356.80   37.27
  -4  -4  10  346.44   24.56
  -4   4  10  351.57   32.33
   4   4 -10  335.37   23.24
   4   4  -9   74.17   10.06
   4  -4  -9   71.49   17.22
  -4   4   9   83.85   14.64
  -4  -4   9   85.76   11.22
   4   4  -8 1476.83   51.85
   4  -4  -8 1573.92   77.13
  -4  -4   8 1474.34   50.32
  -4  -4   7   19.79    3.92
   4   4  -7   14.61    5.49
   4  -4  -7   19.40    9.94
  -4  -4   6 6462.85  155.33
   4  -4  -6 6757.91  194.64
   4   4  -6 6600.05  161.26
  -4  -4   5  129.47    9.91
   4   4  -5  125.43    9.74
   4  -4  -5  124.42   17.10
   4   4  -4 4315.66  109.57
   4  -4  -4 4577.99  129.95
  -4  -4   4 4431.74  112.10
   4   4  -3    1.29    2.96
   4  -4  -3    6.39    5.38
   4  -4  -2 3114.72   93.99
   4   4  -2 3037.89   87.02
   4   4  -1   31.76    7.35
   4  -4  -1   27.82    7.65
   4  -4   0  900.00   43.32
  -4   4   0  960.74   45.15
   4   4   0  936.66   42.30
   4   4   0  938.07   45.33
   4   4   1   27.09    8.18
   4   4   1   16.53    7.33
  -4   4  -1   21.06    7.33
   4  -4   1   11.07    7.22
  -4  -4  -1   17.57    7.50
   4  -4   2   49.83   11.15
   4   4   2   56.49   12.49
  -4   4  -2   46.26    9.06
   4  -4   3    7.91    6.83
  -4   4  -3   10.74    5.33
   4   4   3    2.36    5.45
   4  -4   4   64.24   14.29
   4   4   4   60.12   14.44
  -4   4  -4   64.90   11.53
   4   4   5   52.34   14.81
   4  -4   5   73.64   16.01
   4   4   6  410.70   40.25
   4  -4   6  387.73   36.50
   4  -4   7    9.64    9.90
   4   4   7   10.38    8.90
   4  -4   8  123.19   22.47
   4   4   8  107.79   23.44
   4  -5 -17   15.85   12.33
   4  -5 -16  100.38   27.10
   4  -5 -15    7.41   12.25
   4  -5 -14  494.05   53.21
   4   5 -13    4.37    6.72
   4  -5 -13  -11.00   13.63
  -4  -5  13   -9.11    5.39
   4  -5 -12 1991.40  105.66
  -4  -5  12 2063.31   75.45
   4   5 -12 2137.67   75.23
   4   5 -11   46.60    8.89
   4  -5 -11   23.83   13.75
  -4  -5  11   52.03    9.29
   4  -5 -10 1092.51   69.50
  -4   5  10 1194.19   63.70
  -4  -5  10 1178.21   46.99
   4   5 -10 1142.63   44.42
  -4  -5   9   45.19    7.54
   4  -5  -9   55.01   14.95
  -4   5   9   47.62   12.18
   4   5  -9   47.43    7.04
   4   5  -8  907.42   33.11
  -4  -5   8  892.94   31.97
  -4  -5   7  210.86   11.68
   4   5  -7  213.19   14.35
   4  -5  -7  215.60   26.81
   4  -5  -6  734.26   48.78
   4   5  -6  665.34   27.38
  -4  -5   6  717.46   24.23
   4   5  -5   40.53    5.25
  -4  -5   5   38.61    5.24
   4  -5  -5   33.41    9.66
   4  -5  -4   55.43   11.56
   4   5  -4   70.30    7.35
  -4  -5   4   61.28    9.93
   4   5  -3  435.70   21.35
  -4  -5   3  428.50   27.32
   4  -5  -3  435.02   28.80
   4   5  -2  904.11   37.18
   4  -5  -2  972.79   43.96
   4   5  -2  942.81   40.25
   4  -5  -1  211.48   19.14
  -4   5   1  229.51   20.06
   4   5  -1  202.69   17.18
   4   5   0 3218.79   99.40
   4  -5   0 3310.55  102.12
  -4   5   0 3310.85  103.83
   4   5   0 3249.39  104.31
   4   5   1    3.02    4.56
  -4  -5  -1   -0.72    5.03
  -4   5  -1    1.27    4.31
   4   5   1    7.15    6.32
   4  -5   1   -2.82    5.61
   4   5   2 1180.10   55.68
   4  -5   2 1183.08   54.48
   4  -5   3   22.18    8.57
  -4   5  -3   30.93    7.59
   4   5   3    7.07    6.38
   4   5   4 1211.45   64.31
  -4   5  -4 1295.09   53.69
   4  -5   4 1287.86   62.94
   4  -5   5   -8.96    7.98
   4   5   5    0.37    8.28
   4   5   6  363.85   38.21
   4  -5   6  376.96   35.62
   4  -5   7   -7.55   10.32
   4   5   7    0.07    9.29
   4  -5   8   45.77   14.74
   4  -6 -16  192.27   35.93
   4  -6 -15   11.37   15.06
   4  -6 -14   93.96   22.12
   4  -6 -13   -8.06   14.94
  -4  -6  13   24.56    7.76
   4  -6 -12  -22.75   16.39
  -4  -6  12   -1.15    3.88
   4   6 -11   31.53    7.08
  -4  -6  11   32.81    7.28
   4  -6 -10  253.44   32.54
  -4  -6  10  240.16   17.11
   4   6 -10  207.69   14.61
   4  -6  -9   85.42   18.98
  -4  -6   9   96.06    8.73
  -4   6   9   86.04   16.42
   4   6  -9   95.01    8.30
  -4  -6   8 1377.90   38.44
   4   6  -8 1390.39   39.02
   4   6  -7  467.36   17.37
  -4  -6   7  503.35   16.10
   4  -6  -6 3933.63  138.62
   4   6  -6 3756.05   94.82
   4  -6  -5  250.27   26.63
  -4  -6   5  304.99   21.01
   4   6  -5  301.93   13.67
  -4  -6   4 2692.64   85.85
   4   6  -4 2732.08   72.41
   4  -6  -4 2759.69   97.11
   4   6  -4 2788.38   76.27
  -4  -6   3  178.48   17.59
  -4   6   3  168.92   18.41
   4   6  -3  180.75   13.13
   4  -6  -3  174.22   19.23
   4   6  -3  155.26   13.62
  -4  -6   2 2317.64   79.26
  -4   6   2 2290.54   79.74
   4   6  -2 2216.96   68.83
   4  -6  -2 2231.88   78.47
   4   6  -2 2225.28   72.79
  -4   6   1   -2.54    5.41
   4  -6  -1    8.64    6.06
   4   6  -1    0.21    4.21
  -4  -6   1    5.35    5.41
   4   6   0  881.43   41.87
   4  -6   0  892.47   44.37
  -4  -6   0  933.96   48.25
  -4   6   0  995.46   46.97
   4   6   0  938.90   46.82
   4   6   1   61.62   12.54
  -4   6  -1   74.23   12.31
   4  -6   1   76.78   13.16
   4   6   1   58.41   11.09
   4   6   2   12.00    7.52
   4  -6   2   18.08    8.16
  -4   6  -3   26.42    7.00
   4   6   3   27.89    9.96
   4  -6   3   12.57    8.06
   4   6   4   44.00   12.75
  -4   6  -4   63.39   10.28
   4  -6   4   57.86   13.67
   4   6   5   51.16   14.61
   4  -6   5   48.04   12.38
   4  -6   6  285.64   30.63
   4   6   6  216.68   29.90
   4  -6   7   -0.93    8.20
   4   6   7  -24.11   14.07
   4  -6   8  194.44   27.69
   4  -7 -16  107.28   29.31
   4  -7 -15   20.55   12.54
   4  -7 -14  516.22   56.64
   4  -7 -13   27.15   10.45
   4  -7 -12  821.09   67.65
  -4  -7  12  987.80   42.45
   4  -7 -11  123.44   25.74
  -4  -7  11  138.56   12.84
   4  -7 -10 2107.00  104.75
  -4  -7  10 2185.31   62.60
  -4  -7   9    3.19    1.32
   4  -7  -9    2.21   10.75
   4  -7  -8  982.23   62.55
  -4   7   8  856.16   52.29
   4  -7  -7   20.02   10.84
  -4  -7   7   17.73    4.91
   4  -7  -6  207.29   27.75
  -4  -7   6  213.46   16.83
   4   7  -5   88.39    6.51
  -4  -7   5   89.23   11.48
  -4   7   5   85.82   15.09
   4  -7  -5   86.13   16.03
   4   7  -5   85.41    7.35
   4  -7  -4   55.43   12.75
   4   7  -4   51.10    6.15
   4   7  -4   54.97    7.49
  -4   7   4   66.88   12.84
  -4  -7   4   72.14   10.84
  -4   7   3  256.97   23.29
  -4  -7   3  252.20   21.12
   4  -7  -3  219.68   22.57
   4   7  -3  229.22   15.22
   4   7  -3  229.74   16.90
  -4  -7   2 1211.53   52.85
  -4   7   2 1113.16   51.60
   4  -7  -2 1080.70   51.15
   4   7  -2 1095.15   41.97
   4   7  -2 1127.43   46.47
   4   7  -1  184.82   16.45
  -4   7   1  193.20   19.41
  -4  -7   1  208.36   20.90
   4  -7  -1  204.92   20.46
   4   7   0 1640.02   63.34
   4  -7   0 1698.83   67.13
  -4   7   0 1852.34   69.85
   4   7   0 1755.97   69.58
   4   7   1   13.49    7.03
  -4   7  -1   21.74    7.51
   4  -7   1   24.74    9.01
   4   7   1   12.43    6.15
   4  -7   2 1432.45   62.61
   4   7   2 1411.06   63.95
   4  -7   3   49.80   11.97
   4   7   3   60.02   14.06
   4  -7   4  873.53   51.09
  -4   7  -4  948.77   42.63
   4   7   5   -4.72   11.75
   4  -7   5   -1.96    6.78
   4   7   6  290.23   34.73
   4  -7   6  280.31   29.76
   4   7   7  -16.29   14.95
   4  -7   7   14.05    7.97
   4  -7   8   11.43    9.12
   4  -8 -15   11.97   15.72
   4  -8 -14  106.12   27.10
   4  -8 -13   41.73   14.51
  -4  -8  13   21.04    4.99
  -4  -8  12    5.63    3.34
  -4  -8  12    5.13    3.62
   4  -8 -11   44.01   16.44
  -4  -8  11   54.16    5.71
  -4  -8  11   70.94    7.92
  -4  -8  11   50.24    5.29
   4  -8 -10  307.67   38.03
  -4  -8  10  294.58   10.47
  -4  -8  10  324.33   16.23
   4  -8  -9  136.95   24.47
  -4  -8   9  137.95   11.23
  -4  -8   8 1339.24   46.16
   4  -8  -8 1367.27   76.38
  -4   8   7  164.28   22.39
  -4  -8   7  213.97   16.17
   4  -8  -7  181.57   26.28
  -4  -8   6 2206.47   71.49
   4  -8  -6 2220.61  100.20
  -4   8   6 2376.74   97.96
  -4  -8   5   20.62    5.94
  -4   8   5   20.53    9.06
   4   8  -5   17.54    3.53
   4   8  -5   18.23    2.82
   4  -8  -5   11.76    8.97
   4   8  -4 4771.63  122.09
  -4   8   4 5099.81  149.69
  -4  -8   4 5055.96  136.07
   4   8  -4 4771.95  117.01
   4  -8  -3   52.90   11.56
   4   8  -3   46.90    8.05
   4   8  -3   51.80    7.19
  -4   8   3   43.86   10.63
  -4  -8   3   57.87   10.75
   4   8  -2 2430.87   74.09
   4   8  -2 2378.59   79.55
  -4   8   2 2476.18   87.50
  -4  -8   2 2573.78   87.52
   4  -8  -2 2455.85   88.96
  -4   8   1   12.52    6.89
   4  -8  -1   14.81    6.72
   4   8  -1   -2.75    4.53
   4   8   0  431.60   31.68
   4   8   0  434.35   28.30
  -4   8   0  494.57   32.51
   4  -8   0  454.97   31.71
   4   8   1   36.67   10.26
   4  -8   1   37.86   10.09
   4  -8   2    6.18    6.79
   4  -8   3  123.62   17.91
   4  -8   4   49.57   12.09
   4  -8   5   24.78    9.65
   4   8   5   31.77   11.78
   4   8   6  135.00   24.09
   4  -8   6  140.71   21.70
   4   8   7  -13.80   13.18
   4  -8   7    6.34    9.98
   4  -8   8  200.24   27.29
   4  -9 -15    3.80   10.07
   4  -9 -14  533.09   60.85
   4  -9 -13   13.55   14.51
   4  -9 -12  450.50   51.53
  -4  -9  12  490.86   19.67
   4  -9 -11    1.04   10.96
   4  -9 -10 1557.72   90.00
  -4  -9  10 1445.83   42.30
  -4  -9   9   31.43    5.29
   4  -9  -9   63.85   18.69
   4  -9  -8 1189.93   71.30
  -4  -9   8 1074.21   40.18
   4  -9  -7  303.60   34.39
  -4  -9   7  286.09   19.21
  -4   9   6   99.57   18.59
  -4  -9   6  100.50   11.91
   4  -9  -6  110.52   21.91
   4   9  -5  150.58    7.59
   4   9  -5  147.96    9.94
  -4   9   5  166.27   21.44
  -4  -9   5  156.09   15.78
   4  -9  -5  117.60   20.90
  -4   9   4  153.72   19.91
   4   9  -4  153.85   12.55
   4   9  -4  159.00   10.43
  -4  -9   4  166.83   17.02
   4  -9  -4  135.97   20.57
   4   9  -3  512.83   27.98
  -4   9   3  589.50   38.09
   4  -9  -3  474.62   36.92
   4   9  -3  518.83   24.35
   4   9  -2  978.77   44.84
   4   9  -2 1016.04   40.17
  -4   9   2 1045.58   51.03
   4  -9  -2  936.28   51.36
  -4   9   1   52.50   10.97
   4  -9  -1   38.18   10.26
   4   9  -1   42.91    9.41
   4   9  -1   47.29    9.53
   4   9   0  696.74   41.78
  -4   9   0  742.23   41.64
   4  -9   0  730.87   42.58
   4  -9   1  107.98   16.22
   4  -9   2 1851.75   76.18
   4   9   2 2018.55   87.54
   4  -9   3    1.27    5.75
   4   9   3    4.52    9.39
   4  -9   4  578.87   40.03
   4  -9   5   -0.05    5.93
   4  -9   6  216.97   26.34
   4   9   6  248.60   33.08
   4  -9   7   13.17    8.33
   4  -9   8   24.65   10.37
   4 -10 -15   -8.46   12.95
   4 -10 -14  120.71   28.54
   4 -10 -13   86.67   26.55
   4 -10 -12   28.36   14.87
   4 -10 -11  163.72   30.57
   4 -10 -10  269.21   36.11
   4 -10  -9  160.17   27.56
   4 -10  -8 1253.75   75.08
   4 -10  -7   13.46   11.97
   4 -10  -6 1491.15   79.74
   4  10  -5   55.31    4.01
  -4  10   5   69.08   14.52
   4 -10  -5   55.31   14.83
  -4  10   4 2770.81  100.00
   4  10  -4 2691.74   69.54
   4  10  -4 2613.34   77.45
   4  10  -3    0.32    3.56
   4  10  -3    2.05    2.75
  -4  10   3   -0.65    4.72
   4 -10  -3   -1.20    6.47
   4  10  -2 1669.86   56.56
  -4  10   2 1700.25   70.31
   4 -10  -2 1520.71   71.69
  -4  10   1    2.37    4.59
   4 -10  -1   12.96    7.91
   4  10  -1    2.13    4.81
   4  10   0  377.60   30.74
   4 -10   0  339.06   29.21
   4 -10   1   92.07   15.59
   4  10   1   90.91   17.18
   4 -10   2   11.29    7.29
   4  10   2   17.95   11.44
   4 -10   3  124.39   18.69
   4  10   3  143.11   23.49
   4 -10   4   48.44   12.74
   4  10   4   61.97   17.97
   4 -10   5    2.88    7.31
   4 -10   6  100.98   18.66
   4 -10   7   57.25   14.01
   4 -11 -14  198.30   37.26
   4 -11 -13   24.25   14.34
   4 -11 -12  465.04   52.76
   4 -11 -11   16.54   14.40
   4 -11 -10  722.48   60.38
   4 -11  -9  133.48   25.37
   4 -11  -8  942.38   64.61
   4 -11  -7  328.81   36.68
   4 -11  -6   17.15   10.96
   4 -11  -5  338.00   36.53
   4  11  -4    5.85    2.82
   4  11  -4    4.57    3.17
   4 -11  -4    2.70    6.92
   4  11  -3  185.61   17.50
   4 -11  -3  169.51   22.95
   4  11  -3  186.10   13.75
   4  11  -2  681.62   32.06
   4 -11  -2  637.65   44.57
   4 -11  -1   96.44   16.78
   4  11  -1  108.63   15.90
   4 -11   0  795.48   48.02
   4  11   0  821.20   50.07
   4  11   0  763.99   46.45
   4 -11   1  190.82   22.38
   4  11   1  239.17   27.68
   4  11   2 1057.00   63.43
   4 -11   2 1006.99   54.34
   4 -11   3    6.46    8.07
   4  11   3    7.18    9.94
   4  11   4  402.82   42.10
   4 -11   4  340.85   31.36
   4 -11   5   17.04    9.81
   4 -11   6  107.55   18.81
   4 -11   7    4.13    5.96
   4 -12 -14   82.56   24.61
   4 -12 -13   60.48   22.81
   4 -12 -12   10.63   10.29
   4 -12 -11   93.63   23.42
   4 -12 -10  139.60   26.86
   4 -12  -9   69.20   20.30
   4 -12  -8  636.55   52.97
   4 -12  -7    9.36   10.00
   4 -12  -6 1810.22   91.34
   4 -12  -5  265.80   32.88
   4  12  -4  585.11   30.58
   4 -12  -4  503.27   43.32
   4  12  -4  574.31   22.40
   4  12  -3   48.08    9.45
   4  12  -3   58.10    7.94
   4 -12  -3   60.32   14.70
   4  12  -2  769.38   34.54
   4 -12  -2  618.19   45.53
   4 -12  -1   65.55   15.32
   4  12  -1   63.01   12.95
   4  12   0  346.59   31.31
   4 -12   0  328.85   31.14
   4  12   0  389.96   34.02
   4 -12   1   27.49   10.86
   4  12   1   42.86   13.10
   4 -12   2   27.00    9.83
   4  12   2   33.14   14.19
   4 -12   3   23.59    9.41
   4  12   3   31.14   12.99
   4 -12   4   37.24   11.89
   4  12   4   52.70   17.25
   4 -12   5   38.10   12.60
   4  12   5   66.84   19.59
   4 -12   6  181.93   24.67
   4 -13 -13   13.78   15.48
   4 -13 -12  652.11   62.85
   4 -13 -11    8.00   12.75
   4 -13 -10  445.38   47.89
   4 -13  -9   59.88   18.84
   4 -13  -8  376.28   41.03
   4 -13  -7   94.43   21.70
   4 -13  -6  129.18   23.30
   4 -13  -5  279.95   34.34
   4  13  -4   55.91    5.98
   4 -13  -4   35.81   12.82
   4  13  -4   59.05    8.58
   4  13  -3   55.51    7.69
   4  13  -3   53.19   10.11
   4 -13  -3   26.14   11.31
   4  13  -2  262.22   19.00
   4 -13  -2  234.85   28.58
   4  13  -1  169.57   21.25
   4 -13  -1  209.87   25.73
   4 -13   0  981.17   57.84
   4  13   0 1022.46   58.89
   4 -13   1   54.08   13.14
   4  13   1   54.10   14.77
   4 -13   2  345.74   32.52
   4  13   2  386.30   38.70
   4 -13   3    6.15    6.08
   4  13   3    1.74    9.36
   4  13   4  415.62   44.68
   4 -13   4  369.04   33.80
   4 -13   5   -4.08    6.72
   4 -14 -12   -0.10    9.74
   4 -14 -11   22.73   15.31
   4 -14 -10   59.54   19.49
   4 -14  -9   41.22   15.24
   4 -14  -8  338.77   40.13
   4 -14  -7  111.69   23.74
   4 -14  -6 1533.86   84.50
   4 -14  -5    5.95    8.53
   4 -14  -4  677.40   53.05
   4  14  -4  782.73   26.72
   4  14  -3    6.86    3.23
   4 -14  -3    4.58    8.44
   4  14  -2  638.34   31.53
   4 -14  -2  548.43   45.22
   4 -14  -1   41.57   13.69
   4 -14   0  225.65   27.14
   4  14   0  235.31   28.24
   4 -14   1   46.91   12.48
   4  14   1   43.98   13.76
   4 -14   2   11.07    8.26
   4  14   2    2.52    7.97
   4 -14   3   47.46   12.99
   4  14   3   12.81    8.60
   4 -14   4   39.62   12.51
   4 -15 -12  372.78   48.14
   4 -15 -11   95.06   24.92
   4 -15 -10  541.64   53.93
   4 -15  -9   -1.00   10.05
   4 -15  -8  211.15   31.62
   4 -15  -7   52.21   15.85
   4 -15  -6   87.40   21.12
   4 -15  -5  142.88   24.65
   4 -15  -4   25.14   11.67
   4 -15  -3  185.91   27.20
   4  15  -3  209.58   14.73
   4  15  -2  301.31   21.01
   4 -15  -2  281.75   32.12
   4 -15  -1  179.02   24.83
   4 -15   0  604.88   46.34
   4  15   1   12.58   10.58
   4 -15   1    7.49    8.68
   4 -15   2  289.61   31.05
   4  15   2  302.84   36.50
   4 -15   3    1.54    6.85
   4  15   3   30.15   14.14
   4 -16 -11  140.17   30.50
   4 -16 -10   52.43   18.52
   4 -16  -9   76.29   19.33
   4 -16  -8  349.72   41.17
   4 -16  -7   68.05   19.22
   4 -16  -6  572.75   50.57
   4 -16  -5    4.08    9.33
   4 -16  -4  873.59   61.98
   4 -16  -3    6.76    7.23
   4 -16  -2  363.49   37.88
   4 -16  -1   35.47   11.93
   4 -16   0  113.22   20.89
   4 -16   1   54.37   14.09
   4 -16   2    7.51    7.32
   4  16   2   -2.85    7.97
   4 -17 -10  315.01   41.94
   4 -17  -9   61.73   18.68
   4 -17  -8  153.05   28.28
   4 -17  -7   63.57   18.48
   4 -17  -6   12.16    8.68
   4 -17  -5  199.55   30.31
   4 -17  -4   42.30   16.25
   4 -17  -3  170.99   26.57
   4 -17  -2  200.90   27.83
   4 -17  -1   90.12   18.48
   4 -17   0  148.62   23.45
   4 -18  -9  101.79   24.22
   4 -18  -8  159.03   28.64
   4 -18  -7   27.62   13.09
   4 -18  -6  128.58   24.99
   4 -18  -5    9.34   10.44
   4 -18  -4  681.54   55.20
   4 -18  -3   18.50   11.30
   4 -18  -2  240.37   31.82
   4 -18  -1   25.10   10.11
   4 -19  -8   96.13   22.84
   4 -19  -7   76.52   20.55
   4 -19  -6   -0.51    9.33
   4 -19  -5  105.14   21.59
   4 -19  -4    7.11    9.20
   4 -19  -3  153.26   25.34
   4 -20  -7    5.87   10.20
   4 -20  -6  182.32   29.39
   5   0 -19   -0.87    7.50
   5   0 -18   59.51   19.72
   5   0 -17    8.95   10.92
   5   0 -16  654.80   55.17
   5   0 -15   -3.49    6.88
   5   0 -14  748.68   54.27
   5   0 -13  -13.75   10.28
  -5   0  13   -4.91    4.87
   5   0 -12 1314.48   69.22
  -5   0  12 1403.48   63.66
   5   0 -11   -3.68    9.89
  -5   0  11    6.68    6.21
   5   0 -10 4934.40  151.27
  -5   0  10 4561.64  139.44
  -5   0   9   -2.55    5.65
   5   0  -9   -8.20    7.22
   5   0  -8  523.43   35.92
  -5   0   8  494.13   32.32
  -5   0   7   -1.71    3.26
   5   0  -7    1.15    4.58
   5   0  -6   14.57    6.50
  -5   0   6   16.22    6.46
   5   0  -5    1.97    4.49
  -5   0   5    7.62    4.84
   5   0  -4 2269.40   73.13
  -5   0   4 2404.55   78.93
  -5   0   3   -0.40    3.14
   5   0  -3   -2.70    5.31
   5   0  -2 1577.48   59.77
  -5   0   2 1673.96   64.03
   5   0  -1   -3.33    4.96
   5   0   0 2268.57   82.46
  -5   0   0 2364.21   85.52
   5   0   1   -7.25    6.07
  -5   0  -1    9.68    5.11
   5   0   2 1848.23   77.34
   5   0   3    0.27    7.77
   5   0   4  689.83   48.72
   5   0   5   -1.48   10.61
   5   0   6  164.97   27.33
   5   1 -19   10.99   13.03
   5   1 -18  176.74   29.95
   5  -1 -18  125.07   27.27
   5   1 -17    0.07    7.80
   5  -1 -17   -7.12   12.20
   5   1 -16  355.95   38.13
   5  -1 -16  323.46   39.51
   5   1 -15    9.37    9.14
   5  -1 -15    7.73    8.50
   5   1 -14   29.06   14.40
   5  -1 -14   33.75   13.88
   5   1 -13    2.80    6.62
   5  -1 -13   -6.21   10.77
  -5  -1  13    6.89    6.23
   5   1 -12   43.28   13.04
   5  -1 -12   13.30   10.29
  -5   1  12   43.95   10.03
  -5  -1  12   32.99    9.27
   5   1 -11    7.38    6.17
   5  -1 -11    7.48    8.89
  -5   1  11   -3.31    4.49
  -5  -1  11    3.99    4.23
   5   1 -10 2452.61   91.36
   5  -1 -10 2532.06   97.43
  -5   1  10 2205.32   84.61
  -5  -1  10 2245.39   82.08
  -5   1   9   14.94    6.47
  -5  -1   9   14.12    5.92
   5   1  -9    8.51    5.76
   5  -1  -9   10.16    6.46
   5  -1  -8 1885.14   77.45
   5   1  -8 1833.48   72.17
  -5   1   8 1787.75   72.46
  -5  -1   8 1742.53   66.01
  -5   1   7   15.53    6.68
  -5  -1   7   13.77    5.37
   5  -1  -7    6.89    7.59
   5   1  -7   12.11    5.94
  -5   1   6 4037.28  120.57
  -5  -1   6 3845.20  112.97
   5  -1  -6 3961.53  116.87
   5   1  -6 4023.45  111.49
  -5  -1   5   73.54   10.54
   5  -1  -5   77.13   11.24
   5   1  -5   70.01    9.87
  -5   1   5   68.30   11.45
   5  -1  -4 4509.71  123.53
   5   1  -4 4363.55  120.16
  -5  -1   4 4537.45  125.64
   5  -1  -3  215.55   18.36
   5   1  -3  225.70   17.89
  -5  -1   3  219.56   19.14
  -5  -1   2 1151.65   50.10
   5  -1  -2 1106.23   48.20
   5   1  -2 1128.19   47.34
   5   1  -1   26.50    8.00
  -5   1   1   39.42    9.27
  -5  -1   1   31.57    8.80
   5  -1  -1   24.07    8.03
  -5  -1   0  377.76   29.28
   5  -1   0  380.72   28.64
   5   1   0  355.55   27.18
  -5   1   0  346.23   27.65
   5  -1   1    9.50    6.15
   5   1   1   19.89    9.12
  -5   1  -1   12.61    5.60
   5  -1   2   59.24   13.53
   5   1   2   73.40   14.24
   5  -1   3   59.37   14.99
   5   1   3   21.62    9.82
   5   1   4  225.93   27.90
   5  -1   4  233.20   27.97
   5  -1   5    9.40    9.66
   5   1   5   -1.46    8.99
   5  -1   6  334.00   37.33
   5   1   6  365.79   39.14
   5   2 -18   48.84   16.00
   5  -2 -18   44.69   19.96
   5   2 -17    4.92    8.80
   5  -2 -17   20.11   15.10
   5  -2 -16  431.54   46.75
   5   2 -16  436.07   40.55
   5   2 -15    1.11    6.53
   5  -2 -15    3.08   10.69
  -5  -2  14  978.17   53.09
   5  -2 -14 1085.85   70.76
   5   2 -14 1020.57   58.97
   5  -2 -13    6.78    8.91
  -5  -2  13   21.75    7.35
   5   2 -13   29.62   10.97
   5   2 -12 1500.41   67.85
   5  -2 -12 1301.54   74.58
  -5   2  12 1441.17   67.42
  -5  -2  12 1377.72   60.51
   5   2 -11    6.99    6.40
   5  -2 -11    0.98    7.55
  -5   2  11    7.24    4.96
  -5  -2  11    5.68    4.63
   5   2 -10 2223.85   84.40
   5  -2 -10 2267.71   93.77
  -5   2  10 2064.08   82.70
  -5  -2  10 2325.77   80.18
  -5   2   9   71.97   13.40
  -5  -2   9   80.29   11.73
   5   2  -9   80.08   13.39
   5  -2  -9   72.39   14.93
   5  -2  -8  588.56   41.31
   5   2  -8  589.85   35.30
  -5   2   8  615.17   39.99
  -5  -2   8  546.66   30.80
   5   2  -7   12.92    6.24
  -5   2   7   -1.27    4.00
  -5  -2   7   -0.83    3.34
   5  -2  -7    0.68    5.63
   5  -2  -6   -5.38    7.35
   5   2  -6    3.71    4.28
  -5   2   6    8.56    4.72
  -5  -2   6    7.55    4.29
  -5  -2   5   55.67    8.64
   5  -2  -5   40.02    8.58
   5   2  -5   56.14    7.96
   5   2  -4  869.08   36.63
  -5  -2   4  914.42   39.89
   5  -2  -4  806.35   39.21
   5  -2  -3    5.86    5.12
  -5  -2   3    5.24    4.22
   5   2  -3    5.99    5.01
   5  -2  -2 2044.62   72.19
   5   2  -2 2044.84   70.01
   5   2  -1   42.14   10.02
   5  -2  -1   40.71    9.81
  -5  -2   1   48.04   10.36
  -5  -2   0 2311.63   84.62
   5  -2   0 2162.89   79.67
   5   2   0 2069.01   78.13
   5  -2   1   34.64   10.18
   5   2   1   37.99    9.96
  -5   2  -1   40.28   10.15
   5  -2   2 1891.57   79.20
   5   2   2 1959.08   80.37
   5  -2   3  103.98   18.46
   5   2   3   86.90   16.99
   5  -2   4  569.48   43.69
   5   2   4  614.40   46.41
   5  -2   5   14.55    9.39
   5   2   5   27.48   13.09
   5  -2   6  153.75   25.12
   5   2   6  124.84   23.35
   5  -3 -18  141.08   29.30
   5   3 -17   -7.31    8.40
   5  -3 -17   -4.81   12.65
   5   3 -16  112.34   20.40
   5  -3 -16  118.38   25.58
   5  -3 -15   15.96   11.85
   5   3 -15    1.36    7.04
   5   3 -14   41.50   12.92
   5  -3 -14   50.14   18.12
  -5  -3  14   50.07   10.68
   5   3 -13   55.36   12.89
   5  -3 -13   36.63   13.20
  -5  -3  13   34.83    9.11
   5   3 -12   96.06   15.22
   5  -3 -12  113.99   21.31
  -5  -3  12   79.79   12.31
   5   3 -11   16.48    7.35
   5  -3 -11   12.30    8.61
  -5   3  11    9.80    6.16
  -5  -3  11   26.48    7.24
   5   3 -10  508.65   33.36
   5  -3 -10  519.13   41.89
  -5   3  10  467.64   35.02
  -5  -3  10  577.66   32.71
  -5   3   9   90.62   15.39
  -5  -3   9   72.60   10.43
   5   3  -9   66.58   11.74
   5  -3  -9   93.28   18.11
  -5  -3   8 3270.15   94.07
   5   3  -8 3140.71  101.10
   5  -3  -8 3136.04  117.21
  -5   3   8 3509.70  117.96
   5   3  -7    0.40    4.85
  -5  -3   7   -0.79    3.17
   5  -3  -7   -1.31    5.96
  -5  -3   6 4187.35  111.91
   5  -3  -6 4007.66  125.15
   5   3  -6 4067.40  108.94
   5  -3  -5   64.34   10.92
  -5  -3   5   65.45    9.40
   5   3  -5   84.87    9.61
   5   3  -4 3056.17   88.60
   5  -3  -4 3047.79   96.74
  -5  -3   4 3221.66   92.92
   5  -3  -3  451.69   28.90
   5   3  -3  511.29   27.47
   5  -3  -2 1401.30   56.74
   5   3  -2 1357.31   53.28
  -5  -3   1   31.81    8.46
   5   3  -1   37.59    8.76
  -5   3   1   32.73    8.67
   5  -3  -1   54.56   11.26
   5  -3   0  167.65   19.11
   5   3   0  203.07   22.43
   5   3   0  188.38   19.76
   5  -3   1    9.03    5.73
   5   3   1    0.89    5.74
  -5   3  -1    6.39    4.98
   5  -3   2   42.34   12.77
  -5   3  -2   29.31    8.65
   5   3   2   16.58    9.86
   5  -3   3   -4.83    8.78
   5   3   3    9.31    7.34
   5  -3   4  223.09   26.98
   5   3   4  229.03   29.07
   5  -3   5   10.89    9.02
   5   3   5   36.31   13.16
   5  -3   6  239.72   30.83
   5   3   6  265.07   34.76
   5  -4 -18   75.02   22.63
   5  -4 -17  -12.02   13.68
   5  -4 -16  250.66   37.62
   5   4 -16  241.94   28.03
   5   4 -15    6.24    6.20
   5  -4 -15    7.42   10.85
  -5  -4  14 1086.92   53.69
   5   4 -14 1203.44   59.12
   5   4 -13   10.00    7.67
   5  -4 -13    5.05   12.21
  -5  -4  13    0.88    3.53
   5  -4 -12 2091.55   99.14
  -5  -4  12 1923.26   70.12
   5   4 -12 1959.61   73.93
  -5  -4  11   10.00    5.07
   5   4 -11    2.68    4.26
   5  -4 -11    0.85    8.13
   5   4 -10  810.31   39.91
   5  -4 -10  885.86   56.49
  -5   4  10  803.93   47.59
  -5  -4  10  828.68   37.70
  -5   4   9   13.90    6.63
  -5  -4   9   14.48    4.47
   5   4  -9   20.35    6.88
   5  -4  -9   15.68    9.40
  -5  -4   8  760.06   32.12
   5   4  -8  742.30   37.75
   5  -4  -8  785.93   51.93
  -5   4   8  830.48   51.32
   5   4  -7   68.60    9.57
  -5  -4   7   39.66    6.37
   5  -4  -7   40.54   12.23
   5  -4  -6   24.06    9.86
   5   4  -6   27.35    5.76
  -5  -4   6   30.44    6.01
   5  -4  -5   33.96    9.16
  -5  -4   5   36.42    6.66
   5   4  -5   41.63    6.70
   5  -4  -4   54.61   10.21
  -5  -4   4   42.08    7.79
   5   4  -4   39.33    7.35
   5   4  -3    7.83    5.57
   5  -4  -3    1.44    5.15
   5  -4  -2 3071.27   97.89
   5   4  -2 2927.57   91.51
  -5   4   2 3054.75  101.65
   5   4  -1   66.23   12.73
   5   4  -1   64.92   11.30
  -5   4   1   79.77   13.35
  -5  -4   1   64.13   12.53
   5  -4  -1   47.36   10.73
   5  -4   0 2202.22   81.37
   5   4   0 2126.43   78.96
   5   4   1   -8.25    6.74
  -5   4  -1    0.70    3.82
   5  -4   1    8.18    6.77
  -5   4  -2 1018.19   49.93
   5  -4   2  974.07   53.09
   5   4   2  983.55   54.13
   5  -4   3   -7.32    7.86
   5   4   3  -11.98   11.56
   5  -4   4  717.07   49.18
   5   4   4  805.97   54.59
   5  -4   5   -4.51    7.87
   5   4   5    3.04    9.77
   5  -4   6  107.74   20.40
   5   4   6  119.66   23.78
   5  -5 -17    6.70   14.01
   5  -5 -16   68.30   22.40
   5   5 -15    4.03    4.51
   5  -5 -15   18.81   15.04
   5   5 -14   80.98   14.06
   5  -5 -14   62.39   19.91
  -5  -5  14  111.42   14.83
   5   5 -13   22.14    7.70
   5  -5 -13    9.95    9.82
  -5  -5  13   16.95    5.90
   5   5 -12  114.37   14.24
   5  -5 -12  134.71   24.72
  -5  -5  12  132.89   14.43
  -5  -5  11    4.84    4.12
   5   5 -11    6.08    5.13
   5  -5 -11   -4.01   10.17
   5   5 -10  492.76   27.15
   5  -5 -10  532.92   44.21
  -5   5  10  533.79   38.15
  -5  -5  10  490.97   25.19
  -5  -5   9   69.76    8.40
  -5   5   9   58.43   12.73
   5   5  -9   69.66    9.82
   5  -5  -9   88.67   18.58
  -5  -5   8 3313.96   88.48
   5   5  -8 3305.81   96.93
   5  -5  -8 3475.54  128.59
  -5   5   8 3568.15  125.39
   5   5  -7   14.28    5.01
  -5  -5   7   10.05    3.67
   5  -5  -7   18.00    9.03
   5  -5  -6 4106.58  135.25
   5   5  -6 4337.88  109.85
  -5  -5   6 4318.98  111.17
   5  -5  -5   90.98   14.34
   5   5  -5  121.65   10.77
   5   5  -4 2318.33   69.85
   5  -5  -4 2265.90   82.82
  -5  -5   4 2415.47   83.37
  -5  -5   3   17.32    5.86
  -5   5   3   36.48    9.32
   5   5  -3   28.78    6.59
   5  -5  -3   30.73    9.90
   5  -5  -2 1831.29   70.07
   5   5  -2 1779.80   69.37
  -5  -5   2 1917.99   74.75
  -5   5   2 1856.82   73.34
   5   5  -2 1810.57   64.09
   5   5  -1  131.53   17.10
   5   5  -1  123.30   15.09
  -5   5   1  117.06   16.39
   5  -5  -1  123.77   16.27
   5  -5   0  187.40   20.65
   5   5   0  186.84   19.73
   5   5   1   20.03    8.53
   5  -5   1   34.13   10.56
  -5   5  -2   14.72    6.65
   5   5   2    9.51    6.52
   5  -5   2   10.74    7.67
   5   5   3   39.70   11.80
   5  -5   3   30.64   11.13
   5  -5   4  270.49   30.33
   5   5   4  284.70   31.89
   5  -5   5   33.36   11.76
   5   5   5   30.70   12.58
   5  -5   6  204.89   28.39
   5   5   6  223.67   31.93
   5  -6 -17  -19.13   19.25
   5  -6 -16  185.47   35.88
   5  -6 -15    1.32    9.40
   5  -6 -14  914.23   69.85
   5   6 -14  901.86   44.76
   5   6 -13    2.44    4.64
  -5  -6  13   -3.39    3.36
   5  -6 -12 1974.74  100.37
  -5  -6  12 2041.79   66.08
   5   6 -12 1939.95   65.75
   5  -6 -11  195.14   28.29
  -5  -6  11  199.33   14.79
   5   6 -11  179.70   14.41
  -5  -6  10  974.61   35.13
   5   6 -10 1077.25   38.03
   5  -6 -10 1071.70   65.40
  -5   6   9   11.93    7.15
   5   6  -9   19.20    4.76
   5  -6  -9   16.91   10.16
  -5  -6   9   15.97    3.53
   5   6  -8  803.94   33.03
   5  -6  -8  802.32   55.06
  -5  -6   8  771.74   27.27
  -5   6   8  787.88   51.48
   5   6  -7  187.49   13.78
   5  -6  -7  156.68   22.57
  -5  -6   7  184.57   11.62
   5   6  -6   25.67    5.13
   5  -6  -6   27.50   11.29
   5  -6  -5  121.80   17.58
   5   6  -5  126.19   10.89
  -5  -6   5  134.26   15.84
  -5  -6   4  319.68   25.52
  -5   6   4  370.25   30.36
   5   6  -4  336.98   19.98
   5  -6  -4  364.68   28.96
   5   6  -4  359.44   23.26
  -5  -6   3  298.11   25.60
  -5   6   3  313.89   27.17
   5   6  -3  294.16   19.87
   5  -6  -3  254.26   23.61
  -5  -6   2 1867.42   74.88
  -5   6   2 1929.76   75.19
   5   6  -2 1773.19   64.27
   5   6  -2 1844.65   70.55
   5  -6  -2 1803.72   71.31
   5   6  -1   72.99   13.07
   5   6  -1   88.14   12.72
   5  -6  -1   95.98   15.06
   5  -6   0 1697.27   70.84
   5   6   0 1737.39   69.04
   5   6   1   -6.60    6.66
   5  -6   1   -5.97    6.96
   5  -6   2  871.75   51.32
   5   6   2 1008.99   55.13
  -5   6  -2  942.76   46.81
   5   6   3   12.14    8.43
  -5   6  -3   14.82    6.49
   5  -6   3   10.10    8.77
   5  -6   4  519.94   41.26
   5   6   4  552.24   44.71
   5   6   5   -6.59    8.07
   5  -6   5  -12.55    9.82
   5   6   6   69.03   18.83
   5  -6   6   95.70   19.18
   5  -7 -16  166.58   32.35
   5  -7 -15    2.09   15.36
   5  -7 -14   35.54   16.39
   5  -7 -13   26.34   14.79
  -5  -7  12   67.40    8.28
   5  -7 -12   75.31   19.60
   5   7 -11   16.26    3.79
  -5  -7  11   13.14    3.42
   5  -7 -11   19.87   10.73
   5  -7 -10  705.25   53.12
  -5  -7  10  668.32   22.36
   5   7 -10  654.05   22.80
   5  -7  -9  339.91   34.75
   5   7  -9  215.53   10.40
   5   7  -8 2245.90   60.82
   5  -7  -8 2366.81  103.51
  -5   7   8 2301.73   95.59
  -5   7   7    9.74    6.82
  -5  -7   7   24.13    6.31
   5  -7  -7    6.40    9.72
   5   7  -7   19.96    4.55
   5  -7  -6 2676.40  104.64
   5   7  -6 2697.70   73.03
   5   7  -6 2853.24   76.95
  -5  -7   6 2792.07   91.17
  -5   7   6 2970.98  108.35
   5  -7  -5  123.56   19.26
  -5  -7   5  124.40   15.34
   5   7  -5  124.17   10.58
  -5   7   5  124.72   18.64
   5   7  -5  120.89   12.08
  -5  -7   4 2632.87   89.30
  -5   7   4 2638.83   97.01
   5   7  -4 2431.77   73.61
   5  -7  -4 2655.08   95.42
   5   7  -4 2452.55   78.72
  -5  -7   3    6.91    5.19
   5   7  -3   -0.78    4.36
  -5   7   3    4.12    4.84
   5   7  -2 1157.16   47.71
   5  -7  -2 1091.93   53.66
   5   7  -2 1071.46   51.16
   5  -7  -1  137.18   18.10
   5   7  -1  108.32   14.85
   5   7  -1  146.62   18.25
   5  -7   0  133.54   17.73
   5   7   0  139.09   17.87
   5   7   1   65.73   13.68
   5  -7   1   75.06   14.17
   5   7   2   46.38   11.69
   5  -7   2   38.25   11.57
  -5   7  -2   41.63    9.34
   5   7   3  113.52   19.20
   5  -7   3  101.91   18.27
   5   7   4   93.29   19.19
   5  -7   4  100.48   18.33
   5   7   5    3.78    9.62
   5  -7   5    4.63    7.92
   5  -7   6  146.94   23.62
   5  -8 -16  338.42   47.47
   5  -8 -15  -20.38   17.62
   5  -8 -14  582.47   57.16
   5  -8 -13    4.66   10.25
  -5  -8  13   -2.40    2.32
  -5  -8  12  890.60   27.79
   5  -8 -12  875.75   65.19
  -5  -8  12  833.69   28.13
   5  -8 -11   97.54   20.87
   5  -8 -10 1226.04   73.57
   5  -8  -9   85.35   19.52
  -5  -8   9   56.68    9.08
   5  -8  -8  309.90   34.40
  -5  -8   8  249.99   19.95
  -5  -8   7  218.45   19.05
   5   8  -7  197.30   11.31
   5  -8  -7  194.66   26.48
   5   8  -7  186.66    9.93
   5   8  -6    8.56    3.58
  -5  -8   6   10.63    4.70
   5   8  -6   10.07    3.26
  -5   8   6    5.52    7.19
   5  -8  -6    7.95    6.93
  -5   8   5  272.78   27.97
  -5  -8   5  293.06   24.22
   5   8  -5  296.92   16.25
   5  -8  -5  274.58   28.35
   5   8  -5  277.80   18.32
  -5   8   4  647.74   42.25
  -5  -8   4  634.19   38.05
   5   8  -4  592.83   27.95
   5  -8  -4  602.52   41.49
   5   8  -4  595.82   31.37
  -5  -8   3  333.63   28.10
   5   8  -3  359.86   22.23
   5  -8  -3  300.34   28.09
   5   8  -2  832.70   39.61
   5  -8  -2  786.95   45.44
   5   8  -2  826.04   43.70
   5   8  -1   58.13   12.38
   5  -8  -1   57.02   12.70
   5   8  -1   38.47    9.14
   5  -8   0 1191.85   58.36
   5   8   0 1228.20   55.93
   5  -8   1   -2.31    7.11
   5   8   1   11.81    7.46
   5   8   2 1182.28   62.03
   5  -8   2 1111.53   58.92
  -5   8  -2 1175.34   52.29
   5   8   3    4.33    7.55
   5  -8   3   26.75   10.04
   5   8   4  267.35   31.37
   5  -8   4  219.05   26.44
   5   8   5   -6.90    7.39
   5  -8   5    7.87    7.13
   5  -8   6   76.97   17.87
   5  -9 -16  221.87   38.54
   5  -9 -15   73.00   21.52
   5  -9 -14   33.01   16.15
   5  -9 -13    3.53   10.58
   5  -9 -12    3.74   13.46
  -5  -9  11   75.23    8.85
   5  -9 -11   45.02   13.91
  -5  -9  10  754.23   34.30
   5  -9 -10  847.98   60.47
  -5  -9   9    3.07    3.34
   5  -9  -9    1.72    8.61
  -5  -9   8  770.70   37.71
   5  -9  -8  785.84   57.06
  -5  -9   7   -2.71    3.85
   5  -9  -7    9.20    9.83
   5   9  -6 1599.95   48.19
  -5  -9   6 1574.56   63.12
   5  -9  -6 1454.81   75.88
   5   9  -6 1616.97   44.56
   5   9  -5   34.87    6.34
  -5  -9   5   30.22    8.43
   5   9  -5   36.88    5.69
   5  -9  -5   19.01    9.07
   5   9  -4 2448.02   79.57
  -5  -9   4 2677.13   92.32
   5   9  -4 2554.19   73.74
   5  -9  -4 2328.21   96.67
   5  -9  -3    4.67    8.08
   5   9  -3   15.92    5.54
   5   9  -2  478.32   32.84
   5  -9  -2  407.27   33.02
   5   9  -2  457.66   28.10
   5   9  -1   92.52   15.28
   5  -9  -1   85.09   15.25
   5   9  -1  112.42   14.79
   5  -9   0   52.68   13.72
   5   9   0   35.98    9.92
   5  -9   1  125.09   18.74
   5   9   1  148.76   19.77
   5  -9   2   33.31   11.50
   5   9   2   67.68   14.58
   5  -9   3   76.32   16.08
   5   9   3   74.77   16.77
   5  -9   4   64.49   15.16
   5   9   4   59.50   16.23
   5   9   5    6.54    9.75
   5  -9   5   23.49   11.08
   5  -9   6  112.40   20.76
   5 -10 -15   -1.27   14.43
   5 -10 -14  359.34   45.16
   5 -10 -13    5.23   12.64
   5 -10 -12  613.30   56.33
   5 -10 -11    2.71    9.87
  -5 -10  11    3.75    2.15
   5 -10 -10 1089.14   70.09
  -5 -10  10 1044.08   41.19
  -5 -10   9  202.11   17.19
   5 -10  -9  196.45   29.36
  -5 -10   8  397.94   25.92
   5 -10  -8  377.70   39.55
  -5 -10   7  185.17   18.40
   5 -10  -7  161.82   25.07
  -5 -10   6    7.64    4.75
   5  10  -6    2.00    1.75
   5  10  -6    4.09    2.68
   5  10  -5  284.23   18.71
   5  10  -5  314.97   16.22
  -5 -10   5  305.53   25.79
   5 -10  -5  286.89   31.28
   5  10  -4  500.00   28.79
   5  10  -4  449.74   23.50
   5 -10  -4  481.34   39.19
   5 -10  -3   -2.91   10.79
   5  10  -3    7.72    4.72
   5  10  -2  369.69   29.00
   5 -10  -2  366.50   31.98
   5  10  -2  338.15   24.07
   5 -10  -1   42.41   10.98
   5  10  -1   52.50   12.56
   5  10  -1   49.90   10.39
   5  10   0 1022.25   51.46
   5 -10   0 1045.23   56.46
   5 -10   1   38.03   12.24
   5  10   1   43.37   11.37
   5  10   2  789.50   49.57
   5 -10   2  688.05   46.18
   5 -10   3   -7.83    7.26
   5  10   3    2.28    7.92
   5 -10   4  222.22   26.82
   5  10   4  210.35   28.54
   5 -10   5   -1.41    6.72
   5  10   5    7.12    9.21
   5 -10   6   43.73   13.95
   5 -11 -15   71.23   23.66
   5 -11 -14   17.78   15.25
   5 -11 -13   44.38   17.87
   5 -11 -12   19.35   15.35
   5 -11 -11   61.86   18.93
   5 -11 -10  367.56   40.86
   5 -11  -9    0.46   10.08
   5 -11  -8 1018.88   66.49
   5 -11  -7    0.85    9.08
   5 -11  -6 1185.87   70.36
   5  11  -6 1281.03   33.41
   5  11  -5   16.08    5.36
   5  11  -5   14.34    3.54
   5  11  -4  872.83   40.93
   5  11  -4  930.95   35.60
   5 -11  -3  138.73   21.20
   5  11  -3  159.04   14.77
   5  11  -2  758.39   44.32
   5 -11  -2  770.95   50.19
   5  11  -2  832.81   39.63
   5 -11  -1   24.96   10.00
   5  11  -1   20.09    7.15
   5 -11   0   96.07   17.66
   5  11   0   95.26   15.13
   5 -11   1  136.45   19.78
   5  11   1  154.52   20.23
   5 -11   2    8.08    8.19
   5  11   2    0.14    7.59
   5 -11   3   30.31   11.84
   5  11   3   34.42   12.43
   5 -11   4   70.50   15.72
   5  11   4   64.64   17.37
   5 -11   5   51.97   13.77
   5 -12 -14  342.22   45.74
   5 -12 -13   -1.90   13.21
   5 -12 -12  725.74   62.16
   5 -12 -11   -4.86    9.78
   5 -12 -10  479.23   46.89
   5 -12  -9  146.06   25.63
   5 -12  -8  519.38   47.32
   5 -12  -7   94.35   20.96
   5 -12  -6   -4.35   10.47
   5  12  -5  145.17   13.62
   5  12  -5  127.68    9.30
   5 -12  -5  107.24   19.96
   5  12  -4  216.41   19.10
   5  12  -4  219.90   15.31
   5 -12  -4  171.14   25.28
   5  12  -3  108.05   15.30
   5  12  -3  115.93   12.82
   5 -12  -3   89.79   18.00
   5  12  -2  453.50   34.06
   5 -12  -2  405.05   36.68
   5  12  -2  429.02   27.70
   5 -12  -1   91.77   18.21
   5  12  -1   87.61   13.40
   5  12   0  763.58   43.98
   5 -12   0  753.07   50.16
   5 -12   1   69.50   15.67
   5  12   1   36.29   10.88
   5  12   2  398.59   35.07
   5 -12   2  342.27   33.20
   5 -12   3    8.16    7.39
   5  12   3   -7.57    7.33
   5 -12   4  196.94   26.46
   5  12   4  198.21   28.57
   5 -12   5    0.22    6.17
   5 -13 -13   79.70   21.97
   5 -13 -12   39.40   16.36
   5 -13 -11   51.64   18.16
   5 -13 -10  154.10   26.40
   5 -13  -9   67.78   18.24
   5 -13  -8 1104.32   71.30
   5 -13  -7   56.55   16.60
   5 -13  -6 1065.44   67.49
   5  13  -5    1.64    2.75
   5 -13  -5   12.10   10.73
   5  13  -5   11.55    2.79
   5  13  -4  678.58   36.85
   5  13  -4  666.48   28.78
   5  13  -3  134.59   17.34
   5  13  -3  122.02   13.25
   5 -13  -3  102.97   20.14
   5  13  -2  474.87   35.57
   5 -13  -2  413.48   38.26
   5  13  -2  465.32   28.84
   5 -13  -1   83.20   17.51
   5  13  -1   76.29   13.22
   5 -13   0   65.10   15.50
   5  13   0   78.97   14.33
   5 -13   1   39.97   13.20
   5  13   1   50.94   12.08
   5 -13   2   18.47   11.36
   5  13   2   -1.24    6.72
   5 -13   3   25.97   10.99
   5  13   3   36.56   12.73
   5 -13   4  133.34   21.76
   5  13   4  115.81   21.74
   5 -14 -13   31.00   14.38
   5 -14 -12  633.97   58.74
   5 -14 -11   26.59   13.63
   5 -14 -10  211.80   31.72
   5 -14  -9   22.17   13.29
   5 -14  -8  221.94   31.41
   5 -14  -7  143.17   25.27
   5 -14  -6   10.42   11.49
   5 -14  -5   83.18   18.69
   5  14  -4   45.02    6.81
   5 -14  -4   25.03   12.65
   5 -14  -3  284.95   32.80
   5  14  -3  337.46   22.03
   5 -14  -2  525.02   44.80
   5  14  -2  615.59   34.00
   5  14  -1  100.57   14.61
   5 -14  -1   97.71   19.77
   5  14   0  426.46   32.54
   5 -14   0  414.87   37.96
   5 -14   1    7.23    7.62
   5  14   1    1.79    5.64
   5  14   2  271.24   30.01
   5 -14   2  257.42   30.17
   5 -14   3  -12.20    8.72
   5  14   3    1.99    8.26
   5 -14   4  140.92   23.03
   5 -15 -12   51.22   20.18
   5 -15 -11   48.80   17.24
   5 -15 -10  126.83   25.73
   5 -15  -9  115.16   23.95
   5 -15  -8  700.93   57.40
   5 -15  -7   21.24   10.83
   5 -15  -6  689.15   54.29
   5 -15  -5   25.65   13.54
   5 -15  -4  344.54   37.95
   5 -15  -3    2.46    8.06
   5  15  -2  252.40   20.85
   5 -15  -2  160.89   25.27
   5  15  -1   76.45   13.09
   5 -15  -1   66.65   17.06
   5  15   0   23.21    9.03
   5 -15   0    7.54    5.88
   5 -15   1   50.60   13.96
   5  15   1   40.33   11.63
   5 -15   2    3.37    8.46
   5  15   2   12.80    8.70
   5  15   3   75.86   17.21
   5 -16 -11   98.51   24.59
   5 -16 -10  240.90   35.06
   5 -16  -9   34.74   15.18
   5 -16  -8   71.00   20.42
   5 -16  -7   99.68   21.93
   5 -16  -6    2.58   10.75
   5 -16  -5   93.25   20.48
   5 -16  -4   71.67   17.98
   5 -16  -3  184.47   27.88
   5 -16  -2  260.00   32.43
   5 -16  -1   13.72    7.59
   5  16   0  251.06   25.11
   5 -16   0  240.64   30.06
   5  16   1   -5.05    6.53
   5 -16   1    3.17    6.95
   5  16   2  223.49   27.11
   5 -17 -10  238.16   34.92
   5 -17  -9   45.54   17.14
   5 -17  -8  242.68   33.67
   5 -17  -7   -5.48    9.44
   5 -17  -6  393.85   41.69
   5 -17  -5   11.13    8.93
   5 -17  -4  468.00   44.68
   5 -17  -3   23.27   10.16
   5 -17  -2   89.56   19.51
   5 -17  -1   40.88   14.15
   5 -17   0    6.22    7.14
   5 -18  -9  100.25   24.55
   5 -18  -8   17.94   11.91
   5 -18  -7   56.89   17.03
   5 -18  -6    9.42   10.80
   5 -18  -5  107.89   22.06
   5 -18  -4   98.50   21.96
   5 -18  -3   90.24   19.32
   5 -18  -2  139.09   24.22
   5 -19  -8  196.08   30.97
   5 -19  -7   23.28   12.16
   5 -19  -6  283.76   36.46
   5 -19  -5   10.28   11.33
   5 -19  -4  347.79   38.58
   6   0 -20   48.54   16.88
   6   0 -19   -8.47   12.49
   6   0 -18  112.51   23.04
   6   0 -17   -5.86    8.05
   6   0 -16   63.67   18.70
   6   0 -15   -8.26   11.29
   6   0 -14  142.49   22.84
   6   0 -13   10.66    9.77
  -6   0  13    5.41    5.24
   6   0 -12  605.68   42.93
  -6   0  12  557.94   36.00
  -6   0  11    0.39    3.74
   6   0 -11    5.80    8.38
   6   0 -10 2409.70   93.53
  -6   0  10 2462.68   89.07
  -6   0   9   -4.73    5.77
   6   0  -9   -2.72    7.27
  -6   0   8 1705.56   68.35
   6   0  -8 1684.19   67.17
   6   0  -7   -5.76    6.08
  -6   0   7    1.55    5.13
  -6   0   6 4867.63  140.60
   6   0  -6 4670.59  132.14
  -6   0   5   -4.05    5.82
   6   0  -5    5.05    6.30
   6   0  -4 1770.30   66.67
  -6   0   4 1983.17   75.13
  -6   0   3   -1.91    5.02
   6   0  -3   -1.53    4.97
   6   0  -2  803.08   42.75
   6   0  -1    3.23    6.65
   6   0   0   16.91    8.79
   6   0   1   -7.85    8.67
   6   0   2   77.92   17.23
   6   0   3   -0.43    7.62
   6   0   4  195.19   27.52
   6   0   5   -1.55    9.35
   6   1 -19   -5.88    8.95
   6  -1 -19   -7.61   11.96
   6   1 -18  134.79   25.15
   6  -1 -18  131.41   26.08
   6   1 -17   10.77    9.86
   6  -1 -17  -12.86   12.71
   6  -1 -16  850.41   63.70
   6   1 -16  764.93   55.95
   6   1 -15   17.36    8.58
   6  -1 -15    5.95    8.78
   6   1 -14  558.25   43.92
   6  -1 -14  565.01   46.63
  -6  -1  13   10.95    6.37
   6   1 -13   10.60    7.87
   6  -1 -13    2.27    7.56
   6   1 -12 2052.51   84.71
   6  -1 -12 2019.62   87.46
  -6   1  12 1817.63   74.92
  -6  -1  12 1938.60   74.28
  -6   1  11   19.41    8.49
  -6  -1  11   -0.49    5.83
   6   1 -11   14.09    7.33
   6  -1 -11   15.09   10.23
   6   1 -10 1298.81   61.22
   6  -1 -10 1234.87   63.51
  -6   1  10 1330.50   62.03
  -6  -1  10 1267.89   56.35
  -6   1   9    2.78    4.50
  -6  -1   9   -0.18    4.36
   6  -1  -9   10.18    6.24
   6   1  -9   -2.83    6.90
   6   1  -8  115.02   15.10
  -6   1   8   99.07   14.34
  -6  -1   8  107.03   14.52
   6  -1  -8  125.10   17.10
   6  -1  -7    6.56    5.91
   6   1  -7    8.44    5.45
  -6   1   7   -3.21    6.58
  -6  -1   7   12.71    5.98
  -6   1   6  343.98   28.04
  -6  -1   6  373.00   26.66
   6  -1  -6  374.50   26.26
   6   1  -6  353.96   23.79
  -6   1   5    1.68    5.22
  -6  -1   5   11.45    6.36
   6  -1  -5    0.42    5.30
   6   1  -5    4.71    5.12
   6   1  -4 1254.90   52.81
  -6   1   4 1403.17   61.72
  -6  -1   4 1375.81   58.67
   6  -1  -4 1356.38   55.58
  -6   1   3   13.56    6.26
  -6  -1   3   13.13    6.23
   6  -1  -3   24.34    7.72
   6   1  -3   21.64    7.16
   6  -1  -2  958.50   47.08
   6   1  -2  820.29   43.63
   6  -1  -1  100.59   15.59
   6   1  -1  108.24   15.62
   6  -1   0 1289.96   62.29
   6   1   0 1366.11   63.28
   6  -1   1   39.03   12.81
   6   1   1   22.99   11.00
   6  -1   2  820.39   52.37
   6   1   2  835.24   52.75
   6  -1   3  -16.37   10.00
   6   1   3    0.92    8.18
   6  -1   4  253.20   31.16
   6   1   4  264.42   32.48
   6  -1   5  -10.39   13.44
   6   1   5    6.28    8.46
   6   2 -19   23.82   12.87
   6  -2 -19   11.33    9.85
   6   2 -18  127.80   23.38
   6  -2 -18  123.65   26.76
   6   2 -17    5.24    9.03
   6  -2 -17  -10.52   11.71
   6   2 -16   60.31   14.81
   6  -2 -16   75.53   20.88
   6   2 -15    8.80    7.99
   6  -2 -15   -2.28    7.53
   6   2 -14   34.91   10.94
   6  -2 -14   44.73   15.85
  -6  -2  14   42.24    9.64
  -6  -2  13   29.07    8.02
   6   2 -13   28.09    8.41
   6  -2 -13   30.52   11.05
   6   2 -12  520.16   37.76
   6  -2 -12  549.66   43.24
  -6  -2  12  501.31   32.75
  -6   2  11    0.90    4.09
  -6  -2  11   -0.58    4.27
   6   2 -11    3.28    6.19
   6  -2 -11    0.47    8.89
   6   2 -10 1970.68   77.40
   6  -2 -10 1982.87   85.72
  -6   2  10 2079.77   85.32
  -6  -2  10 1899.52   71.13
  -6  -2   9  177.53   17.47
   6  -2  -9  199.93   23.75
   6   2  -9  177.19   19.62
  -6   2   9  196.86   22.10
  -6   2   8 3180.49  111.99
  -6  -2   8 3338.23  102.62
   6  -2  -8 3390.53  112.14
   6   2  -8 3414.20  103.42
  -6  -2   7   67.53   11.06
   6  -2  -7   64.35   11.33
   6   2  -7   75.27   10.62
  -6   2   7   73.97   13.26
  -6   2   6 3792.95  120.74
  -6  -2   6 3796.46  110.71
   6  -2  -6 3560.45  112.30
   6   2  -6 3550.79  104.18
  -6   2   5    1.68    4.59
   6  -2  -5    6.62    6.51
  -6  -2   5    0.71    3.23
   6   2  -5    1.39    4.46
   6  -2  -4 2356.59   83.11
   6   2  -4 2491.27   80.55
  -6   2   4 2559.59   91.72
  -6  -2   4 2455.11   85.32
  -6   2   3   73.92   13.71
   6  -2  -3   73.78   12.59
  -6  -2   3   88.66   13.56
   6   2  -3   70.20   12.13
   6  -2  -2  536.98   35.35
   6   2  -2  599.56   35.37
   6   2  -1   12.07    7.80
   6  -2  -1   19.87    9.69
   6  -2   0    5.98    8.50
   6   2   0    3.56    8.06
   6  -2   1   -6.93   10.17
   6   2   1   -2.32    7.23
   6  -2   2   90.82   18.17
   6   2   2   94.61   18.25
   6  -2   3   18.01   11.22
   6   2   3   31.11   10.58
   6  -2   4  240.28   31.21
   6   2   4  227.52   30.25
   6  -2   5   23.15   11.19
   6  -3 -19  -14.03   13.19
   6   3 -18  172.46   25.46
   6  -3 -18  140.14   29.32
   6   3 -17    2.13    6.78
   6  -3 -17    3.12    8.78
   6  -3 -16  512.02   50.15
   6   3 -16  481.55   39.91
   6   3 -15   34.50   12.08
   6  -3 -15   59.96   17.70
   6   3 -14 1827.44   77.06
   6  -3 -14 1734.12   89.19
  -6  -3  13    5.97    3.25
   6   3 -13    5.10    6.24
   6  -3 -13   -1.09    8.64
   6   3 -12 1083.07   55.32
   6  -3 -12 1180.09   66.01
  -6  -3  12 1140.38   51.73
  -6   3  11    9.08    6.18
  -6  -3  11    9.40    5.18
   6   3 -11   11.86    7.43
   6  -3 -11   11.85    7.53
  -6  -3  10 1005.95   44.61
   6   3 -10 1028.97   50.32
   6  -3 -10 1019.83   58.96
  -6   3  10  982.19   55.31
  -6   3   9   32.62   10.83
  -6  -3   9   40.02    8.15
   6  -3  -9   30.27   10.25
   6   3  -9   22.74    7.28
  -6  -3   8  153.88   15.36
   6   3  -8  151.38   15.63
   6  -3  -8  151.62   20.29
  -6   3   8  171.67   21.33
   6  -3  -7   -4.98    7.76
  -6  -3   7    3.71    3.87
   6   3  -7    5.52    4.69
  -6   3   7   -4.76    4.92
   6  -3  -6   14.61    7.80
  -6  -3   6   15.09    5.97
   6   3  -6    9.88    6.19
  -6   3   6   18.31    8.59
  -6   3   5   38.64   10.92
   6  -3  -5   43.60   10.46
  -6  -3   5   52.12    9.63
   6   3  -5   35.47    7.94
  -6  -3   4  887.44   43.69
   6   3  -4  802.30   39.10
  -6   3   4  965.78   50.93
   6  -3  -4  829.54   43.61
   6   3  -3    1.44    5.05
   6  -3  -3   -2.95    6.62
   6  -3  -2 2167.49   81.62
   6   3  -2 2182.32   78.68
   6   3  -1   72.87   13.62
   6  -3  -1   71.87   14.15
   6  -3   0 1470.22   67.39
   6   3   0 1333.44   63.73
   6   3   1    7.89    7.99
   6  -3   1   18.62    8.62
   6  -3   2  811.22   51.61
   6   3   2  725.89   49.32
   6  -3   3    3.65    8.76
   6   3   3   -0.87    7.64
   6   3   4  179.93   27.20
   6  -3   4  182.36   27.18
   6  -3   5   -9.27   11.26
   6  -4 -18   87.30   24.18
   6   4 -17   14.06    8.61
   6  -4 -17   -6.88   10.61
   6   4 -16   36.34   11.84
   6  -4 -16   68.63   19.44
   6   4 -15    7.00    7.30
   6  -4 -15    4.68    8.67
  -6  -4  14   14.54    6.07
   6   4 -14    4.10    7.30
   6  -4 -14   18.70   13.71
  -6  -4  13   53.66   10.21
   6   4 -13   77.72   13.61
   6  -4 -13   70.78   18.25
   6   4 -12  448.26   31.30
   6  -4 -12  460.13   40.59
  -6  -4  12  460.37   28.53
  -6  -4  11   22.99    6.17
   6   4 -11   15.87    6.77
   6  -4 -11   23.98   11.41
  -6  -4  10 1152.10   46.54
   6   4 -10 1209.65   53.04
   6  -4 -10 1205.31   65.95
  -6   4  10 1151.57   59.98
  -6   4   9   13.78    7.41
   6   4  -9    3.43    4.15
  -6  -4   9    4.77    2.76
  -6  -4   8 5497.61  140.66
   6  -4  -8 5015.13  159.45
   6   4  -8 5198.77  141.48
  -6   4   8 5102.00  162.57
   6  -4  -7   71.21   13.93
   6   4  -7   53.55    8.22
  -6  -4   7   60.49    9.47
  -6   4   7   53.86   12.09
   6   4  -6 2158.88   68.95
  -6   4   6 2294.51   90.47
   6  -4  -6 2204.70   83.44
  -6  -4   6 2203.75   72.82
   6  -4  -5    2.02    6.10
   6   4  -5    5.36    3.68
  -6  -4   5    1.85    3.49
  -6   4   5    0.41    4.00
   6   4  -4 1976.06   68.50
  -6   4   4 1977.88   82.29
  -6  -4   4 2142.59   82.68
   6  -4  -4 2031.18   76.85
   6   4  -3   10.70    5.94
   6  -4  -3   -4.17    7.09
   6  -4  -2  540.63   36.05
   6   4  -2  521.26   33.44
   6   4  -1    4.15    6.97
   6  -4  -1   11.39    8.58
   6   4   0   33.10   10.88
   6  -4   0   14.26    8.66
   6   4   1    9.11    6.47
   6  -4   1    8.43    7.50
   6   4   2  107.38   18.99
   6  -4   2   91.50   18.72
   6   4   3    1.05    7.27
   6  -4   3    5.14    6.81
   6   4   4  295.33   35.00
   6  -4   4  213.03   28.71
   6  -4   5    1.87    8.71
   6  -5 -18  100.28   27.12
   6  -5 -17   18.99   14.76
   6  -5 -16  375.26   43.59
   6   5 -16  294.04   27.63
   6   5 -15   14.54    7.16
   6  -5 -15   35.52   15.35
   6  -5 -14 1456.60   83.74
  -6  -5  14 1418.28   56.66
   6   5 -14 1585.86   64.25
  -6  -5  13   23.70    6.58
   6   5 -13   19.52    7.62
   6  -5 -13   34.47   13.56
   6   5 -12 1196.40   51.20
   6  -5 -12 1237.87   70.86
  -6  -5  12 1191.76   46.76
   6   5 -11   16.82    6.56
  -6  -5  11    8.09    3.43
   6  -5 -11   12.01   10.23
  -6  -5  10  580.33   28.83
   6   5 -10  610.61   33.42
   6  -5 -10  605.41   45.91
  -6  -5   9   14.95    4.77
   6  -5  -9   15.96    9.74
   6   5  -9   14.18    5.36
  -6   5   8   94.43   17.52
  -6  -5   8  101.86   11.08
   6   5  -8  113.48   12.52
   6  -5  -8   85.44   16.47
  -6   5   7  226.74   26.00
   6  -5  -7  238.31   26.08
   6   5  -7  226.00   16.45
  -6  -5   7  223.23   17.00
   6  -5  -6   37.78   10.33
   6   5  -6   40.12    7.00
  -6   5   6   49.64   12.43
  -6  -5   6   39.73    7.96
   6  -5  -5    5.02    7.56
  -6  -5   5   14.69    6.92
   6   5  -5    9.30    5.00
  -6   5   5   11.72    6.66
   6   5  -4  766.81   36.63
   6  -5  -4  743.87   42.83
   6   5  -3   70.65   11.70
   6  -5  -3   88.29   15.12
   6   5  -3   99.37   15.61
   6  -5  -2 2581.87   93.97
   6   5  -2 2565.49   87.68
   6   5  -1   -6.83    7.38
   6  -5  -1   -6.32    8.48
   6  -5   0  841.00   50.24
   6   5   0  866.12   48.90
   6   5   1   12.82    9.73
   6  -5   1    2.02    7.84
   6  -5   2  547.23   42.47
   6   5   2  585.58   43.99
   6   5   3   -7.43    9.74
   6  -5   3   -1.38    8.19
   6   5   4  240.08   31.21
   6  -5   4  181.95   26.20
   6  -6 -17   14.66   12.76
   6  -6 -16   43.14   16.96
   6   6 -15    4.85    4.49
   6  -6 -15   17.25   14.21
   6   6 -14    4.06    4.29
   6  -6 -14    4.22   10.09
   6   6 -13   20.33    6.34
  -6  -6  13   29.02    6.04
   6  -6 -13   33.56   15.28
   6   6 -12  385.24   23.61
   6  -6 -12  417.08   40.02
  -6  -6  12  353.61   20.57
   6   6 -11   39.75    7.29
  -6  -6  11   30.34    6.20
   6   6 -10 1343.54   50.53
  -6  -6  10 1318.55   44.17
   6  -6 -10 1339.20   72.27
  -6  -6   9  123.76   10.79
   6   6  -9  106.36   12.52
   6  -6  -9   81.31   17.55
   6  -6  -8 2815.42  110.46
   6   6  -8 2857.74   85.36
  -6  -6   8 2999.59   82.18
   6   6  -7   36.91    6.92
  -6  -6   7   36.28    6.66
   6  -6  -7   29.11   11.61
   6   6  -6 1940.87   62.04
   6  -6  -6 1983.65   82.76
  -6  -6   6 2018.09   78.17
   6  -6  -5   29.94    8.32
   6   6  -5   29.16    6.95
  -6  -6   5   19.52    7.04
   6   6  -4 1329.31   51.78
   6  -6  -4 1374.68   62.62
   6   6  -4 1369.16   58.68
   6   6  -3   15.09    6.89
   6   6  -3   18.45    6.89
   6  -6  -3   32.49   11.50
   6  -6  -2  392.98   31.59
   6   6  -2  386.79   28.06
   6   6  -1   23.18    8.97
   6  -6  -1   18.09    8.36
   6   6   0   17.79    8.39
   6  -6   0   30.32   10.65
   6   6   1   38.26   11.36
   6  -6   1   35.30   10.24
   6   6   2  112.43   20.13
   6  -6   2  110.98   19.65
   6   6   3   51.82   15.22
   6  -6   3   32.96   12.74
   6   6   4  181.03   26.95
   6  -6   4  165.41   25.00
   6  -7 -17    0.27   10.99
   6  -7 -16  432.73   48.44
   6  -7 -15   33.79   13.75
   6  -7 -14  954.17   66.75
   6   7 -14  794.17   35.93
   6   7 -13   60.83    8.49
   6  -7 -13   64.89   18.39
  -6  -7  12  914.74   32.93
   6  -7 -12  925.27   61.91
   6   7 -12  940.89   35.01
  -6  -7  11   34.21    4.94
   6   7 -11   33.57    5.53
   6  -7 -11   50.84   15.13
   6   7 -10  589.94   26.06
  -6  -7  10  579.29   23.02
  -6  -7   9    7.34    2.80
   6   7  -9    1.21    3.05
   6  -7  -9    1.39   10.28
   6   7  -8  146.32   12.83
   6  -7  -8   91.57   17.83
   6   7  -7   32.85    6.23
  -6  -7   7   21.43    7.83
   6  -7  -7   41.64   13.13
   6  -7  -6   90.07   17.08
   6   7  -6   92.49   10.14
  -6  -7   6   83.54   14.01
   6  -7  -5   50.72   12.54
   6   7  -5   42.32    7.52
   6   7  -4  745.39   36.13
   6  -7  -4  689.86   44.26
   6   7  -4  760.98   40.90
   6   7  -3  146.27   18.33
   6   7  -3  112.60   14.15
   6  -7  -3  124.81   18.53
   6   7  -2  899.04   45.46
   6  -7  -2  920.93   51.42
   6   7  -1   24.10    8.84
   6  -7  -1   46.70   12.75
   6  -7   0 1109.91   58.93
   6   7   0 1053.91   56.24
   6   7   1    5.35    9.11
   6  -7   1   -1.65    7.64
   6  -7   2  482.50   39.40
   6   7   2  491.84   41.63
   6   7   3    0.89    6.97
   6  -7   3   10.23    9.32
   6   7   4  151.67   25.49
   6  -7   4  151.20   24.11
   6  -8 -17   41.21   19.13
   6  -8 -16   75.71   21.92
   6  -8 -15   18.42   13.21
   6  -8 -14   -1.30    9.86
   6  -8 -13   12.11   11.58
   6  -8 -12  357.59   38.38
   6  -8 -11    9.01    9.45
   6  -8 -10 1536.26   81.90
   6   8  -9   65.41    7.21
  -6  -8   9   49.09   10.00
   6  -8  -9   47.26   14.58
   6  -8  -8 1054.75   63.66
   6   8  -8 1083.44   39.07
  -6  -8   8 1117.02   52.53
   6   8  -8 1129.10   37.82
  -6  -8   7    0.44    3.97
   6   8  -7    9.25    4.11
   6   8  -7    8.76    3.54
  -6  -8   6 2549.70   90.86
   6   8  -6 2396.57   70.86
   6  -8  -6 2452.09   99.61
   6   8  -6 2383.53   76.57
   6  -8  -5   22.77    8.91
   6   8  -5   23.62    6.08
   6   8  -4 1385.37   52.54
   6  -8  -4 1344.45   66.57
   6   8  -4 1334.43   58.36
   6   8  -3    4.70    5.83
   6   8  -3    2.96    5.06
   6  -8  -3   -5.05    8.55
   6   8  -2  308.67   25.37
   6  -8  -2  353.79   30.82
   6   8  -1   63.89   13.15
   6  -8  -1   66.10   14.99
   6   8   0   29.51   10.61
   6  -8   0   34.88   12.18
   6   8   1   29.99   11.36
   6  -8   1   39.51   11.97
   6   8   2  109.77   19.95
   6  -8   2   55.99   13.99
   6   8   3   24.02   10.78
   6  -8   3   27.03   10.85
   6   8   4   73.91   18.45
   6  -8   4   66.86   16.84
   6  -9 -16  545.73   55.38
   6  -9 -15   -2.17   10.22
   6  -9 -14  424.04   45.90
   6  -9 -13   -1.12    9.91
   6  -9 -12 1096.23   70.61
  -6  -9  12 1034.50   44.29
   6  -9 -11   38.62   15.83
  -6  -9  11   28.78    7.20
   6  -9 -10  701.95   53.94
  -6  -9  10  652.82   36.37
  -6  -9   9   45.76    9.74
   6  -9  -9   20.69    9.84
  -6  -9   8  115.84   15.46
   6   9  -8  114.77    9.21
   6   9  -8  121.04    8.96
  -6  -9   7  142.86   17.74
   6   9  -7  152.56   11.25
   6  -9  -7  114.21   20.43
   6   9  -7  157.94   12.80
   6   9  -6   32.25    7.03
   6   9  -6   25.83    5.79
   6  -9  -6   43.85   13.45
   6  -9  -5   52.65   14.04
   6   9  -5   33.38    6.55
   6   9  -4  504.92   28.40
   6  -9  -4  494.78   39.28
   6   9  -4  445.76   31.26
   6   9  -3    3.00    4.57
   6  -9  -3   12.37    9.28
   6   9  -3    4.61    4.77
   6   9  -2  535.88   33.90
   6  -9  -2  521.35   39.62
   6  -9  -1    6.60    8.52
   6   9  -1    0.18    6.37
   6   9   0 1050.78   56.89
   6  -9   0 1116.69   60.68
   6  -9   1   18.64   10.15
   6   9   1   18.58    9.13
   6  -9   2  412.12   37.19
   6   9   2  429.56   38.68
   6   9   3  -23.94   13.56
   6  -9   3    2.65    7.56
   6  -9   4  134.08   21.86
   6 -10 -16    8.25   12.14
   6 -10 -15   36.70   16.94
   6 -10 -14   -7.48   10.97
   6 -10 -13   11.49   10.01
   6 -10 -12  234.72   33.53
  -6 -10  11   69.20   10.76
   6 -10 -11   72.86   18.53
  -6 -10  10 1064.77   48.65
   6 -10 -10 1216.90   72.77
   6 -10  -9    3.89    7.99
  -6 -10   9    3.93    3.42
  -6 -10   8  934.34   47.00
   6 -10  -8  746.59   55.41
   6  10  -7  144.99   11.68
  -6 -10   7  154.85   18.91
   6  10  -7  143.04    9.95
   6 -10  -7  140.21   22.66
   6  10  -6 2325.48   73.62
   6  10  -6 2373.21   67.45
   6 -10  -6 2249.40   99.13
   6  10  -5   -1.70    3.62
   6 -10  -5   14.65   11.46
   6  10  -4  909.51   47.40
   6  10  -4 1024.82   43.20
   6 -10  -4 1006.83   59.49
   6 -10  -3   15.98   10.22
   6  10  -3   10.99    5.44
   6  10  -3   10.90    5.37
   6  10  -2  337.20   26.97
   6 -10  -2  329.04   32.11
   6 -10  -1   18.27    9.79
   6  10  -1   35.60    9.92
   6 -10   0    7.17    8.07
   6  10   0    6.01    6.47
   6 -10   1   60.91   15.19
   6  10   1   60.33   14.59
   6 -10   2   19.67    9.47
   6  10   2   43.96   12.28
   6 -10   3   23.45   10.78
   6  10   3    5.50    7.06
   6 -10   4   85.75   17.95
   6 -11 -15   54.98   20.32
   6 -11 -14  551.94   53.48
   6 -11 -13  -17.39   15.30
   6 -11 -12  749.33   59.40
   6 -11 -11   31.11   15.04
   6 -11 -10  592.97   50.23
  -6 -11  10  509.82   31.94
  -6 -11   9  182.04   19.00
   6 -11  -9  148.92   24.90
   6 -11  -8  145.54   24.12
  -6 -11   8  124.70   16.39
   6  11  -7  166.56    9.90
   6 -11  -7  133.78   23.24
   6  11  -6  297.66   20.20
   6  11  -6  332.60   17.29
   6  11  -5  171.70   14.02
   6 -11  -5  125.13   21.62
   6  11  -4  335.95   27.28
   6  11  -4  389.21   24.48
   6 -11  -4  383.49   36.61
   6  11  -3   12.95    7.14
   6  11  -3    6.61    4.56
   6  11  -2  520.67   33.79
   6 -11  -2  484.70   40.84
   6 -11  -1  142.92   22.33
   6  11  -1  114.95   16.97
   6  11   0  634.01   42.88
   6 -11   0  635.86   46.70
   6 -11   1    6.42    8.16
   6  11   1  -11.60    9.91
   6  11   2  352.19   35.38
   6 -11   2  297.38   32.31
   6 -11   3   17.45   10.85
   6  11   3   -0.06    8.98
   6 -12 -14   21.22   17.02
   6 -12 -13  120.79   25.30
   6 -12 -12  167.38   29.14
   6 -12 -11   88.75   22.16
   6 -12 -10  547.96   49.09
   6 -12  -9    6.85   10.69
   6 -12  -8 1158.98   70.61
   6 -12  -7   47.50   15.10
   6  12  -6 1315.23   40.80
   6 -12  -6 1090.78   68.65
   6 -12  -5    0.75    8.18
   6  12  -5    6.97    3.64
   6  12  -4  651.78   32.42
   6 -12  -4  541.43   45.50
   6 -12  -3   53.90   14.92
   6  12  -3   73.59   11.58
   6 -12  -2  165.24   24.56
   6  12  -2  182.45   20.08
   6 -12  -1   59.39   15.33
   6  12  -1   60.06   12.59
   6 -12   0    4.51    9.07
   6  12   0   17.36    9.22
   6 -12   1   33.58    9.38
   6  12   1   22.90    9.42
   6 -12   2   36.31   12.71
   6  12   2   17.96    9.01
   6 -12   3   12.71    9.05
   6  12   3   -4.68    9.50
   6 -13 -14  574.02   56.14
   6 -13 -13   14.53   13.66
   6 -13 -12  322.51   39.28
   6 -13 -11   33.23   15.65
   6 -13 -10  245.95   33.98
   6 -13  -9  144.81   25.14
   6 -13  -8   48.39   15.77
   6 -13  -7   55.64   15.87
   6 -13  -6   36.47   14.04
   6  13  -5  214.89   15.17
   6 -13  -5  207.81   28.62
   6  13  -4  252.65   19.14
   6 -13  -4  255.14   31.18
   6  13  -3  126.20   14.73
   6 -13  -3  150.01   23.68
   6 -13  -2  683.23   51.02
   6  13  -2  665.76   39.25
   6 -13  -1   49.42   15.30
   6  13  -1   46.21   11.46
   6 -13   0  284.04   32.71
   6  13   0  274.73   27.88
   6 -13   1   11.80    7.99
   6  13   1    5.26    6.20
   6 -13   2  186.89   27.05
   6  13   2  209.91   27.87
   6 -13   3   -0.06    6.73
   6 -14 -13   71.07   20.04
   6 -14 -12   59.25   17.54
   6 -14 -11   28.64   14.15
   6 -14 -10  236.88   33.56
   6 -14  -9   72.90   18.67
   6 -14  -8  998.19   66.55
   6 -14  -7   12.13   12.62
   6 -14  -6  428.77   42.29
   6 -14  -5    6.61    9.78
   6  14  -4  394.40   24.04
   6 -14  -4  315.27   35.62
   6  14  -3   28.75    7.89
   6 -14  -3   45.24   14.24
   6 -14  -2  116.25   21.98
   6  14  -2   59.71   11.70
   6 -14  -1   54.65   16.11
   6  14  -1   65.53   13.04
   6 -14   0   12.71    9.76
   6  14   0    2.43    5.39
   6 -14   1   37.22   13.92
   6  14   1   28.34   10.49
   6 -14   2   63.28   17.02
   6  14   2   47.77   13.69
   6 -15 -12  286.63   38.44
   6 -15 -11   15.85   11.15
   6 -15 -10  139.80   25.96
   6 -15  -9   79.44   19.98
   6 -15  -8   33.90   12.57
   6 -15  -7   80.89   19.34
   6 -15  -6    4.39   10.42
   6 -15  -5   85.55   18.96
   6 -15  -4  137.38   25.11
   6 -15  -3  135.33   23.64
   6 -15  -2  330.42   36.75
   6 -15  -1   -9.72    9.69
   6  15  -1   -1.90    6.52
   6 -15   0  252.31   32.19
   6  15   0  269.00   27.85
   6 -15   1    1.90    6.99
   6  15   1  -14.81    8.52
   6 -16 -11   64.90   18.29
   6 -16 -10  272.24   36.56
   6 -16  -9  103.45   22.95
   6 -16  -8  396.99   41.86
   6 -16  -7   -3.10   10.00
   6 -16  -6  315.35   36.92
   6 -16  -5  -11.94    9.27
   6 -16  -4  225.67   31.63
   6 -16  -3   -5.90   10.24
   6 -16  -2   42.41   14.99
   6 -16  -1   54.90   15.13
   6 -16   0   -2.28    6.63
   6 -17 -10  138.33   26.11
   6 -17  -9   38.26   16.06
   6 -17  -8   13.48   13.45
   6 -17  -7   61.67   17.64
   6 -17  -6    0.34    8.68
   6 -17  -5  136.24   25.17
   6 -17  -4  155.09   26.35
   6 -17  -3   81.27   20.14
   6 -17  -2  111.71   22.32
   6 -17  -1    9.85    8.36
   6 -18  -8  254.75   34.19
   6 -18  -7   -2.14    8.93
   6 -18  -6  293.62   36.18
   6 -18  -5  -12.03   10.05
   6 -18  -4  174.02   28.27
   6 -18  -3    9.80    7.80
   6 -19  -5   82.80   19.98
   7   0 -20   43.79   17.66
   7   0 -19   -7.46   12.80
   7   0 -18  259.54   34.52
   7   0 -17   14.33   10.03
   7   0 -16  565.99   47.24
   7   0 -15    9.90    8.51
   7   0 -14  725.07   49.39
  -7   0  13   -4.98    4.82
   7   0 -13    8.21    7.48
   7   0 -12 1151.97   60.63
  -7   0  12 1122.36   56.89
  -7   0  11   -1.83    6.39
   7   0 -11   -5.49    7.06
  -7   0  10  430.26   32.50
   7   0 -10  440.05   33.59
  -7   0   9   -2.46    4.77
   7   0  -9    2.45    5.01
   7   0  -8   21.42    7.88
  -7   0   8   41.61   10.61
  -7   0   7    5.06    5.49
   7   0  -7   -1.69    5.66
  -7   0   6  968.53   52.06
   7   0  -6 1025.58   48.00
   7   0  -5    3.06    6.05
   7   0  -4 1062.84   51.43
   7   0  -3    7.95    8.35
   7   0  -2  840.76   47.93
   7   0  -1   -1.61    8.34
   7   0   0 1378.97   70.01
   7   0   1   -2.69    8.31
   7   0   2  322.33   34.85
   7   0   3   -7.16    9.21
   7   1 -20   64.60   19.38
   7  -1 -20  137.26   28.45
   7   1 -19   21.00   14.26
   7  -1 -19    4.13    9.81
   7   1 -18  181.42   28.47
   7  -1 -18  130.73   25.48
   7   1 -17   -2.92    9.62
   7  -1 -17   -5.25    9.35
   7   1 -16   38.75   13.88
   7  -1 -16   17.21   11.00
   7   1 -15   -7.27    9.06
   7  -1 -15    4.98    8.50
   7   1 -14   60.39   13.98
   7  -1 -14   69.20   16.54
  -7  -1  13   98.56   14.54
   7   1 -13  106.52   17.75
   7  -1 -13   99.87   17.79
   7   1 -12  559.36   39.47
   7  -1 -12  531.69   40.04
  -7   1  12  490.06   36.32
  -7  -1  12  514.43   35.24
  -7   1  11   49.94   12.44
  -7  -1  11   67.64   12.34
   7   1 -11   43.01   11.86
   7  -1 -11   70.60   14.76
  -7   1  10 1472.83   65.95
  -7  -1  10 1376.81   61.30
   7  -1 -10 1285.73   63.49
   7   1 -10 1278.26   61.09
   7   1  -9   -0.42    5.01
  -7   1   9    1.56    4.23
  -7  -1   9   -3.69    4.90
   7  -1  -9    0.29    6.52
  -7   1   8 1951.00   80.92
  -7  -1   8 1934.49   76.42
   7  -1  -8 1938.69   76.24
   7   1  -8 2045.54   73.70
  -7   1   7   83.23   14.45
  -7  -1   7   89.08   14.52
   7  -1  -7   93.91   14.14
   7   1  -7   98.06   13.71
  -7   1   6 2766.86  100.87
  -7  -1   6 2781.86   96.76
   7  -1  -6 2584.74   90.75
   7   1  -6 2700.08   88.90
   7  -1  -5    0.85    5.99
   7   1  -5   -1.95    6.74
   7  -1  -4  883.43   46.57
   7   1  -4  921.35   46.62
   7  -1  -3   22.07    8.44
   7   1  -3   23.44    8.79
   7  -1  -2   79.87   15.17
   7   1  -2   69.95   15.14
   7   1  -1    2.34    7.97
   7  -1  -1    9.10    6.88
   7   1   0   49.57   14.18
   7  -1   0   27.22   10.35
   7   1   1    1.14    8.43
   7  -1   1   18.08   10.95
   7  -1   2  105.31   20.60
   7   1   2  113.59   21.50
   7  -1   3  -10.64    9.97
   7   1   3   -2.84   10.34
   7   2 -19   28.79   11.64
   7  -2 -19   -1.16    9.24
   7   2 -18  200.65   28.73
   7  -2 -18  223.29   33.13
   7   2 -17   -6.14    7.46
   7  -2 -17   -3.66   11.18
   7   2 -16  672.82   49.24
   7  -2 -16  710.79   54.58
   7   2 -15   11.83    9.21
   7  -2 -15    8.39    7.99
   7   2 -14 1079.11   57.59
   7  -2 -14 1001.07   60.44
   7   2 -13  168.10   21.32
   7  -2 -13  205.93   25.67
  -7  -2  13  200.33   20.97
   7   2 -12  698.76   43.32
   7  -2 -12  708.86   47.82
  -7  -2  12  639.63   38.34
  -7  -2  11   25.79    8.43
   7   2 -11    8.55    5.97
   7  -2 -11   12.82    8.15
  -7   2  10  258.05   26.72
  -7  -2  10  280.63   24.20
   7  -2 -10  278.01   28.06
   7   2 -10  264.16   24.76
   7   2  -9   52.72   11.14
  -7   2   9   36.42   10.17
  -7  -2   9   28.64    8.22
   7  -2  -9   37.12   10.55
   7  -2  -8   -2.01    8.40
  -7  -2   8   39.06    9.39
   7   2  -8   15.93    6.77
  -7   2   8   21.29    8.95
   7  -2  -7  106.57   15.48
  -7  -2   7   92.53   14.03
   7   2  -7  105.19   13.43
  -7   2   7   97.51   16.33
   7   2  -6  706.13   37.79
   7  -2  -6  760.31   42.32
   7  -2  -5   19.48    8.89
  -7  -2   5    4.95    5.10
   7   2  -5   10.21    5.99
   7  -2  -4 1082.87   53.81
   7   2  -4 1203.79   54.22
   7  -2  -3   77.75   14.31
   7   2  -3   48.51   11.07
   7  -2  -2 1513.98   70.16
   7   2  -2 1648.69   70.63
   7   2  -1   20.35    8.91
   7  -2  -1   12.97   10.87
   7  -2   0  885.20   54.57
   7   2   0  866.07   53.29
   7   2   1   -0.78    9.25
   7  -2   1   10.79   10.19
   7  -2   2  414.08   39.47
   7   2   2  376.49   38.06
   7   2   3   -1.42    8.35
   7  -2   3    2.54    7.47
   7  -3 -19   28.88   11.97
   7   3 -18   79.77   18.13
   7  -3 -18   66.49   19.95
   7   3 -17    3.70    6.36
   7  -3 -17    3.95    7.86
   7   3 -16   14.72    8.07
   7  -3 -16   15.68   11.55
  -7  -3  15    3.05    4.19
   7   3 -15   -7.50    6.58
   7  -3 -15   -6.15    8.62
   7   3 -14  132.67   19.33
   7  -3 -14  150.40   24.45
  -7  -3  14  138.75   16.66
  -7  -3  13  112.27   14.95
   7   3 -13  116.94   17.33
   7  -3 -13  127.52   21.37
  -7  -3  12  726.21   39.59
   7   3 -12  782.30   45.04
   7  -3 -12  787.09   51.94
  -7  -3  11   12.82    5.55
   7   3 -11   14.92    6.79
   7  -3 -11    5.93    7.37
  -7  -3  10 1886.78   69.95
   7  -3 -10 1686.23   78.71
   7   3 -10 1854.68   72.50
   7   3  -9   10.38    5.77
  -7  -3   9   -0.72    4.60
   7  -3  -9   14.67    8.43
  -7  -3   8 2869.66   93.70
   7  -3  -8 2820.35  101.99
   7   3  -8 2791.91   89.83
   7  -3  -7   89.31   15.11
   7   3  -7   94.29   12.62
  -7  -3   7   73.13   12.43
   7   3  -6 1149.58   50.26
   7  -3  -6 1218.04   56.93
  -7  -3   6 1292.42   56.40
   7  -3  -5   13.76    7.56
   7   3  -5    8.56    5.60
  -7  -3   5    9.12    5.14
   7  -3  -4  771.79   44.38
   7   3  -4  735.62   40.62
   7  -3  -3    1.37    6.42
   7   3  -3   -8.46    7.90
   7   3  -2   64.26   13.11
   7  -3  -2   74.18   16.18
   7   3  -1   71.78   14.65
   7  -3  -1   81.41   16.19
   7   3   0    1.17    7.58
   7  -3   0   19.56   10.88
   7   3   1    2.60    7.29
   7  -3   1    0.48    7.27
   7   3   2  123.05   22.25
   7  -3   2  169.60   25.13
   7   3   3   21.96   12.19
   7  -3   3    0.82   10.22
   7  -4 -19  -10.53   12.07
   7  -4 -18  165.25   29.98
   7   4 -17    3.82    5.76
   7  -4 -17   -7.84    8.72
   7  -4 -16  660.43   54.33
   7   4 -16  650.85   43.61
   7   4 -15   -0.44    4.93
   7  -4 -15    2.52   10.23
   7   4 -14 1267.95   60.28
   7  -4 -14 1288.69   72.41
  -7  -4  14 1222.33   53.65
  -7  -4  13   24.66    6.80
   7   4 -13   18.00    7.94
   7  -4 -13    3.00    9.31
  -7  -4  12  435.89   28.08
   7   4 -12  449.44   31.97
   7  -4 -12  472.13   40.04
   7   4 -11   24.76    8.11
   7  -4 -11   33.19   11.51
  -7  -4  11   26.98    7.11
  -7  -4  10  167.79   16.67
   7   4 -10  137.23   16.98
   7  -4 -10  146.60   21.49
   7   4  -9   15.84    6.34
  -7  -4   9    7.77    4.27
   7  -4  -9   10.44    7.99
   7  -4  -8   18.24    9.42
   7   4  -8   19.26    7.08
  -7  -4   8   15.62    6.43
   7  -4  -7   15.41    6.76
   7   4  -7   15.89    5.98
  -7  -4   7   16.61    5.79
  -7  -4   6  388.36   28.27
   7   4  -6  388.67   25.72
   7  -4  -6  388.55   31.27
   7  -4  -5    9.29    7.84
   7   4  -5    9.90    5.39
   7   4  -4 1373.96   57.74
   7  -4  -4 1322.72   62.37
   7   4  -3    5.64    6.28
   7  -4  -3   -7.13    8.73
   7  -4  -2 1638.43   74.54
   7   4  -2 1751.36   72.71
   7   4  -1   15.73   10.01
   7  -4  -1   16.61    9.15
   7  -4   0  623.38   45.54
   7   4   0  637.80   45.12
   7   4   1   -3.23    7.18
   7  -4   1   -5.55    8.22
   7  -4   2  313.29   33.98
   7   4   2  317.38   34.86
   7  -4   3   10.53    9.16
   7  -5 -18  103.11   24.63
   7  -5 -17   27.30   13.12
   7   5 -16    1.88    6.05
   7  -5 -16   15.12   12.18
   7   5 -15   23.07    8.02
   7  -5 -15    2.33    7.92
   7   5 -14  105.18   15.10
  -7  -5  14  122.27   13.93
   7  -5 -14  101.42   20.95
   7   5 -13    7.54    6.18
  -7  -5  13    5.67    3.08
   7  -5 -13    3.90    8.10
  -7  -5  12  446.50   26.74
   7   5 -12  472.61   31.08
   7  -5 -12  402.79   38.35
   7   5 -11   12.50    6.34
   7  -5 -11   11.51    9.28
  -7  -5  11   11.45    4.64
  -7  -5  10 2025.51   68.08
   7  -5 -10 1869.02   86.61
   7   5 -10 2022.85   73.39
   7   5  -9    5.99    4.60
  -7  -5   9   13.03    5.78
   7  -5  -9   -2.10    7.38
   7  -5  -8 2608.04  101.15
   7   5  -8 2542.32   80.75
  -7  -5   8 2606.56   83.91
   7  -5  -7   -0.09    8.43
   7   5  -7    6.71    5.34
  -7  -5   7    8.99    4.91
   7   5  -6  983.18   43.68
   7  -5  -6 1004.05   54.52
   7  -5  -5   34.69   11.38
   7   5  -5   24.76    7.74
   7   5  -4  779.60   41.62
   7  -5  -4  806.47   47.70
   7   5  -3    2.56    5.27
   7  -5  -3   13.25    8.29
   7   5  -2  109.81   16.58
   7  -5  -2  118.48   18.31
   7   5  -1    6.09    5.96
   7  -5  -1    3.12    7.10
   7   5   0   29.37   10.78
   7  -5   0    3.85    9.10
   7   5   1   52.68   15.46
   7  -5   1   21.75   10.65
   7   5   2  185.46   27.00
   7  -5   2  154.34   24.01
   7  -6 -18  136.50   27.43
   7  -6 -17   18.19   13.79
   7  -6 -16  509.72   48.97
   7   6 -15    4.78    4.94
   7  -6 -15   -5.11    7.96
   7   6 -14  930.42   43.92
   7  -6 -14  991.86   64.15
   7   6 -13   75.91   11.12
   7  -6 -13   67.25   16.56
  -7  -6  13   72.41    9.60
   7   6 -12  763.56   37.74
  -7  -6  12  665.71   31.63
   7  -6 -12  631.80   49.11
  -7  -6  11    5.77    3.69
   7   6 -11   -0.43    4.27
   7  -6 -11    3.59    9.03
   7   6 -10  201.55   18.90
  -7  -6  10  222.83   17.01
   7  -6 -10  205.06   26.60
   7   6  -9   53.38    9.22
  -7  -6   9   56.05    8.82
   7  -6  -9   42.67   14.26
   7   6  -8    2.62    3.99
  -7  -6   8    5.75    4.38
   7  -6  -8   15.34    8.91
   7  -6  -7   -6.12    7.78
   7   6  -7   -0.19    3.75
   7   6  -6  277.86   20.94
   7  -6  -6  288.21   28.86
   7  -6  -5  156.99   20.93
   7   6  -5  149.11   16.21
   7   6  -4 1110.21   50.97
   7  -6  -4 1157.96   59.91
   7   6  -3   25.71    9.44
   7  -6  -3   17.64   10.22
   7  -6  -2 1114.60   60.03
   7   6  -2 1106.85   55.73
   7   6  -1    2.48    7.40
   7  -6  -1  -16.37   10.64
   7  -6   0  694.97   48.18
   7   6   0  577.13   43.25
   7   6   1   22.15   10.81
   7  -6   1   14.69    9.12
   7  -6   2  302.83   33.34
   7   6   2  258.51   31.19
   7  -7 -17    9.55    8.63
   7  -7 -16   10.84   11.73
   7  -7 -15   32.57   12.99
   7   7 -14   34.10    6.93
   7  -7 -14   36.52   14.72
   7   7 -13    9.80    3.81
   7  -7 -13   15.02   10.56
   7   7 -12  823.19   35.17
   7  -7 -12  876.66   58.89
  -7  -7  12  756.44   30.83
   7   7 -11   94.77   11.31
   7  -7 -11   99.79   19.41
  -7  -7  11  106.99   10.32
   7   7 -10 1203.91   48.64
  -7  -7  10 1240.24   42.97
   7  -7  -9   36.94   12.79
   7   7  -9   40.90    8.11
   7  -7  -8 1518.08   76.84
   7   7  -8 1617.92   55.43
   7  -7  -7   58.30   15.73
   7   7  -7   46.17    8.04
   7   7  -6 1590.60   57.74
   7  -7  -6 1601.62   76.60
   7   7  -6 1543.84   65.24
   7   7  -5   15.73    7.15
   7  -7  -5    2.58    6.71
   7   7  -5   12.33    6.29
   7   7  -4  556.75   33.56
   7  -7  -4  467.14   37.62
   7   7  -3   12.64    7.81
   7  -7  -3   10.15    9.86
   7  -7  -2  171.00   23.53
   7   7  -2  176.86   21.30
   7   7  -1   -0.13    7.35
   7  -7  -1    5.13    8.75
   7   7   0   16.55   10.05
   7  -7   0   14.20    9.18
   7   7   1   26.99   11.26
   7  -7   1   17.83    9.68
   7   7   2  160.85   24.80
   7  -7   2  129.73   23.05
   7  -8 -17   19.42   13.32
   7  -8 -16  466.55   47.25
   7  -8 -15   -5.08    8.05
   7  -8 -14  445.50   44.11
   7  -8 -13   40.65   15.06
   7   8 -12  787.20   28.32
   7  -8 -12  971.70   62.54
   7   8 -11   18.24    4.41
   7  -8 -11    9.44   10.91
   7   8 -10  128.25   12.42
   7  -8 -10  125.15   21.73
   7  -8  -9   23.98   11.12
   7   8  -9   64.80    9.03
   7   8  -8    2.80    3.31
   7   8  -8    5.72    4.20
   7  -8  -8   11.91    8.49
   7   8  -7   41.85    7.87
   7  -8  -7   49.85   14.79
   7   8  -6  528.63   29.08
   7  -8  -6  560.68   42.95
   7   8  -6  523.33   33.62
   7  -8  -5  242.77   28.11
   7   8  -5  225.02   19.61
   7   8  -5  237.77   23.88
   7   8  -4  832.95   42.58
   7  -8  -4  880.75   54.00
   7   8  -3   35.38    9.24
   7  -8  -3   35.30   12.23
   7   8  -2 1011.16   53.23
   7  -8  -2 1017.27   59.22
   7   8  -1   31.38   10.92
   7  -8  -1   31.28   12.44
   7  -8   0  874.81   55.52
   7   8   0  763.68   50.55
   7   8   1    9.80    8.19
   7  -8   1   21.79   11.47
   7  -8   2  235.66   30.28
   7   8   2  238.97   30.92
   7  -9 -16   23.28   14.84
   7  -9 -15   18.27   10.67
   7  -9 -14   26.70   12.19
   7  -9 -13   16.49   11.65
   7  -9 -12  804.21   57.42
  -7  -9  12  676.44   39.37
   7  -9 -11   72.08   18.20
  -7  -9  11   79.62   13.08
   7   9 -10 1001.25   33.66
   7  -9 -10  981.26   62.97
  -7  -9  10  978.35   51.08
   7   9 -10  928.71   30.93
   7   9  -9   54.44    7.34
   7  -9  -9   45.08   15.45
   7   9  -9   45.61    7.17
   7  -9  -8  937.86   60.89
   7   9  -8  994.61   37.72
   7   9  -8  922.78   39.69
   7   9  -7   17.07    5.16
   7  -9  -7   16.67   11.55
   7   9  -6 1354.17   50.76
   7  -9  -6 1329.71   71.94
   7   9  -6 1331.95   57.69
   7   9  -5   26.76    7.56
   7   9  -5   35.31    8.16
   7   9  -4  350.35   26.04
   7  -9  -4  337.09   33.61
   7   9  -3   27.75    8.39
   7  -9  -3   19.51    9.69
   7   9  -2   99.28   16.32
   7  -9  -2   67.62   14.93
   7   9  -1   35.75   10.82
   7  -9  -1   45.44   13.81
   7   9   0   68.20   15.41
   7  -9   0   83.99   18.15
   7   9   1   16.14    9.43
   7  -9   1   61.64   15.85
   7   9   2   72.78   17.86
   7  -9   2   91.42   19.99
   7 -10 -16  442.45   47.28
   7 -10 -15   -4.19    9.09
   7 -10 -14  388.25   41.93
   7 -10 -13    2.49   10.07
   7 -10 -12  547.78   48.33
   7 -10 -11   71.38   17.61
   7 -10 -10   84.39   19.14
   7  10  -9  116.02    9.11
   7  10  -9  116.01    9.75
   7 -10  -9   98.05   20.49
   7  10  -8   37.99    6.06
   7  10  -8   31.25    6.24
   7 -10  -7  146.24   23.54
   7  10  -7  170.10   13.88
   7  10  -7  163.44   16.46
   7  10  -6  388.51   23.60
   7 -10  -6  390.76   37.80
   7  10  -6  379.02   27.87
   7 -10  -5   37.77   12.61
   7  10  -5   64.30   13.10
   7  10  -5   60.20   10.25
   7  10  -4  690.28   37.93
   7 -10  -4  688.22   49.79
   7 -10  -3   -0.70    7.50
   7  10  -3   11.45    6.69
   7  10  -2  606.62   39.93
   7 -10  -2  542.16   44.00
   7  10  -1   68.00   14.22
   7 -10  -1   75.72   17.14
   7  10   0  624.09   45.21
   7 -10   0  613.14   47.58
   7  10   1   20.21   11.33
   7 -10   1    6.04    8.47
   7 -11 -15   26.45   13.36
   7 -11 -14   77.97   20.08
   7 -11 -13  123.32   24.87
   7 -11 -12  369.41   40.26
   7 -11 -11    5.14    9.00
   7 -11 -10  639.37   51.20
   7 -11  -9   12.90    8.10
   7 -11  -8  907.20   62.39
   7  11  -8  987.58   34.32
   7  11  -7   23.19    5.27
   7 -11  -7    9.57    8.62
   7  11  -6 1003.73   40.80
   7 -11  -6  973.56   62.86
   7 -11  -5   87.98   18.74
   7  11  -5   77.96   11.32
   7 -11  -4  191.69   27.30
   7  11  -4  238.65   21.07
   7 -11  -3   70.01   16.58
   7  11  -3   71.79   12.76
   7 -11  -2   -7.30    9.73
   7  11  -2    1.45    5.61
   7 -11  -1   32.62   12.60
   7  11  -1   66.94   14.35
   7 -11   0   18.83   10.82
   7  11   0   12.52    8.58
   7 -11   1   25.40   12.97
   7  11   1    4.75    8.43
   7 -12 -14  465.02   48.01
   7 -12 -13   -0.15   10.56
   7 -12 -12  280.53   35.39
   7 -12 -11   86.95   19.64
   7 -12 -10  155.12   25.88
   7 -12  -9   53.34   15.79
   7 -12  -8   36.09   13.74
   7 -12  -7  220.68   29.96
   7  12  -7  201.55   13.75
   7  12  -6  134.15   12.78
   7 -12  -6  108.65   21.89
   7  12  -5   26.91    6.84
   7 -12  -5   17.42   11.71
   7  12  -4  543.00   32.70
   7 -12  -4  476.56   43.54
   7 -12  -3  100.45   20.67
   7  12  -3  104.78   15.04
   7  12  -2  458.02   34.10
   7 -12  -2  458.06   42.16
   7 -12  -1   -5.87    8.23
   7  12  -1   24.71   10.02
   7 -12   0  228.47   30.04
   7  12   0  250.30   28.89
   7  12   1   -7.77    8.02
   7 -13 -13  144.80   26.81
   7 -13 -12  131.24   26.13
   7 -13 -11   23.14   14.41
   7 -13 -10  564.65   49.01
   7 -13  -9   33.60   13.84
   7 -13  -8  881.53   62.51
   7 -13  -7   -5.61    9.23
   7 -13  -6  317.04   36.42
   7  13  -5   11.26    4.57
   7 -13  -5   12.76    8.92
   7  13  -4  264.70   22.33
   7 -13  -4  266.62   32.99
   7 -13  -3   18.12   10.60
   7  13  -3   28.19    8.34
   7 -13  -2  -18.36   10.21
   7  13  -2   -0.27    4.88
   7 -13  -1   20.41   11.93
   7  13  -1   44.89   11.80
   7 -13   0    9.10    8.50
   7  13   0    6.81    7.34
   7  13   1   26.73   11.19
   7 -14 -12  200.12   31.11
   7 -14 -11   50.54   16.88
   7 -14 -10   46.91   15.13
   7 -14  -9   73.28   18.21
   7 -14  -8   16.62   11.91
   7 -14  -7   78.55   19.46
   7 -14  -6   92.33   20.77
   7 -14  -5  104.79   21.42
   7 -14  -4  319.44   37.15
   7 -14  -3   91.32   20.71
   7  14  -2  444.83   33.95
   7 -14  -2  447.44   43.90
   7 -14  -1   19.89   11.24
   7  14  -1    1.11    5.36
   7  14   0  173.60   23.30
   7 -15 -11  110.01   22.75
   7 -15 -10  467.11   45.96
   7 -15  -9    9.25    7.55
   7 -15  -8  408.87   42.97
   7 -15  -7   13.73    8.36
   7 -15  -6  296.29   36.67
   7 -15  -5   13.78   10.50
   7 -15  -4  128.31   24.61
   7 -15  -3   31.93   11.82
   7 -15  -2   17.90    9.79
   7 -16 -10   33.09   13.43
   7 -16  -9  130.73   24.64
   7 -16  -8   10.33    8.58
   7 -16  -7   66.78   17.90
   7 -16  -6   59.04   17.63
   7 -16  -5  118.78   23.42
   7 -16  -4  182.17   28.89
   7 -16  -3   47.77   15.06
   7 -17  -7   -5.58    9.52
   7 -17  -6  231.86   32.86
   7 -17  -5    2.88    7.58
   8   0 -20  106.17   22.40
   8   0 -19   -5.68    9.27
   8   0 -18   29.32   12.68
   8   0 -17   -7.00    8.86
   8   0 -16   11.74    8.60
   8   0 -15   -5.33    7.07
   8   0 -14  380.44   34.28
   8   0 -13   12.39    6.37
   8   0 -12 1250.51   64.73
   8   0 -11   -4.43    5.35
   8   0 -10 1398.81   64.87
   8   0  -9   -8.69    8.16
   8   0  -8 2502.72   89.96
   8   0  -7    4.34    6.81
   8   0  -6 1635.27   68.71
   8   0  -5  -14.95    8.07
   8   0  -4   79.65   15.41
   8   0  -3   -5.32    7.44
   8   0  -2    1.78    8.70
   8   0  -1   -3.16    9.15
   8   0   0  155.68   24.60
   8   0   1   17.45   10.62
   8   1 -20  124.18   24.36
   8  -1 -20   72.32   18.75
   8   1 -19    9.55    9.72
   8  -1 -19  -17.48   13.63
   8   1 -18  731.58   54.05
   8  -1 -18  585.18   50.76
   8   1 -17    9.50    9.11
   8  -1 -17   47.06   14.53
   8   1 -16  809.85   53.35
   8  -1 -16  848.52   56.37
   8   1 -15    6.98    8.89
   8  -1 -15   28.91   12.06
   8   1 -14 1074.88   58.58
   8  -1 -14 1007.39   59.14
   8   1 -13   12.83    8.81
   8  -1 -13    0.33    7.50
  -8  -1  12  622.74   40.68
   8   1 -12  534.50   40.25
   8  -1 -12  592.66   43.04
  -8  -1  11   55.71   12.58
   8  -1 -11   42.75   11.76
   8   1 -11   44.65   12.46
  -8  -1  10  153.16   20.10
   8   1 -10  189.39   21.73
   8  -1 -10  152.30   20.61
   8  -1  -9   -3.16    8.95
  -8  -1   9   10.28    7.93
   8   1  -9    5.70    5.52
   8  -1  -8  132.02   18.05
   8   1  -8  136.58   17.40
   8  -1  -7   46.34   11.29
   8   1  -7   37.77   10.28
   8   1  -6  692.16   41.49
   8  -1  -6  827.24   45.94
   8  -1  -5    0.11    7.09
   8   1  -5    5.93    7.26
   8  -1  -4  663.91   43.17
   8   1  -4  708.70   43.73
   8  -1  -3    4.18    6.60
   8   1  -3  -11.08    8.05
   8  -1  -2 1028.74   59.00
   8   1  -2 1023.51   58.25
   8  -1  -1   -5.53    8.06
   8   1  -1   -2.02    7.84
   8  -1   0  475.92   42.03
   8   1   0  436.23   39.67
   8  -1   1   10.36    9.60
   8   1   1    0.55    9.13
   8  -2 -20   94.70   22.87
   8   2 -19   -1.52    8.28
   8  -2 -19   -4.21    8.58
   8   2 -18   27.70   11.89
   8  -2 -18   38.28   14.24
   8   2 -17   13.33    9.50
   8  -2 -17   31.80   12.20
   8   2 -16   -1.40    7.47
   8  -2 -16    6.62    7.09
   8   2 -15   35.10   12.03
   8  -2 -15   29.43   11.33
   8   2 -14  318.58   30.03
   8  -2 -14  321.03   32.89
  -8  -2  14  333.99   28.21
  -8  -2  13  104.24   15.18
   8   2 -13   77.99   14.66
   8  -2 -13   81.93   16.51
  -8  -2  12 1101.41   54.92
   8   2 -12 1088.46   58.20
   8  -2 -12 1067.78   60.69
  -8  -2  11  124.57   17.16
   8  -2 -11  109.47   18.39
   8   2 -11   99.01   16.06
  -8  -2  10 1356.57   61.87
   8  -2 -10 1273.22   64.25
   8   2 -10 1354.96   60.67
   8  -2  -9   24.12    9.26
   8   2  -9   17.79    6.64
  -8  -2   9   17.25    7.50
  -8  -2   8 1819.73   76.45
   8  -2  -8 1849.15   77.15
   8   2  -8 1853.01   71.05
   8  -2  -7   -3.68    6.52
   8   2  -7   -5.25    6.54
   8   2  -6  895.70   46.69
   8  -2  -6  922.16   50.21
   8  -2  -5   11.98    8.45
   8   2  -5   -2.49    7.71
   8   2  -4  213.98   23.28
   8  -2  -4  202.87   23.77
   8  -2  -3   12.30    8.89
   8   2  -3   22.09    9.38
   8  -2  -2    7.40    9.93
   8   2  -2    0.37    7.29
   8  -2  -1   19.84   10.23
   8   2  -1    7.75    6.77
   8   2   0   68.12   16.57
   8  -2   0   85.61   18.44
   8   2   1   -2.19    8.58
   8  -2   1   15.32    9.72
   8  -3 -19   12.74   10.39
   8   3 -18  275.29   31.39
   8  -3 -18  357.67   39.31
   8   3 -17   14.49    8.88
   8  -3 -17   31.41   13.51
   8   3 -16  833.13   51.91
   8  -3 -16  878.33   58.83
   8   3 -15   -1.69    6.70
   8  -3 -15   21.39   12.04
  -8  -3  14  861.93   45.58
   8   3 -14  890.24   50.41
   8  -3 -14  958.83   59.08
   8   3 -13   -2.20    5.46
  -8  -3  13   11.61    5.97
   8  -3 -13   -4.11    8.12
  -8  -3  12  457.21   32.41
   8   3 -12  414.52   33.07
   8  -3 -12  418.16   37.52
   8  -3 -11   69.19   15.08
   8   3 -11   80.82   14.45
  -8  -3  11   85.62   14.47
   8   3 -10   92.79   15.15
  -8  -3  10  115.56   15.91
   8  -3 -10  127.97   20.04
   8  -3  -9   48.20   13.54
   8   3  -9   75.74   12.99
  -8  -3   9   83.09   13.96
   8  -3  -8   86.04   15.33
   8   3  -8   81.45   12.99
  -8  -3   8   43.18   10.28
   8  -3  -7   51.38   11.31
   8   3  -7   52.80   10.57
   8   3  -6  335.64   26.72
   8  -3  -6  360.09   30.77
   8  -3  -5   23.71   10.56
   8   3  -5   21.63    8.65
   8  -3  -4 1097.69   58.41
   8   3  -4  999.11   53.36
   8  -3  -3   60.30   14.88
   8   3  -3   65.11   14.42
   8  -3  -2  715.27   49.25
   8   3  -2  733.66   48.05
   8   3  -1  -10.32    8.90
   8  -3  -1   -2.22    8.80
   8  -3   0  328.03   35.18
   8   3   0  376.39   36.41
   8   3   1   -3.99    9.76
   8  -3   1    6.76   10.24
   8  -4 -19    7.35    9.29
   8  -4 -18   41.17   15.22
   8   4 -17    2.01    5.62
   8  -4 -17    8.64   10.29
   8   4 -16    4.46    7.86
   8  -4 -16    5.20   10.92
   8   4 -15   12.04    8.00
   8  -4 -15    8.59    9.24
  -8  -4  14  186.12   19.03
   8   4 -14  226.63   23.24
   8  -4 -14  249.37   30.29
   8   4 -13   20.21    8.92
   8  -4 -13    8.18    7.61
  -8  -4  13   22.90    6.98
  -8  -4  12  550.88   34.15
   8   4 -12  613.43   39.21
   8  -4 -12  581.50   44.51
  -8  -4  11    9.17    5.77
   8  -4 -11   10.72    8.58
   8   4 -11   13.37    7.62
   8  -4 -10 1611.17   77.91
  -8  -4  10 1768.08   69.35
   8   4 -10 1787.18   68.75
   8  -4  -9   19.48    9.56
   8   4  -9   -0.14    5.23
  -8  -4   9   10.07    4.43
   8  -4  -8 1119.10   60.73
   8   4  -8 1169.14   51.14
  -8  -4   8 1209.63   56.69
   8  -4  -7    3.84    8.43
   8   4  -7   13.19    6.69
  -8  -4   7   10.81    5.09
   8   4  -6  531.42   33.77
   8  -4  -6  524.86   38.91
   8  -4  -5   19.43   10.81
   8   4  -5   -8.41    8.43
   8  -4  -4  315.84   30.96
   8   4  -4  289.16   27.09
   8  -4  -3   12.86    8.78
   8   4  -3   -9.85    8.41
   8  -4  -2   -8.72    9.37
   8   4  -2   -0.77    6.39
   8   4  -1    0.30    7.13
   8  -4  -1    0.86    8.10
   8   4   0   35.85   12.75
   8  -4   0   33.51   14.87
   8   4   1    4.45    9.38
   8  -5 -19   -0.54    8.10
   8  -5 -18  214.17   31.71
   8  -5 -17   -4.79    6.87
   8   5 -16  900.30   49.48
   8  -5 -16  890.94   61.06
   8   5 -15    0.47    4.38
   8  -5 -15    9.04   10.11
   8   5 -14  730.04   41.67
   8  -5 -14  691.26   51.63
   8   5 -13    7.13    4.42
   8  -5 -13   -4.13    9.12
  -8  -5  13    4.66    4.04
   8   5 -12  361.08   28.17
  -8  -5  12  391.93   26.71
   8  -5 -12  306.71   32.76
  -8  -5  11   26.25    7.03
   8  -5 -11   13.84    8.35
   8   5 -11   24.29    7.43
   8   5 -10   49.87   10.60
  -8  -5  10   42.20    9.18
   8  -5 -10   52.30   15.17
   8   5  -9    8.13    5.33
  -8  -5   9   -0.46    4.29
   8  -5  -8  103.07   18.72
   8   5  -8  104.18   13.73
  -8  -5   8  103.24   14.78
   8  -5  -7   26.17    9.00
   8   5  -7   32.54    8.79
   8   5  -6  401.67   28.82
   8  -5  -6  425.16   35.53
   8  -5  -5   84.47   16.44
   8   5  -5   74.30   13.42
   8   5  -4 1007.63   52.75
   8  -5  -4 1049.32   59.33
   8  -5  -3    0.68    7.83
   8   5  -3   -2.90    5.99
   8  -5  -2  701.95   49.34
   8   5  -2  646.85   44.75
   8   5  -1    6.64    8.30
   8  -5  -1   18.96   11.28
   8  -5   0  350.28   36.25
   8   5   0  348.37   35.51
   8  -6 -18   49.75   17.68
   8  -6 -17   -4.30    8.37
   8  -6 -16   26.68   13.48
   8   6 -15   11.66    6.50
   8  -6 -15   30.62   14.62
   8   6 -14  232.67   21.40
   8  -6 -14  298.19   33.57
   8   6 -13   -5.21    5.03
   8  -6 -13    3.03    7.38
   8   6 -12  747.24   39.61
   8  -6 -12  648.49   48.67
  -8  -6  12  674.04   34.63
  -8  -6  11  138.71   15.06
   8  -6 -11  166.50   24.04
   8   6 -11  119.84   15.75
   8  -6 -10 1458.42   76.88
   8   6 -10 1649.38   62.47
  -8  -6  10 1600.62   60.72
   8   6  -9    5.67    5.16
  -8  -6   9    9.79    5.06
   8  -6  -9   -1.44    7.88
   8  -6  -8 1202.46   66.79
   8   6  -8 1214.22   50.68
   8  -6  -7   -7.90    9.08
   8   6  -7    2.00    4.58
   8   6  -6  579.35   34.96
   8  -6  -6  596.23   43.95
   8  -6  -5    1.14    6.76
   8   6  -5   -0.50    5.63
   8  -6  -4  174.67   23.86
   8   6  -4  149.27   19.29
   8   6  -3   25.15    9.28
   8  -6  -3   27.63   12.08
   8   6  -2    3.76    6.87
   8  -6  -2   -0.79    7.83
   8   6  -1   21.42    8.45
   8  -6  -1   -7.09   10.41
   8   6   0   83.57   17.17
   8  -6   0   90.46   19.50
   8  -7 -18  333.68   39.90
   8  -7 -17    6.26   10.61
   8  -7 -16  407.93   41.45
   8  -7 -15   17.12   12.08
   8   7 -14  721.56   35.35
   8  -7 -14  768.50   55.81
   8   7 -13   27.89    6.83
   8  -7 -13   26.43   11.27
   8   7 -12  410.23   26.58
   8  -7 -12  462.92   40.96
  -8  -7  11    7.85    3.25
   8  -7 -11    8.20    7.12
   8   7 -11   10.61    5.38
  -8  -7  10   11.01    4.88
   8  -7 -10   16.56    9.50
   8   7 -10   10.21    5.37
   8   7  -9   28.31    7.62
   8  -7  -9   21.25    9.46
   8  -7  -8   89.82   19.19
   8   7  -8   71.72   10.86
   8  -7  -7   18.47    8.64
   8   7  -7   28.60    7.32
   8   7  -6  624.25   36.38
   8  -7  -6  680.77   48.62
   8  -7  -5  174.20   24.26
   8   7  -5  162.44   18.69
   8   7  -4  735.30   44.05
   8  -7  -4  835.13   53.76
   8   7  -3   -0.45    6.12
   8  -7  -3    5.06    8.31
   8   7  -2  507.65   39.81
   8  -7  -2  591.70   46.18
   8   7  -1    0.46    6.40
   8  -7  -1   20.07   10.07
   8  -7   0  268.57   32.35
   8   7   0  329.70   34.45
   8  -8 -17    7.36   11.02
   8  -8 -16    0.34    8.49
   8  -8 -15   33.73   12.84
   8  -8 -14  258.66   32.66
   8  -8 -13   34.04   13.26
   8   8 -12 1112.47   43.64
   8  -8 -12 1076.95   65.76
   8   8 -11  112.45   13.26
   8  -8 -11  107.53   20.10
   8  -8 -10  784.18   55.49
   8   8 -10  783.83   37.54
   8   8  -9    7.76    3.81
   8  -8  -9   23.46   12.02
   8  -8  -8  926.91   60.08
   8   8  -8  977.84   42.08
   8   8  -8  878.67   46.91
   8   8  -7    2.98    3.89
   8  -8  -7   -4.02   10.88
   8   8  -7    6.34    4.80
   8   8  -6  530.62   32.49
   8  -8  -6  532.60   44.00
   8  -8  -5   -5.28    9.73
   8   8  -5   26.58    8.54
   8  -8  -4  126.33   21.47
   8   8  -4  151.26   19.25
   8   8  -3    7.65    6.36
   8  -8  -3   43.80   13.77
   8   8  -2   -4.40    8.07
   8  -8  -2    6.84   10.39
   8   8  -1   34.46   13.83
   8  -8  -1   41.84   14.22
   8   8   0   80.44   16.81
   8  -9 -16  339.71   39.10
   8  -9 -15   22.41   14.69
   8  -9 -14  504.92   46.01
   8  -9 -13   59.63   17.06
   8  -9 -12  376.16   38.68
   8   9 -11   53.49    8.02
   8  -9 -11   54.99   15.35
   8  -9 -10   20.71   10.26
   8   9 -10   23.74    5.87
   8   9  -9   51.17    8.39
   8  -9  -9   73.45   16.66
   8   9  -8  104.92   12.34
   8  -9  -8   96.76   20.39
   8  -9  -7  131.06   22.44
   8   9  -7  130.26   14.62
   8   9  -7  150.05   19.14
   8   9  -6  501.05   31.14
   8  -9  -6  494.26   43.15
   8  -9  -5   34.00   12.01
   8   9  -5   32.10    8.68
   8   9  -4  310.09   27.08
   8  -9  -4  311.22   34.10
   8   9  -3    5.78    7.34
   8  -9  -3   17.05    8.67
   8   9  -2  520.61   40.55
   8  -9  -2  608.08   47.69
   8   9  -1    8.49    8.09
   8  -9  -1   -1.69    7.47
   8   9   0  243.29   29.96
   8 -10 -16    7.36    9.14
   8 -10 -15   33.83   14.69
   8 -10 -14  194.78   29.03
   8 -10 -13   38.04   14.24
   8 -10 -12  529.46   46.16
   8 -10 -11    2.12    9.45
   8 -10 -10  615.58   50.56
   8  10  -9   42.25    7.39
   8 -10  -9   57.54   17.02
   8 -10  -8  735.62   55.82
   8  10  -8  805.87   35.86
   8  10  -7   -0.35    4.01
   8 -10  -7   24.59   13.98
   8  10  -6  549.24   32.29
   8 -10  -6  529.80   46.20
   8 -10  -5   71.45   17.00
   8  10  -5   65.59   12.30
   8 -10  -4   39.96   13.96
   8  10  -4   48.48   10.98
   8  10  -3   42.16   11.45
   8 -10  -3   42.28   14.21
   8  10  -2    0.51    7.45
   8 -10  -2    8.86   10.11
   8  10  -1   27.33   10.99
   8 -10  -1   33.19   12.41
   8  10   0   47.51   14.94
   8 -11 -15   18.06   10.50
   8 -11 -14  348.03   38.48
   8 -11 -13    8.63    9.09
   8 -11 -12  145.81   24.82
   8 -11 -11   51.62   15.62
   8 -11 -10   14.34   10.74
   8 -11  -9   92.40   20.26
   8 -11  -8   39.47   13.83
   8  11  -7  105.17   12.40
   8 -11  -7  105.92   20.76
   8  11  -6  235.62   20.37
   8 -11  -6  251.17   32.39
   8 -11  -5   -1.76   10.74
   8  11  -5    3.83    5.51
   8  11  -4  458.18   33.04
   8 -11  -4  473.46   43.52
   8  11  -3   47.99   12.21
   8 -11  -3   23.30   11.59
   8  11  -2  288.31   29.37
   8 -11  -2  324.59   36.14
   8  11  -1   -5.70    6.03
   8 -12 -14  106.38   22.75
   8 -12 -13   57.35   18.36
   8 -12 -12  190.57   28.72
   8 -12 -11   23.73   12.79
   8 -12 -10  689.47   55.09
   8 -12  -9   54.12   16.35
   8 -12  -8  535.83   48.03
   8 -12  -7  -12.12   10.60
   8 -12  -6  367.25   39.53
   8 -12  -5   12.37   10.04
   8  12  -5    8.84    4.84
   8  12  -4   29.07    8.90
   8 -12  -4   26.68   12.19
   8  12  -3   39.92   11.03
   8 -12  -3   37.99   13.71
   8  12  -2    3.54    7.04
   8  12  -1   24.67    9.62
   8 -13 -13   16.63   11.02
   8 -13 -12   85.83   20.46
   8 -13 -11   61.84   17.38
   8 -13 -10    6.64    9.99
   8 -13  -9  146.62   26.23
   8 -13  -8   49.74   14.93
   8 -13  -7   48.69   15.04
   8 -13  -6  150.41   25.99
   8 -13  -5   30.09   13.48
   8 -13  -4  487.94   47.01
   8 -13  -3   37.03   14.89
   8  13  -2  240.14   26.65
   8 -14 -11   19.03   11.27
   8 -14 -10  496.21   47.05
   8 -14  -9   -5.04    8.10
   8 -14  -8  291.81   36.65
   8 -14  -7    4.01    7.75
   8 -14  -6  115.84   23.23
   8 -14  -5   15.59   11.08
   8 -15  -9   92.05   21.68
   8 -15  -8   28.24   11.93
   8 -15  -7   51.31   16.60
   8 -15  -6  144.96   26.26
   9   0 -20  180.23   28.02
   9   0 -19    3.18    7.72
   9   0 -18  628.62   48.12
   9   0 -17   -0.58    6.64
   9   0 -16  294.03   30.71
   9   0 -15   -5.71    8.22
   9   0 -14  493.37   39.49
   9   0 -13   -7.89    7.39
   9   0 -12   11.47    8.89
   9   0 -11    3.71    6.21
   9   0 -10   -9.96    9.34
   9   0  -9   -6.44    7.94
   9   0  -8  541.13   37.95
   9   0  -7    5.66    8.54
   9   0  -6  696.26   45.19
   9   0  -5   -3.52    9.04
   9   0  -4  790.07   51.18
   9   0  -3   13.22    7.20
   9   0  -2  586.02   46.29
   9   0  -1  -13.01    9.32
   9  -1 -20   53.18   15.93
   9   1 -19    1.66    7.87
   9  -1 -19   12.15    9.43
   9   1 -18    0.65    6.16
   9  -1 -18    9.95   10.83
   9   1 -17    8.60    8.17
   9  -1 -17    2.51    7.23
   9   1 -16   45.27   12.18
   9  -1 -16   83.67   16.59
   9   1 -15   -6.66    7.57
   9  -1 -15   -2.82    7.14
   9   1 -14  835.88   51.27
   9  -1 -14  764.54   50.60
   9   1 -13   -5.67    7.31
   9  -1 -13   -6.04    9.94
   9  -1 -12 1050.66   59.99
   9   1 -12 1131.03   58.96
   9  -1 -11   32.97   11.18
   9   1 -11   36.71   11.93
   9  -1 -10 1024.45   57.03
   9   1 -10 1040.16   54.92
   9  -1  -9   -7.93    9.00
   9   1  -9   -2.35    7.45
   9  -1  -8 1515.14   70.09
   9   1  -8 1593.39   69.23
   9  -1  -7   10.21    8.06
   9   1  -7   10.81    7.16
   9   1  -6  282.43   27.52
   9  -1  -6  231.41   26.40
   9  -1  -5   -3.14    7.17
   9   1  -5    1.87    7.70
   9  -1  -4   69.19   16.21
   9   1  -4   52.14   13.83
   9  -1  -3    6.54    8.90
   9   1  -3  -12.34    8.97
   9  -1  -2   74.09   18.24
   9   1  -2   40.31   13.60
   9   1  -1    3.80    6.51
   9  -2 -20  182.78   28.16
   9   2 -19  -13.05    8.75
   9  -2 -19   30.68   13.53
   9   2 -18  444.26   38.89
   9  -2 -18  455.63   43.24
   9   2 -17    9.26    8.69
   9  -2 -17   -0.95    9.61
   9   2 -16  559.42   41.35
   9  -2 -16  563.64   44.80
   9   2 -15   19.23    8.00
   9  -2 -15   21.13    8.95
   9   2 -14  572.51   40.89
   9  -2 -14  492.27   40.50
   9   2 -13  -10.76    8.25
   9  -2 -13   -5.51    8.28
   9  -2 -12   58.56   14.21
   9   2 -12  106.85   17.46
   9  -2 -11   25.94   10.12
   9   2 -11   37.23   10.83
   9  -2 -10   13.62   10.39
   9   2 -10   18.89    7.52
   9  -2  -9    0.36    9.89
   9   2  -9   14.13    7.79
   9  -2  -8  335.74   31.06
   9   2  -8  316.51   27.41
   9  -2  -7   25.07   11.18
   9   2  -7   25.14   10.11
   9   2  -6  881.78   50.11
   9  -2  -6  826.49   51.02
   9  -2  -5   18.15   10.79
   9   2  -5   14.56    8.67
   9  -2  -4  771.39   51.69
   9   2  -4  739.99   48.17
   9  -2  -3   17.29    8.79
   9   2  -3   17.42    9.50
   9  -2  -2  510.06   43.98
   9   2  -2  463.68   40.88
   9   2  -1    7.05    9.39
   9  -3 -20   27.02   13.22
   9  -3 -19   -2.89    8.06
   9   3 -18    2.34    7.24
   9  -3 -18   10.33   10.49
   9   3 -17    6.17    9.37
   9  -3 -17    1.44    8.05
   9   3 -16  141.19   19.81
   9  -3 -16  132.11   21.78
   9   3 -15   20.22    8.58
   9  -3 -15   27.00   10.39
   9   3 -14  603.03   40.68
   9  -3 -14  507.26   41.66
   9   3 -13   -7.87    8.30
   9  -3 -13    8.77    8.18
   9  -3 -12 1152.63   64.60
   9   3 -12 1155.74   57.78
   9  -3 -11    3.49    7.45
   9   3 -11    6.21    5.33
   9  -3 -10 1754.74   81.39
   9   3 -10 1802.74   73.31
   9  -3  -9   -6.77    9.14
   9   3  -9    7.16    6.14
   9  -3  -8  828.18   52.32
   9   3  -8  898.54   47.67
   9  -3  -7   -0.64    7.49
   9   3  -7    5.83    6.96
   9   3  -6  493.81   36.48
   9  -3  -6  582.94   42.70
   9  -3  -5   28.27   11.71
   9   3  -5   17.30    8.32
   9  -3  -4  102.60   19.65
   9   3  -4   43.10   13.15
   9  -3  -3   12.14    8.88
   9   3  -3    4.80    8.99
   9  -3  -2    3.99   10.57
   9   3  -2  -12.41    9.39
   9   3  -1   -5.06    9.18
   9  -4 -19    3.42   10.69
   9  -4 -18  370.76   39.10
   9   4 -17    3.69    5.31
   9  -4 -17   -9.51    7.42
   9   4 -16  884.00   50.33
   9  -4 -16  907.04   59.50
   9   4 -15   -8.98    7.01
   9  -4 -15    0.71    7.51
   9   4 -14  346.62   29.51
   9  -4 -14  299.77   32.27
   9   4 -13    3.81    4.97
   9  -4 -13   -5.21    6.35
  -9  -4  12  205.50   22.25
   9   4 -12  177.78   20.94
   9  -4 -12  201.46   26.48
  -9  -4  11   31.40    8.12
   9  -4 -11   14.40    9.32
   9   4 -11   29.89    9.62
   9   4 -10   49.80   11.50
   9  -4 -10   66.57   15.82
   9  -4  -9   44.07   12.41
   9   4  -9   48.67   11.05
   9  -4  -8  224.27   26.46
   9   4  -8  203.11   21.53
   9  -4  -7    7.50    9.51
   9   4  -7   -4.12    6.24
   9   4  -6  715.93   43.93
   9  -4  -6  782.17   50.89
   9  -4  -5   20.13   10.31
   9   4  -5   24.75   10.41
   9   4  -4  847.62   51.71
   9  -4  -4  804.92   53.65
   9  -4  -3   -0.89    8.80
   9   4  -3   20.33   10.36
   9  -4  -2  418.65   39.98
   9   4  -2  367.45   36.06
   9  -5 -19   20.72   11.15
   9  -5 -18    0.71    7.63
   9  -5 -17   11.85    8.19
   9   5 -16  136.26   17.78
   9  -5 -16  165.09   25.54
   9   5 -15    8.81    7.45
   9  -5 -15    0.06    8.15
   9   5 -14  414.67   31.14
   9  -5 -14  362.20   35.89
   9   5 -13   32.96    9.75
   9  -5 -13   36.09   11.60
   9  -5 -12  854.55   56.20
   9   5 -12  787.72   45.14
  -9  -5  12  833.10   44.76
  -9  -5  11   16.06    6.40
   9  -5 -11   14.97    9.27
   9   5 -11   31.57    9.15
   9  -5 -10 1730.85   84.32
   9   5 -10 1838.84   71.47
  -9  -5  10 1740.82   72.75
   9  -5  -9    6.02    8.46
   9   5  -9   11.94    7.26
   9  -5  -8  795.49   52.60
   9   5  -8  774.88   42.66
   9  -5  -7   -2.34    9.34
   9   5  -7    1.49    5.00
   9   5  -6  393.64   31.36
   9  -5  -6  403.25   36.74
   9  -5  -5   51.82   15.04
   9   5  -5   55.79   12.84
   9  -5  -4   36.30   13.38
   9   5  -4   19.31   10.46
   9  -5  -3   26.09   13.30
   9   5  -3   22.10   10.64
   9  -5  -2   16.55   12.00
   9   5  -2    3.25    7.29
   9  -6 -18  241.11   32.55
   9  -6 -17   -7.74    7.07
   9  -6 -16  508.00   44.73
   9  -6 -15   17.29   10.06
   9   6 -14  276.10   24.00
   9  -6 -14  281.49   32.53
   9   6 -13   10.04    5.84
   9  -6 -13   12.70    8.98
   9  -6 -12   56.13   14.70
   9   6 -12   81.80   14.04
   9  -6 -11   41.20   13.39
   9   6 -11   54.41   10.93
   9   6 -10   34.48    9.00
   9  -6 -10   35.13   13.47
   9  -6  -9   15.81   10.44
   9   6  -9   14.27    6.50
   9  -6  -8  210.63   27.48
   9   6  -8  196.69   20.43
   9  -6  -7   85.76   18.16
   9   6  -7   69.08   12.86
   9   6  -6  547.30   37.34
   9  -6  -6  582.28   45.80
   9  -6  -5   56.19   16.23
   9   6  -5   38.74   10.93
   9   6  -4  646.26   44.59
   9  -6  -4  651.37   49.22
   9  -6  -3    9.34    8.46
   9   6  -3    3.97    7.49
   9   6  -2  296.05   31.93
   9  -7 -17   35.12   13.75
   9  -7 -16  102.30   20.22
   9  -7 -15   -2.30    9.39
   9  -7 -14  335.58   35.71
   9   7 -13   45.04    9.74
   9  -7 -13   54.02   16.26
   9  -7 -12  779.71   55.44
   9   7 -12  810.39   43.32
   9  -7 -11   12.61    9.96
   9   7 -11   10.11    5.60
   9  -7 -10  889.15   59.92
   9   7 -10  914.60   44.78
   9  -7  -9   48.72   14.53
   9   7  -9   27.07    8.45
   9  -7  -8  577.57   47.05
   9   7  -8  589.24   35.37
   9  -7  -7  -14.54   13.80
   9   7  -7  -11.26    6.40
   9   7  -6  255.05   24.62
   9  -7  -6  341.60   35.78
   9  -7  -5   27.29   12.56
   9   7  -5   14.92    8.67
   9  -7  -4   57.72   16.20
   9   7  -4   29.49   10.48
   9  -7  -3    7.33    8.24
   9   7  -3    1.62    7.00
   9   7  -2   29.26   12.18
   9  -8 -17   14.62   11.38
   9  -8 -16  271.97   32.91
   9  -8 -15   31.46   12.78
   9  -8 -14  317.91   35.55
   9  -8 -13   24.04   11.45
   9   8 -12   76.56   12.05
   9  -8 -12   46.60   15.94
   9  -8 -11   18.64   11.74
   9   8 -11   24.40    6.21
   9   8 -10   12.53    5.96
   9  -8 -10    4.58    9.39
   9   8  -9   40.69    9.34
   9  -8  -9   67.67   15.89
   9  -8  -8  429.27   41.49
   9   8  -8  403.78   28.31
   9  -8  -7   84.10   19.33
   9   8  -7   80.65   13.02
   9   8  -6  468.36   33.67
   9  -8  -6  506.06   44.77
   9  -8  -5   12.44    8.65
   9   8  -5   21.69    7.17
   9   8  -4  309.55   30.07
   9  -8  -4  312.75   35.06
   9  -8  -3    2.74    8.35
   9   8  -3   15.69    9.26
   9   8  -2  344.27   34.76
   9  -9 -16   63.19   17.51
   9  -9 -15    2.37    9.73
   9  -9 -14  462.60   42.77
   9  -9 -13   15.78   11.22
   9  -9 -12  607.97   50.49
   9  -9 -11    2.94    9.96
   9  -9 -10  488.00   45.29
   9   9 -10  452.87   28.49
   9   9  -9   -6.80    5.14
   9  -9  -9    3.34    8.66
   9  -9  -8  678.30   53.68
   9   9  -8  625.54   35.59
   9  -9  -7   25.14   13.07
   9   9  -7   30.07    8.91
   9  -9  -6  163.09   26.21
   9   9  -6  180.13   20.33
   9  -9  -5    8.53    8.01
   9   9  -5   28.51    9.38
   9  -9  -4   22.23   12.12
   9   9  -4   16.63    8.49
   9   9  -3   27.23    9.51
   9   9  -2   11.81    8.86
   9 -10 -15    5.16    9.29
   9 -10 -14  224.04   30.37
   9 -10 -13   59.55   17.39
   9 -10 -12   15.67   10.67
   9 -10 -11    1.65    8.40
   9 -10 -10    6.18    9.02
   9 -10  -9  112.08   22.10
   9 -10  -8  324.12   37.09
   9  10  -8  272.67   22.23
   9 -10  -7   67.58   18.76
   9  10  -7   44.54    9.76
   9  10  -6  266.49   24.53
   9 -10  -6  296.84   35.54
   9 -10  -5    3.84   11.05
   9  10  -5   16.30    7.57
   9  10  -4  376.33   32.47
   9 -10  -4  340.04   38.75
   9  10  -3   17.20    9.47
   9  10  -2  284.60   31.38
   9 -11 -14  157.48   25.74
   9 -11 -13   -6.46    9.35
   9 -11 -12  446.69   44.47
   9 -11 -11   -5.18    8.25
   9 -11 -10  433.93   43.91
   9 -11  -9    0.97    8.86
   9 -11  -8  408.24   42.43
   9 -11  -7   36.08   14.27
   9 -11  -6  105.47   22.33
   9  11  -6  133.32   16.97
   9 -11  -5   52.91   16.68
   9  11  -5   12.51    5.62
   9  11  -4   -0.73    5.95
   9  11  -3   52.78   13.53
   9  11  -2   36.96   13.89
   9 -12 -12   23.05   13.09
   9 -12 -11   76.96   19.47
   9 -12 -10    8.56   11.56
   9 -12  -9   63.94   17.92
   9 -12  -8   58.74   16.76
   9 -12  -7   41.96   17.09
   9 -12  -6  196.08   30.87
   9 -13  -9   -4.80    9.88
  10   0 -20   11.14    8.86
  10   0 -19   -1.17    6.91
  10   0 -18    6.30    8.39
  10   0 -17   -7.41    7.91
  10   0 -16  199.67   25.29
  10   0 -15    2.93    6.60
  10   0 -14  830.75   53.08
  10   0 -13   -6.24    9.74
  10   0 -12  564.79   42.70
  10   0 -11   -3.51    7.04
  10   0 -10  776.99   49.73
  10   0  -9   -6.36    8.71
  10   0  -8  476.02   38.53
  10   0  -7   -9.00    5.98
  10   0  -6   96.85   18.46
  10   0  -5  -20.39   12.26
  10   0  -4    5.97    7.79
  10  -1 -20  307.99   34.53
  10   1 -19   -7.59    5.48
  10  -1 -19   24.37   11.94
  10   1 -18  387.31   36.15
  10  -1 -18  318.74   33.77
  10   1 -17   19.34   10.33
  10  -1 -17   -7.03    8.69
  10   1 -16  337.26   32.30
  10  -1 -16  269.17   30.07
  10   1 -15   13.51    7.98
  10  -1 -15   -1.15    6.36
  10   1 -14  174.18   23.17
  10  -1 -14  155.38   22.71
  10  -1 -13   11.23    8.88
  10   1 -13   -2.53    6.82
  10  -1 -12    6.94    9.14
  10   1 -12    8.96    8.56
  10  -1 -11    5.93    6.61
  10   1 -11    9.02    7.54
  10  -1 -10   32.21   12.11
  10   1 -10   30.43   11.11
  10  -1  -9   -1.92   10.29
  10   1  -9   -0.91    7.29
  10  -1  -8  549.32   41.43
  10   1  -8  519.34   39.20
  10  -1  -7   34.68   11.80
  10   1  -7   17.47    9.25
  10   1  -6  537.45   41.88
  10  -1  -6  530.90   42.77
  10  -1  -5   19.25   11.11
  10   1  -5   -3.38    8.02
  10  -1  -4  515.55   44.29
  10   1  -4  537.12   44.49
  10  -2 -20   13.89   11.14
  10  -2 -19    6.48    7.96
  10   2 -18    6.27    5.61
  10  -2 -18   13.03    7.94
  10   2 -17    6.60    9.84
  10  -2 -17   15.43    9.71
  10   2 -16  209.12   25.65
  10  -2 -16  234.01   28.23
  10   2 -15    4.79    6.14
  10  -2 -15   13.34    7.60
  10   2 -14  544.94   40.90
  10  -2 -14  545.54   43.93
  10  -2 -13    2.31    8.61
  10   2 -13   -9.15    7.77
  10  -2 -12  805.46   53.64
  10   2 -12  911.86   52.87
  10  -2 -11   36.76   11.79
  10   2 -11   20.97    7.91
  10  -2 -10  660.92   47.51
  10   2 -10  622.63   42.52
  10  -2  -9   11.74    8.89
  10   2  -9    7.04    7.18
  10  -2  -8  348.38   34.33
  10   2  -8  331.34   30.64
  10  -2  -7   -9.92    9.90
  10   2  -7   -2.91    7.32
  10  -2  -6   65.85   15.93
  10   2  -6   81.46   15.94
  10  -2  -5    5.55    8.54
  10   2  -5   11.52    7.69
  10  -2  -4  -14.00   10.88
  10   2  -4    1.76    8.39
  10  -3 -19   10.78   10.18
  10  -3 -18  383.33   38.07
  10   3 -17   -2.66    5.44
  10  -3 -17   -7.31    7.57
  10   3 -16  356.07   32.12
  10  -3 -16  421.97   38.48
  10   3 -15  -12.31    8.70
  10  -3 -15    5.09    8.43
  10   3 -14  148.24   20.78
  10  -3 -14  143.53   23.01
  10  -3 -13    8.22    6.54
  10   3 -13    3.16    5.21
  10  -3 -12   -4.24    7.32
  10   3 -12   11.71    8.17
  10   3 -11    5.31    5.70
  10  -3 -11   37.52   13.15
  10  -3 -10  225.09   27.58
  10   3 -10  190.98   23.19
  10  -3  -9    5.21    8.37
  10   3  -9    3.08    6.50
  10  -3  -8  402.20   36.82
  10   3  -8  439.21   34.78
  10  -3  -7   12.97    8.31
  10   3  -7   18.40    9.52
  10   3  -6  636.64   45.38
  10  -3  -6  739.78   51.48
  10  -3  -5    8.75    9.17
  10   3  -5    2.66    7.22
  10  -3  -4  330.37   36.19
  10   3  -4  326.79   33.73
  10  -4 -19    3.36    6.76
  10  -4 -18    9.99    9.91
  10  -4 -17   -1.09    8.96
  10   4 -16  217.09   23.76
  10  -4 -16  214.31   27.73
  10   4 -15   19.95   10.82
  10  -4 -15   15.84    8.59
  10   4 -14  310.85   29.56
  10  -4 -14  305.11   33.56
  10  -4 -13   10.52   10.45
  10   4 -13   -6.25    7.97
  10  -4 -12  888.64   58.19
  10   4 -12  882.54   50.39
  10   4 -11    2.51    5.87
  10  -4 -11   22.58   11.41
  10  -4 -10  745.74   52.80
  10   4 -10  689.34   43.48
  10  -4  -9   -1.21    8.54
  10   4  -9   13.65    7.45
  10  -4  -8  260.49   30.86
  10   4  -8  300.42   28.33
  10  -4  -7   -0.44    8.52
  10   4  -7   30.46   10.48
  10  -4  -6   63.53   16.19
  10   4  -6   56.09   14.24
  10  -4  -5    4.34    9.02
  10   4  -5   -5.57    8.18
  10   4  -4   25.98   10.89
  10  -5 -18  422.97   41.20
  10  -5 -17   24.11   10.59
  10  -5 -16  405.82   38.64
  10   5 -15   12.97    7.56
  10  -5 -15   -0.06    8.99
  10   5 -14   96.75   16.06
  10  -5 -14  118.12   21.87
  10  -5 -13   -3.68    8.63
  10   5 -13   -1.07    6.33
  10  -5 -12   -7.62    9.39
  10   5 -12    7.92    5.81
  10   5 -11   27.66    9.95
  10  -5 -11   39.45   14.58
  10  -5 -10  142.35   23.51
  10   5 -10  123.58   17.73
  10  -5  -9  -10.00   11.01
  10   5  -9    5.91    5.56
  10  -5  -8  243.69   29.61
  10   5  -8  248.67   25.58
  10  -5  -7   18.92   11.32
  10   5  -7   19.89    9.73
  10   5  -6  717.87   47.19
  10  -5  -6  664.34   51.00
  10  -5  -5    6.47    8.75
  10   5  -5   -1.48    6.17
  10   5  -4  339.20   34.17
  10  -6 -17   20.14   10.90
  10  -6 -16  152.30   23.83
  10  -6 -15   -3.71    7.74
  10   6 -14  307.95   27.18
  10  -6 -14  289.63   33.04
  10  -6 -13   39.66   13.08
  10   6 -13   35.79    9.44
  10  -6 -12  734.32   54.48
  10   6 -12  725.84   43.06
  10   6 -11   -6.83    7.19
  10  -6 -11    7.94    8.92
  10  -6 -10  730.94   54.22
  10   6 -10  608.93   39.52
  10  -6  -9   12.61    9.48
  10   6  -9    1.31    5.29
  10  -6  -8  327.89   35.57
  10   6  -8  247.69   25.08
  10  -6  -7    5.36    9.00
  10   6  -7    4.80    6.36
  10  -6  -6   41.85   14.66
  10   6  -6   43.50   11.60
  10   6  -5   14.95    9.16
  10   6  -4  -12.39    9.54
  10  -7 -17   -0.86    7.98
  10  -7 -16  302.53   34.46
  10  -7 -15   28.76   12.39
  10  -7 -14  130.83   23.24
  10  -7 -13   12.18    9.65
  10  -7 -12   15.39    8.63
  10   7 -12   10.27    5.46
  10   7 -11   22.00    7.33
  10  -7 -11   10.24    9.54
  10   7 -10   98.93   14.93
  10  -7 -10   87.47   20.77
  10  -7  -9   11.89   10.13
  10   7  -9   14.58    7.17
  10  -7  -8  402.69   39.98
  10   7  -8  343.99   29.47
  10  -7  -7   22.42   12.66
  10   7  -7   33.86    9.55
  10   7  -6  338.46   31.09
  10  -7  -6  320.42   36.27
  10   7  -5    8.96    7.70
  10   7  -4  257.09   29.78
  10  -8 -16  138.84   23.83
  10  -8 -15   11.36   10.10
  10  -8 -14  430.65   41.78
  10  -8 -13   15.51   10.62
  10  -8 -12  388.50   40.39
  10   8 -11  -14.71    7.58
  10  -8 -11   17.83   11.79
  10  -8 -10  513.35   47.15
  10   8 -10  516.67   34.07
  10  -8  -9    8.52   10.30
  10   8  -9    1.69    4.22
  10  -8  -8  300.56   35.43
  10   8  -8  251.25   24.46
  10  -8  -7  -13.17   11.69
  10   8  -7   16.08    8.73
  10   8  -6   46.22   11.76
  10   8  -5   11.56    8.04
  10   8  -4   12.36    7.38
  10  -9 -15    3.28    7.64
  10  -9 -14  106.67   21.71
  10  -9 -13  -15.54   11.23
  10  -9 -12    4.94   10.38
  10  -9 -11    4.21    8.12
  10  -9 -10   49.22   16.14
  10   9  -9   65.58   12.11
  10  -9  -9   57.25   18.00
  10  -9  -8  355.50   39.96
  10   9  -8  318.94   27.28
  10   9  -7   24.42    8.94
  10   9  -6  188.47   22.81
  10   9  -5   18.55    9.35
  10   9  -4  234.10   28.17
  10 -10 -13   -2.87    8.48
  10 -10 -12  311.27   37.22
  10 -10 -11   31.96   12.88
  10 -10 -10  446.45   45.31
  10 -10  -9    7.42   11.97
  10  10  -6   46.89   11.96
  10  10  -5   10.10    6.27
  11   0 -20  216.78   28.83
  11   0 -19    6.69    5.70
  11   0 -18  158.48   23.52
  11   0 -17  -10.81    7.90
  11   0 -16  171.81   24.08
  11   0 -15   -3.30    6.75
  11   0 -14   -1.39    7.51
  11   0 -13   -9.25    9.16
  11   0 -12   27.00   12.19
  11   0 -11   -7.19    8.17
  11   0 -10  234.03   28.58
  11   0  -9   13.82    9.68
  11   0  -8  412.18   38.37
  11   0  -7    7.62   10.11
  11  -1 -20   17.15    9.39
  11   1 -19    9.92    8.14
  11  -1 -19   -2.10    8.32
  11   1 -18   27.66   11.73
  11  -1 -18   29.40   12.07
  11   1 -17    2.42    6.46
  11  -1 -17   -0.53    7.15
  11   1 -16  351.60   33.48
  11  -1 -16  313.94   32.52
  11   1 -15    1.70    6.19
  11  -1 -15   -8.14    8.96
  11  -1 -14  498.27   42.40
  11   1 -14  495.45   40.79
  11  -1 -13   10.05    8.44
  11   1 -13   -5.05    7.63
  11  -1 -12  477.98   41.80
  11   1 -12  513.01   41.41
  11  -1 -11    9.67    6.83
  11   1 -11    5.44    6.94
  11  -1 -10  335.60   34.89
  11   1 -10  321.39   32.57
  11  -1  -9   41.76   14.40
  11   1  -9    5.06    6.87
  11  -1  -8  164.69   24.64
  11   1  -8  150.93   23.07
  11  -1  -7    3.62    7.47
  11   1  -7   -0.82    7.70
  11  -2 -20  205.36   28.51
  11  -2 -19   24.38   11.10
  11   2 -18  253.78   29.01
  11  -2 -18  253.43   30.23
  11   2 -17   11.57    6.77
  11  -2 -17   -1.90    6.82
  11   2 -16  169.60   22.70
  11  -2 -16  133.35   21.39
  11   2 -15   -3.28    6.06
  11  -2 -15   -5.75    8.92
  11  -2 -14   37.80   12.36
  11   2 -14    9.50    7.29
  11  -2 -13    5.88    7.33
  11   2 -13   -5.02    7.36
  11   2 -12    8.58    8.24
  11  -2 -12   12.09   10.57
  11  -2 -11   -3.31   10.46
  11   2 -11    5.46    8.30
  11  -2 -10  228.96   28.85
  11   2 -10  250.11   28.25
  11  -2  -9   -1.09    7.85
  11   2  -9    7.62    8.15
  11  -2  -8  291.80   32.71
  11   2  -8  298.54   31.56
  11  -2  -7    3.42    7.68
  11   2  -7   -1.60    9.29
  11   2  -6  318.14   34.13
  11  -3 -19    5.24    8.89
  11  -3 -18   55.60   15.05
  11   3 -17   -0.75    5.49
  11  -3 -17   -7.55    8.50
  11   3 -16  190.19   23.66
  11  -3 -16  181.73   25.76
  11   3 -15   -9.18    7.77
  11  -3 -15   13.84    9.58
  11  -3 -14  441.14   41.24
  11   3 -14  427.90   36.29
  11  -3 -13    6.64    8.29
  11   3 -13   10.44    7.36
  11  -3 -12  614.16   49.32
  11   3 -12  673.64   46.63
  11  -3 -11   17.39   12.05
  11   3 -11    1.79    6.15
  11  -3 -10  418.35   40.21
  11   3 -10  398.91   35.47
  11  -3  -9    6.57    9.24
  11   3  -9   24.91   10.41
  11  -3  -8  159.31   25.22
  11   3  -8  116.37   19.85
  11   3  -7   15.82    9.20
  11   3  -6   -0.22    8.75
  11  -4 -18  355.48   36.75
  11  -4 -17    9.03    8.45
  11   4 -16  184.66   23.11
  11  -4 -16  131.63   22.34
  11   4 -15    5.98    5.65
  11  -4 -15    6.91    9.17
  11  -4 -14   21.78   10.23
  11   4 -14   39.30   10.87
  11  -4 -13    1.30    7.57
  11   4 -13    6.02    5.67
  11   4 -12   68.12   14.64
  11  -4 -12   48.32   15.54
  11  -4 -11   16.68   11.37
  11   4 -11    1.46    7.63
  11  -4 -10  116.30   21.72
  11   4 -10  132.13   20.04
  11  -4  -9    3.73    8.97
  11   4  -9    1.58    5.98
  11  -4  -8  319.90   36.17
  11   4  -8  319.83   32.15
  11   4  -7    8.08    8.76
  11   4  -6  289.01   32.05
  11  -5 -17   -6.77    8.31
  11  -5 -16  179.64   26.56
  11  -5 -15    8.10   10.59
  11  -5 -14  332.69   36.60
  11   5 -14  406.46   33.77
  11  -5 -13    4.54    7.71
  11   5 -13    8.29    6.40
  11  -5 -12  682.23   53.63
  11   5 -12  675.11   44.87
  11  -5 -11   -4.37    6.20
  11   5 -11   -1.32    6.02
  11  -5 -10  319.95   36.37
  11   5 -10  342.17   31.36
  11  -5  -9    3.03    8.64
  11   5  -9    3.19    5.61
  11   5  -8  124.46   19.63
  11   5  -7    3.77    6.76
  11   5  -6    6.25    7.92
  11  -6 -16  125.39   22.44
  11  -6 -15    8.87    9.08
  11  -6 -14   30.24   12.72
  11  -6 -13   18.22    9.88
  11   6 -13   13.54    7.31
  11   6 -12   22.96    9.84
  11  -6 -12   13.88   10.02
  11   6 -11   -1.82    6.65
  11  -6 -11    4.65   10.48
  11  -6 -10  120.10   23.35
  11   6 -10  108.30   17.07
  11  -6  -9    3.71    8.44
  11   6  -9   14.65    8.48
  11   6  -8  276.58   29.05
  11   6  -7   16.09    9.34
  11   6  -6  265.14   30.59
  11  -7 -14  393.33   40.58
  11  -7 -13    8.74    9.85
  11  -7 -12  424.28   43.45
  11   7 -11    3.97    4.35
  11  -7 -11   23.15   12.73
  11   7 -10  423.59   33.83
  11   7  -9    7.19    6.69
  11   7  -8   68.80   14.31
  11   7  -7   -1.21    5.79
  11   7  -6   -3.15    6.84
  11   8  -9   25.74    9.07
  11   8  -8  264.49   27.39
  11   8  -7   -4.14    5.02
  11   8  -6  155.22   23.01
  12   0 -19   -4.20    6.11
  12   0 -18   95.87   18.49
  12   0 -17   13.49    7.34
  12   0 -16  483.91   42.31
  12   0 -15   -9.77    9.21
  12   0 -14  323.85   34.85
  12   0 -13    2.44    6.23
  12   0 -12  228.51   30.12
  12   0 -11  -16.09    8.42
  12   0 -10  233.39   29.78
  12  -1 -19   -9.63    7.78
  12   1 -18  179.83   24.74
  12  -1 -18  196.39   26.27
  12   1 -17    7.00    7.92
  12  -1 -17   -4.41    6.05
  12   1 -16   92.90   18.47
  12  -1 -16   99.61   20.07
  12  -1 -15   -3.66    8.12
  12   1 -15   -9.43    7.28
  12  -1 -14   10.19    8.46
  12   1 -14   12.83    8.43
  12  -1 -13   -4.89    9.45
  12   1 -13    5.27    6.08
  12  -1 -12   69.09   17.02
  12   1 -12   62.19   15.91
  12  -1 -11    8.36    8.47
  12   1 -11    6.12    9.33
  12   1 -10  267.81   32.14
  12  -2 -18  129.62   21.65
  12   2 -17   10.00    7.34
  12  -2 -17    4.26    5.57
  12   2 -16  252.89   29.41
  12  -2 -16  269.57   32.15
  12  -2 -15   -4.33    6.63
  12   2 -15   -5.95    7.04
  12  -2 -14  367.04   38.21
  12   2 -14  400.18   37.19
  12  -2 -13   12.11    9.25
  12   2 -13   11.14    8.69
  12  -2 -12  454.72   43.17
  12   2 -12  317.92   34.16
  12  -2 -11  -16.14   11.04
  12   2 -11   15.27   11.09
  12   2 -10  152.43   23.94
  12  -3 -17    7.24    9.00
  12   3 -16   18.56    8.49
  12  -3 -16   33.73   13.34
  12  -3 -15    0.95    9.41
  12   3 -15   -2.86    5.51
  12  -3 -14   -2.79    7.27
  12   3 -14   21.67   10.29
  12  -3 -13   -2.03    7.46
  12   3 -13    2.09    6.62
  12  -3 -12   52.78   16.42
  12   3 -12   43.87   12.24
  12   3 -11   42.25   13.37
  12   3 -10  127.18   21.47
  12   3  -9    0.06    8.33
  12  -4 -15   -0.59    8.18
  12  -4 -14  398.90   41.19
  12   4 -14  350.68   33.81
  12   4 -13   18.15    9.09
  12   4 -12  275.76   30.31
  12   4 -11   -4.85    8.84
  12   4 -10  144.49   22.10
  12   4  -9   -7.99    6.52
  12   5 -13   -5.73    5.71
  12   5 -12   35.52   10.19
  12   5 -11    9.05    6.02
  12   5 -10  120.27   20.33
  12   5  -9   36.27   12.49
  12   6 -11  -14.87    8.15
  12   6 -10   92.53   17.10
  12   6  -9    4.34    5.16
  13   1 -16  273.27   32.74
  13   1 -15   -5.21    7.11
  13   2 -16    2.27    6.47
  13   2 -15   -6.61    7.11
  13   2 -14   12.04    9.93
  13   3 -14  252.38   30.84
  13   3 -13    1.52    7.02
   0   0   0    0.00    0.00


TITL AGR432crt in P2(1)/c
REM P2(1)/c (#14 in standard setting)
CELL 0.71073   9.471661  15.561693  14.976057  90.0000 134.0299  90.0000
ZERR    4.00   0.001363   0.000725   0.002257   0.0000   0.0259   0.0000
LATT  1
SYMM -x, y+1/2,-z+1/2
SFAC C H N Cl Bi
UNIT 60.00 48.00 12.00 8.00 4.00
TREF
HKLF 4
END
_computing_structure_solution     'SHELXT 2018/2 (Sheldrick, 2018)'
;
_shelx_hkl_checksum              85625
_olex2_submission_special_instructions 'No special instructions were received'
_oxdiff_exptl_absorpt_empirical_details
;
Empirical correction (ABSPACK) includes:
- Absorption correction using spherical harmonics
- Frame scaling
;
_oxdiff_exptl_absorpt_empirical_full_max 1.265
_oxdiff_exptl_absorpt_empirical_full_min 0.769
loop_
_space_group_symop_operation_xyz
'x, y, z'
'-x, y+1/2, -z+1/2'
'-x, -y, -z'
'x, -y-1/2, z-1/2'
loop_
_atom_site_label
_atom_site_type_symbol
_atom_site_fract_x
_atom_site_fract_y
_atom_site_fract_z
_atom_site_U_iso_or_equiv
_atom_site_adp_type
_atom_site_occupancy
_atom_site_site_symmetry_order
_atom_site_calc_flag
_atom_site_refinement_flags_posn
_atom_site_refinement_flags_adp
_atom_site_refinement_flags_occupancy
_atom_site_disorder_assembly
_atom_site_disorder_group
Bi1 Bi 0.78945(3) 0.25453(2) 0.53393(2) 0.03335(8) Uani 1 1 d . . . . .
Cl1 Cl 0.6536(2) 0.14046(8) 0.36633(14) 0.0554(4) Uani 1 1 d . . . . .
N1 N 0.6523(7) 0.1499(3) 0.7399(5) 0.0609(13) Uani 1 1 d . . . . .
Cl2 Cl 0.9460(2) 0.36432(7) 0.71205(13) 0.0467(3) Uani 1 1 d . . . . .
N2 N 1.1714(7) 0.4104(3) 0.5295(5) 0.0564(13) Uani 1 1 d . . . . .
N3 N 0.1787(6) 0.3473(3) 0.2310(4) 0.0517(12) Uani 1 1 d . . . . .
C11 C 0.7331(7) 0.1654(3) 0.6227(5) 0.0357(11) Uani 1 1 d . . . . .
C12 C 0.6989(8) 0.1988(4) 0.6903(5) 0.0484(14) Uani 1 1 d . . . . .
H12 H 0.708374 0.257895 0.702272 0.058 Uiso 1 1 calc R U . . .
C13 C 0.6460(9) 0.0654(4) 0.7235(6) 0.0595(16) Uani 1 1 d . . . . .
H13 H 0.614645 0.030278 0.757926 0.071 Uiso 1 1 calc R U . . .
C14 C 0.6825(8) 0.0274(3) 0.6599(6) 0.0549(16) Uani 1 1 d . . . . .
H14 H 0.679728 -0.032086 0.653149 0.066 Uiso 1 1 calc R U . . .
C15 C 0.7237(7) 0.0788(3) 0.6053(5) 0.0473(14) Uani 1 1 d . . . . .
H15 H 0.744507 0.055173 0.558222 0.057 Uiso 1 1 calc R U . . .
C21 C 1.0064(7) 0.2943(3) 0.5271(5) 0.0363(11) Uani 1 1 d . . . . .
C22 C 1.0566(7) 0.3800(3) 0.5440(5) 0.0419(12) Uani 1 1 d . . . . .
H22 H 1.009015 0.417681 0.566118 0.050 Uiso 1 1 calc R U . . .
C23 C 1.2401(9) 0.3534(4) 0.5010(6) 0.0606(17) Uani 1 1 d . . . . .
H23 H 1.322004 0.373223 0.491811 0.073 Uiso 1 1 calc R U . . .
C24 C 1.1975(9) 0.2674(4) 0.4845(6) 0.0555(16) Uani 1 1 d . . . . .
H24 H 1.249263 0.230505 0.464372 0.067 Uiso 1 1 calc R U . . .
C25 C 1.0780(8) 0.2363(3) 0.4978(5) 0.0459(14) Uani 1 1 d . . . . .
H25 H 1.046513 0.178274 0.487410 0.055 Uiso 1 1 calc R U . . .
C31 C 0.5253(7) 0.3372(3) 0.4047(5) 0.0338(11) Uani 1 1 d . . . . .
C32 C 0.3432(8) 0.3008(3) 0.3124(5) 0.0445(13) Uani 1 1 d . . . . .
H32 H 0.333748 0.241199 0.306116 0.053 Uiso 1 1 calc R U . . .
C33 C 0.2014(8) 0.4324(3) 0.2403(5) 0.0555(16) Uani 1 1 d . . . . .
H33 H 0.090147 0.466089 0.183057 0.067 Uiso 1 1 calc R U . . .
C34 C 0.3763(8) 0.4730(3) 0.3280(5) 0.0495(15) Uani 1 1 d . . . . .
H34 H 0.383102 0.532722 0.330445 0.059 Uiso 1 1 calc R U . . .
C35 C 0.5422(7) 0.4249(3) 0.4126(5) 0.0421(13) Uani 1 1 d . . . . .
H35 H 0.663683 0.451101 0.474036 0.050 Uiso 1 1 calc R U . . .
loop_
_atom_site_aniso_label
_atom_site_aniso_U_11
_atom_site_aniso_U_22
_atom_site_aniso_U_33
_atom_site_aniso_U_23
_atom_site_aniso_U_13
_atom_site_aniso_U_12
Bi1 0.03378(12) 0.02979(11) 0.03977(13) -0.00380(8) 0.02678(10) -0.00515(7)
Cl1 0.0698(10) 0.0451(7) 0.0637(9) -0.0203(7) 0.0510(9) -0.0197(7)
N1 0.072(4) 0.064(3) 0.066(3) -0.004(3) 0.055(3) -0.012(3)
Cl2 0.0522(9) 0.0405(6) 0.0479(8) -0.0100(6) 0.0349(7) -0.0091(6)
N2 0.059(3) 0.060(3) 0.063(3) -0.007(3) 0.047(3) -0.016(2)
N3 0.035(3) 0.052(3) 0.051(3) -0.008(2) 0.023(3) 0.003(2)
C11 0.028(3) 0.038(3) 0.038(3) 0.000(2) 0.022(3) -0.002(2)
C12 0.051(4) 0.044(3) 0.050(4) -0.001(3) 0.035(3) -0.005(2)
C13 0.058(4) 0.056(4) 0.059(4) 0.008(3) 0.038(4) -0.012(3)
C14 0.054(4) 0.040(3) 0.058(4) 0.007(3) 0.035(3) -0.003(3)
C15 0.044(3) 0.040(3) 0.052(4) -0.001(3) 0.031(3) -0.003(2)
C21 0.029(3) 0.042(3) 0.034(3) -0.002(2) 0.021(2) -0.004(2)
C22 0.039(3) 0.044(3) 0.050(3) -0.008(2) 0.034(3) -0.008(2)
C23 0.060(4) 0.074(4) 0.070(4) -0.018(3) 0.054(4) -0.027(3)
C24 0.052(4) 0.068(4) 0.064(4) -0.016(3) 0.047(4) -0.010(3)
C25 0.045(3) 0.051(3) 0.049(3) -0.003(3) 0.035(3) -0.005(2)
C31 0.034(3) 0.036(3) 0.041(3) 0.000(2) 0.029(3) 0.000(2)
C32 0.048(3) 0.033(3) 0.059(4) -0.007(2) 0.039(3) -0.006(2)
C33 0.037(4) 0.051(3) 0.054(4) 0.002(3) 0.022(3) 0.015(3)
C34 0.045(4) 0.039(3) 0.058(4) 0.002(3) 0.034(3) 0.000(2)
C35 0.032(3) 0.038(3) 0.052(3) -0.001(2) 0.027(3) -0.002(2)
loop_
_atom_type_symbol
_atom_type_description
_atom_type_scat_dispersion_real
_atom_type_scat_dispersion_imag
_atom_type_scat_source
C C 0.0033 0.0016 'International Tables Vol C Tables 4.2.6.8 and 6.1.1.4'
H H 0.0000 0.0000 'International Tables Vol C Tables 4.2.6.8 and 6.1.1.4'
Bi Bi -4.1077 10.2566 'International Tables Vol C Tables 4.2.6.8 and 6.1.1.4'
Cl Cl 0.1484 0.1585 'International Tables Vol C Tables 4.2.6.8 and 6.1.1.4'
N N 0.0061 0.0033 'International Tables Vol C Tables 4.2.6.8 and 6.1.1.4'
loop_
_exptl_crystal_face_index_h
_exptl_crystal_face_index_k
_exptl_crystal_face_index_l
_exptl_crystal_face_perp_dist
2 5 -4 0.0952
-2 -5 4 0.0952
3 1 2 0.2017
-1 1 2 0.0775
1 -1 -2 0.0775
0 -1 5 0.1810
2 3 3 0.1854
-2 -3 -3 0.1643
-3 5 1 0.1336
-5 -2 5 0.1216
5 -5 -6 0.0951
loop_
_geom_angle_atom_site_label_1
_geom_angle_atom_site_label_2
_geom_angle_atom_site_label_3
_geom_angle
_geom_angle_site_symmetry_1
_geom_angle_site_symmetry_3
_geom_angle_publ_flag
Cl1 Bi1 Cl2 176.56(5) . . ?
C11 Bi1 Cl1 89.29(13) . . ?
C11 Bi1 Cl2 89.96(13) . . ?
C21 Bi1 Cl1 89.94(13) . . ?
C21 Bi1 Cl2 88.74(13) . . ?
C21 Bi1 C11 144.69(17) . . ?
C21 Bi1 C31 108.54(17) . . ?
C31 Bi1 Cl1 93.03(13) . . ?
C31 Bi1 Cl2 90.41(13) . . ?
C31 Bi1 C11 106.75(17) . . ?
C13 N1 C12 116.7(5) . . ?
C23 N2 C22 116.7(4) . . ?
C33 N3 C32 116.1(5) . . ?
C12 C11 Bi1 119.0(3) . . ?
C12 C11 C15 120.1(5) . . ?
C15 C11 Bi1 120.8(4) . . ?
N1 C12 C11 122.6(5) . . ?
N1 C12 H12 118.7 . . ?
C11 C12 H12 118.7 . . ?
N1 C13 H13 118.0 . . ?
N1 C13 C14 124.1(5) . . ?
C14 C13 H13 118.0 . . ?
C13 C14 H14 120.7 . . ?
C13 C14 C15 118.6(5) . . ?
C15 C14 H14 120.7 . . ?
C11 C15 C14 117.9(5) . . ?
C11 C15 H15 121.1 . . ?
C14 C15 H15 121.1 . . ?
C22 C21 Bi1 118.3(4) . . ?
C25 C21 Bi1 120.8(3) . . ?
C25 C21 C22 120.7(5) . . ?
N2 C22 C21 122.0(5) . . ?
N2 C22 H22 119.0 . . ?
C21 C22 H22 119.0 . . ?
N2 C23 H23 118.0 . . ?
N2 C23 C24 124.0(5) . . ?
C24 C23 H23 118.0 . . ?
C23 C24 H24 120.4 . . ?
C25 C24 C23 119.2(5) . . ?
C25 C24 H24 120.4 . . ?
C21 C25 H25 121.3 . . ?
C24 C25 C21 117.3(5) . . ?
C24 C25 H25 121.3 . . ?
C32 C31 Bi1 120.3(3) . . ?
C35 C31 Bi1 120.6(4) . . ?
C35 C31 C32 119.1(5) . . ?
N3 C32 C31 123.0(5) . . ?
N3 C32 H32 118.5 . . ?
C31 C32 H32 118.5 . . ?
N3 C33 H33 117.9 . . ?
N3 C33 C34 124.3(5) . . ?
C34 C33 H33 117.9 . . ?
C33 C34 H34 120.5 . . ?
C33 C34 C35 119.0(5) . . ?
C35 C34 H34 120.5 . . ?
C31 C35 H35 120.8 . . ?
C34 C35 C31 118.4(5) . . ?
C34 C35 H35 120.8 . . ?
loop_
_geom_bond_atom_site_label_1
_geom_bond_atom_site_label_2
_geom_bond_distance
_geom_bond_site_symmetry_2
_geom_bond_publ_flag
Bi1 Cl1 2.5722(14) . ?
Bi1 Cl2 2.5953(14) . ?
Bi1 C11 2.228(5) . ?
Bi1 C21 2.215(5) . ?
Bi1 C31 2.220(5) . ?
N1 C12 1.335(7) . ?
N1 C13 1.331(7) . ?
N2 C22 1.335(6) . ?
N2 C23 1.334(7) . ?
N3 C32 1.341(6) . ?
N3 C33 1.333(6) . ?
C11 C12 1.362(7) . ?
C11 C15 1.363(6) . ?
C12 H12 0.9300 . ?
C13 H13 0.9300 . ?
C13 C14 1.354(8) . ?
C14 H14 0.9300 . ?
C14 C15 1.381(7) . ?
C15 H15 0.9300 . ?
C21 C22 1.379(6) . ?
C21 C25 1.371(7) . ?
C22 H22 0.9300 . ?
C23 H23 0.9300 . ?
C23 C24 1.370(7) . ?
C24 H24 0.9300 . ?
C24 C25 1.367(7) . ?
C25 H25 0.9300 . ?
C31 C32 1.376(7) . ?
C31 C35 1.371(6) . ?
C32 H32 0.9300 . ?
C33 H33 0.9300 . ?
C33 C34 1.359(7) . ?
C34 H34 0.9300 . ?
C34 C35 1.366(7) . ?
C35 H35 0.9300 . ?
loop_
_geom_torsion_atom_site_label_1
_geom_torsion_atom_site_label_2
_geom_torsion_atom_site_label_3
_geom_torsion_atom_site_label_4
_geom_torsion
_geom_torsion_site_symmetry_1
_geom_torsion_site_symmetry_2
_geom_torsion_site_symmetry_3
_geom_torsion_site_symmetry_4
_geom_torsion_publ_flag
Bi1 C11 C12 N1 175.9(4) . . . . ?
Bi1 C11 C15 C14 -178.1(4) . . . . ?
Bi1 C21 C22 N2 -173.5(4) . . . . ?
Bi1 C21 C25 C24 174.2(4) . . . . ?
Bi1 C31 C32 N3 -179.4(4) . . . . ?
Bi1 C31 C35 C34 177.5(4) . . . . ?
N1 C13 C14 C15 -1.8(10) . . . . ?
N2 C23 C24 C25 -0.2(10) . . . . ?
N3 C33 C34 C35 0.5(10) . . . . ?
C12 N1 C13 C14 -0.4(9) . . . . ?
C12 C11 C15 C14 -1.1(8) . . . . ?
C13 N1 C12 C11 1.9(9) . . . . ?
C13 C14 C15 C11 2.5(8) . . . . ?
C15 C11 C12 N1 -1.2(8) . . . . ?
C22 N2 C23 C24 1.0(9) . . . . ?
C22 C21 C25 C24 -0.9(8) . . . . ?
C23 N2 C22 C21 -1.7(8) . . . . ?
C23 C24 C25 C21 0.2(9) . . . . ?
C25 C21 C22 N2 1.8(8) . . . . ?
C32 N3 C33 C34 -2.3(9) . . . . ?
C32 C31 C35 C34 0.2(8) . . . . ?
C33 N3 C32 C31 3.0(8) . . . . ?
C33 C34 C35 C31 0.5(8) . . . . ?
C35 C31 C32 N3 -2.0(8) . . . . ?
loop_
_exptl_oxdiff_crystal_face_indexfrac_h
_exptl_oxdiff_crystal_face_indexfrac_k
_exptl_oxdiff_crystal_face_indexfrac_l
_exptl_oxdiff_crystal_face_x
_exptl_oxdiff_crystal_face_y
_exptl_oxdiff_crystal_face_z
2.0000 5.0000 -4.0000 0.0158 -0.0012 0.2970
-2.0000 -5.0000 4.0000 -0.0158 0.0012 -0.2970
3.0000 1.0000 2.0000 -0.1394 -0.3932 0.0143
-1.0000 1.0000 2.0000 -0.1018 0.0201 -0.0210
1.0000 -1.0000 -2.0000 0.1018 -0.0201 0.0210
-0.0000 -1.0000 5.0000 -0.1842 -0.2275 -0.1579
2.0000 3.0000 3.0000 -0.2259 -0.3232 0.0540
-2.0000 -3.0000 -3.0000 0.2259 0.3232 -0.0540
-3.0000 5.0000 1.0000 -0.1481 0.2935 0.1313
-5.0000 -2.0000 5.0000 -0.1103 0.2836 -0.2385
5.0000 -5.0000 -6.0000 0.3403 -0.2782 0.0078
