#------------------------------------------------------------------------------
#$Date: 2023-06-29 12:16:13 +0300 (Thu, 29 Jun 2023) $
#$Revision: 284567 $
#$URL: file:///home/coder/svn-repositories/cod/cif/1/56/93/1569310.cif $
#------------------------------------------------------------------------------
#
# This file is available in the Crystallography Open Database (COD),
# http://www.crystallography.net/
#
# All data on this site have been placed in the public domain by the
# contributors.
#
data_1569310
loop_
_publ_author_name
'Garc&#xed;a-Romero, &#xc1;lvaro'
'Miguel, Daniel'
'Wright, Dominic S.'
'&#xc1;lvarez, Celedonio M'
'Garc&#xed;a-Rodr&#xed;guez, Ra&#xfa;l'
_publ_section_title
;
 Structural and dimensional control of porphyrin capsules using Group 15
 tris(3-pyridyl) linkers.
;
_journal_issue                   24
_journal_name_full               'Chemical science'
_journal_page_first              6522
_journal_page_last               6530
_journal_paper_doi               10.1039/d3sc02151c
_journal_volume                  14
_journal_year                    2023
_chemical_formula_moiety         'C162 H108 Mg3 N18 Sb2, 5(C H Cl3)'
_chemical_formula_sum            'C167 H113 Cl15 Mg3 N18 Sb2'
_chemical_formula_weight         3219.93
_space_group_crystal_system      trigonal
_space_group_IT_number           148
_space_group_name_Hall           '-R 3'
_space_group_name_H-M_alt        'R -3 :H'
_atom_sites_solution_hydrogens   geom
_atom_sites_solution_primary     dual
_audit_creation_date             2022-06-05
_audit_creation_method
;
Olex2 1.3
(compiled 2020.11.12 svn.r5f609507 for OlexSys, GUI svn.r6408)
;
_audit_update_record
;
2022-08-10 deposited with the CCDC.	2023-05-17 downloaded from the CCDC.
;
_cell_angle_alpha                90
_cell_angle_beta                 90
_cell_angle_gamma                120
_cell_formula_units_Z            3
_cell_length_a                   20.9301(8)
_cell_length_b                   20.9301(8)
_cell_length_c                   37.6852(17)
_cell_measurement_reflns_used    2233
_cell_measurement_temperature    219.9(2)
_cell_measurement_theta_max      24.1020
_cell_measurement_theta_min      3.0070
_cell_volume                     14297.0(10)
_computing_cell_refinement       'CrysAlisPro 1.171.38.46 (Rigaku OD, 2015)'
_computing_data_collection       'CrysAlisPro 1.171.38.46 (Rigaku OD, 2015)'
_computing_data_reduction        'CrysAlisPro 1.171.38.46 (Rigaku OD, 2015)'
_computing_molecular_graphics    'Olex2 1.3 (Dolomanov et al., 2009)'
_computing_publication_material  'Olex2 1.3 (Dolomanov et al., 2009)'
_computing_structure_refinement  'SHELXL 2018/3 (Sheldrick, 2015)'
_computing_structure_solution    'XT  (Sheldrick, 2015)'
_diffrn_ambient_temperature      219.9(2)
_diffrn_detector_area_resol_mean 10.4757
_diffrn_detector_type            Atlas
_diffrn_measured_fraction_theta_full 0.998
_diffrn_measured_fraction_theta_max 0.997
_diffrn_measurement_details
;
List of Runs (angles in degrees, time in seconds):

  # Type    Start    End  Width  t~exp~   \w     \q     \k     \f   Frames
#--------------------------------------------------------------------------
  1  \w    -19.00  79.00   1.00   20.00    --   12.36  77.00-180.00   98
;
_diffrn_measurement_device       'four-circle diffractometer'
_diffrn_measurement_device_type  'SuperNova, Dual, Cu at zero, Atlas'
_diffrn_measurement_method       '\w scans'
_diffrn_radiation_type           MoK\a
_diffrn_radiation_wavelength     0.71073
_diffrn_reflns_av_R_equivalents  0.0464
_diffrn_reflns_av_unetI/netI     0.0952
_diffrn_reflns_Laue_measured_fraction_full 0.998
_diffrn_reflns_Laue_measured_fraction_max 0.997
_diffrn_reflns_limit_h_max       24
_diffrn_reflns_limit_h_min       -12
_diffrn_reflns_limit_k_max       18
_diffrn_reflns_limit_k_min       -22
_diffrn_reflns_limit_l_max       44
_diffrn_reflns_limit_l_min       -38
_diffrn_reflns_number            10644
_diffrn_reflns_point_group_measured_fraction_full 0.998
_diffrn_reflns_point_group_measured_fraction_max 0.997
_diffrn_reflns_theta_full        24.720
_diffrn_reflns_theta_max         24.720
_diffrn_reflns_theta_min         2.927
_exptl_absorpt_coefficient_mu    0.551
_exptl_absorpt_correction_T_max  1.000
_exptl_absorpt_correction_T_min  0.679
_exptl_absorpt_correction_type   gaussian
_exptl_absorpt_process_details
;
CrysAlisPro 1.171.38.46 (Rigaku Oxford Diffraction, 2015)
Numerical absorption correction based on gaussian integration over
			a multifaceted crystal model
Empirical absorption correction using spherical harmonics,
 implemented in SCALE3 ABSPACK scaling algorithm.
;
_exptl_crystal_colour            violet
_exptl_crystal_colour_primary    violet
_exptl_crystal_density_diffrn    1.122
_exptl_crystal_description       block
_exptl_crystal_F_000             4902
_exptl_crystal_size_max          0.37
_exptl_crystal_size_mid          0.298
_exptl_crystal_size_min          0.13
_refine_diff_density_max         0.863
_refine_diff_density_min         -0.551
_refine_diff_density_rms         0.082
_refine_ls_extinction_method     none
_refine_ls_goodness_of_fit_ref   0.975
_refine_ls_hydrogen_treatment    constr
_refine_ls_matrix_type           full
_refine_ls_number_parameters     328
_refine_ls_number_reflns         5421
_refine_ls_number_restraints     39
_refine_ls_restrained_S_all      0.979
_refine_ls_R_factor_all          0.0968
_refine_ls_R_factor_gt           0.0583
_refine_ls_shift/su_max          0.001
_refine_ls_shift/su_mean         0.000
_refine_ls_structure_factor_coef Fsqd
_refine_ls_weighting_details
'w=1/[\s^2^(Fo^2^)+(0.1007P)^2^] where P=(Fo^2^+2Fc^2^)/3'
_refine_ls_weighting_scheme      calc
_refine_ls_wR_factor_gt          0.1567
_refine_ls_wR_factor_ref         0.1727
_reflns_Friedel_coverage         0.000
_reflns_number_gt                3404
_reflns_number_total             5421
_reflns_threshold_expression     'I > 2\s(I)'
_cod_data_source_file            d3sc02151c2.cif
_cod_data_source_block           1Mg
_cod_original_cell_volume        14297.0(13)
_cod_original_sg_symbol_H-M      'R -3'
_cod_database_code               1569310
_shelx_shelxl_version_number     2018/3
_shelx_space_group_comment
;
The symmetry employed for this shelxl refinement is uniquely defined
by the following loop, which should always be used as a source of
symmetry information in preference to the above space-group names.
They are only intended as comments.
;
_shelx_estimated_absorpt_t_max   0.932
_shelx_estimated_absorpt_t_min   0.822
_olex2_refinement_description
;
1. Fixed Uiso
 At 1.2 times of:
  All C(H) groups
2. Restrained distances
 C2S-Cl3S \\sim C2S-Cl4S \\sim C2S-Cl2S
 with sigma of 0.02
 Cl3S-Cl4S \\sim Cl4S-Cl2S \\sim Cl2S-Cl3S
 with sigma of 0.04
3. Uiso/Uaniso restraints and constraints
Cl2S \\sim Cl3S \\sim Cl4S \\sim C2S: within 2A with sigma of 0.04 and sigma
for terminal atoms of 0.08 within 2A
4. Rigid body (RIGU) restrains
 Cl2S, Cl3S, Cl4S, C2S
 with sigma for 1-2 distances of 0.004 and sigma for 1-3 distances of 0.004
5. Others
 Fixed Sof: Cl2S(0.5) Cl3S(0.5) Cl4S(0.5) C2S(0.5) H2S(0.5)
6.a Ternary CH refined with riding coordinates:
 C2S(H2S), C1S(H1S)
6.b Aromatic/amide H refined with riding coordinates:
 C2(H2), C3(H3), C4(H4), C5(H5), C7(H7), C8(H8), C12(H12), C13(H13), C17(H17),
 C18(H18), C19(H19), C20(H20), C21(H21), C23(H23), C24(H24), C25(H25), C26(H26),
  C27(H27)
;
_smtbx_masks_special_details
;
A solvent mask was calculated and 537 electrons were found in a volume of 3105 cubic angstroms in 2 voids per unit cell. 
This is consistent with roughly 3 CHCl3 molecules per Formula Unit which account for 522 electrons (9 CHCl3 molecules per unit cell). 
The crystals were observed to lose solvent very quickly during the preparation of the sample, and therefore the exact amount of CHCl3 is expected to vary among crystals due to partial loss of CHCl3
;
_smtbx_masks_void_probe_radius   1.2
_smtbx_masks_void_truncation_radius 1.2
_shelx_res_file
;
TITL agr371cc_a.res in R-3
    agr371cc.res
    created by SHELXL-2018/3 at 14:24:55 on 05-Jun-2022
REM Old TITL AGR371cc in R-3
REM SHELXT solution in R-3: R1 0.199, Rweak 0.013, Alpha 0.038
REM <I/s> 0.000 for 0 systematic absences, Orientation as input
REM Formula found by SHELXT: C146 N48 Mg3 Cl6 Sb2
CELL 0.71073 20.930086 20.930086 37.685242 90 90 120
ZERR 3 0.000825 0.000825 0.001733 0 0 0
LATT 3
SYMM -Y,+X-Y,+Z
SYMM +Y-X,-X,+Z
SFAC C H Cl Mg N Sb
UNIT 501 339 45 9 54 6
SADI C2S Cl3S C2S Cl4S C2S Cl2S
SADI 0.04 Cl3S Cl4S Cl4S Cl2S Cl2S Cl3S
SIMU Cl2S > C2S
RIGU Cl2S > C2S

L.S. 10
PLAN  16
SIZE 0.13 0.298 0.37
TEMP -53.2(2)
CONF
BOND
MORE -1
BOND $H
ABIN
fmap 2
acta
REM <olex2.extras>
REM <HklSrc "%.\\agr371cc.hkl">
REM </olex2.extras>

WGHT    0.100700
FVAR       0.67083
SB1   6    0.666667    0.333333    0.638630    10.33333    0.02943    0.02943 =
         0.04867    0.00000    0.00000    0.01472
MG1   4    0.833333    0.666667    0.666667    10.50000    0.02437    0.02547 =
         0.03599   -0.00004   -0.00481    0.00940
N1    5    0.824452    0.552633    0.676613    11.00000    0.02764    0.02327 =
         0.04019    0.00480   -0.00362    0.00914
N2    5    0.735525    0.626372    0.694744    11.00000    0.02490    0.02962 =
         0.03691    0.00123   -0.00161    0.01159
N3    5    0.774484    0.629987    0.619910    11.00000    0.03136    0.02549 =
         0.03354   -0.00202   -0.00467    0.01186
C1    1    0.753424    0.421350    0.668878    11.00000    0.02734    0.03126 =
         0.04313   -0.00517    0.00523    0.01580
C2    1    0.772606    0.492867    0.660246    11.00000    0.03041    0.02662 =
         0.04332    0.00410   -0.00588    0.01410
AFIX  43
H2    2    0.747158    0.499764    0.641442    11.00000   -1.20000
AFIX   0
C3    1    0.861283    0.541364    0.702514    11.00000    0.03898    0.03255 =
         0.04727   -0.00796   -0.01305    0.01902
AFIX  43
H3    2    0.898357    0.582633    0.714547    11.00000   -1.20000
AFIX   0
C4    1    0.847855    0.473052    0.712395    11.00000    0.05408    0.03918 =
         0.04568   -0.00402   -0.01265    0.02738
AFIX  43
H4    2    0.875674    0.468017    0.730628    11.00000   -1.20000
AFIX   0
C5    1    0.793391    0.411560    0.695541    11.00000    0.04129    0.03013 =
         0.04939    0.00922   -0.00416    0.02003
AFIX  43
H5    2    0.783507    0.364063    0.701943    11.00000   -1.20000
AFIX   0
C6    1    0.729194    0.624643    0.730963    11.00000    0.03943    0.02622 =
         0.04085    0.00360    0.00693    0.01627
C7    1    0.651363    0.583527    0.739924    11.00000    0.04417    0.03818 =
         0.04583    0.00864    0.01118    0.01862
AFIX  43
H7    2    0.631424    0.573639    0.762950    11.00000   -1.20000
AFIX   0
C8    1    0.612758    0.562041    0.709405    11.00000    0.03014    0.03697 =
         0.05698    0.00063    0.00039    0.01312
AFIX  43
H8    2    0.561135    0.535082    0.707111    11.00000   -1.20000
AFIX   0
C9    1    0.666116    0.588484    0.680820    11.00000    0.03027    0.02777 =
         0.04568    0.00521   -0.00031    0.01521
C10   1    0.648548    0.574457    0.644695    11.00000    0.02854    0.02466 =
         0.04850    0.00110   -0.00864    0.00919
C11   1    0.698138    0.593527    0.616536    11.00000    0.03007    0.02204 =
         0.04648    0.00268   -0.00958    0.00855
C12   1    0.679474    0.580816    0.579593    11.00000    0.03746    0.04279 =
         0.04366    0.00323   -0.01131    0.00981
AFIX  43
H12   2    0.631667    0.557246    0.569929    11.00000   -1.20000
AFIX   0
C13   1    0.743478    0.609064    0.561251    11.00000    0.05479    0.05262 =
         0.03830   -0.00520   -0.01654    0.01956
AFIX  43
H13   2    0.748177    0.608387    0.536467    11.00000   -1.20000
AFIX   0
C14   1    0.803397    0.640500    0.586591    11.00000    0.04050    0.03127 =
         0.03877    0.00087   -0.00372    0.01758
C15   1    0.878722    0.678052    0.578183    11.00000    0.04100    0.03246 =
         0.03248    0.00482    0.00071    0.02049
C16   1    0.899333    0.688137    0.539611    11.00000    0.03902    0.03992 =
         0.04491    0.00124   -0.00364    0.00976
C17   1    0.885687    0.733281    0.518130    11.00000    0.06536    0.05570 =
         0.05883    0.01144    0.00427    0.02716
AFIX  43
H17   2    0.860073    0.755608    0.527598    11.00000   -1.20000
AFIX   0
C18   1    0.908225    0.746741    0.483390    11.00000    0.08747    0.08696 =
         0.04507    0.02959    0.01148    0.03495
AFIX  43
H18   2    0.898139    0.777673    0.469268    11.00000   -1.20000
AFIX   0
C19   1    0.945697    0.714281    0.469654    11.00000    0.08831    0.10788 =
         0.04015    0.01006    0.01276    0.03888
AFIX  43
H19   2    0.961621    0.723171    0.445921    11.00000   -1.20000
AFIX   0
C20   1    0.960075    0.669259    0.490074    11.00000    0.09622    0.11728 =
         0.05300    0.01472    0.02195    0.06865
AFIX  43
H20   2    0.986337    0.647724    0.480486    11.00000   -1.20000
AFIX   0
C21   1    0.935969    0.655081    0.525096    11.00000    0.08111    0.07969 =
         0.04548    0.00978    0.01436    0.05157
AFIX  43
H21   2    0.944717    0.622826    0.538903    11.00000   -1.20000
AFIX   0
C22   1    0.567705    0.532416    0.635414    11.00000    0.02757    0.04568 =
         0.04938    0.01028   -0.00800    0.00740
C23   1    0.525055    0.563436    0.639884    11.00000    0.05161    0.11231 =
         0.15219   -0.04841   -0.03478    0.04675
AFIX  43
H23   2    0.546761    0.612607    0.647648    11.00000   -1.20000
AFIX   0
C24   1    0.448862    0.523511    0.633137    11.00000    0.06192    0.20576 =
         0.18374   -0.06639   -0.04894    0.07542
AFIX  43
H24   2    0.419915    0.545628    0.637053    11.00000   -1.20000
AFIX   0
C25   1    0.417755    0.455026    0.621313    11.00000    0.03869    0.19240 =
         0.11184    0.00058   -0.01425    0.00711
AFIX  43
H25   2    0.367415    0.429721    0.615321    11.00000   -1.20000
AFIX   0
C26   1    0.458156    0.421059    0.617783    11.00000    0.07396    0.06634 =
         0.08784    0.02888   -0.04482   -0.02779
AFIX  43
H26   2    0.435360    0.371250    0.610938    11.00000   -1.20000
AFIX   0
C27   1    0.534670    0.461138    0.624474    11.00000    0.06370    0.04517 =
         0.09038    0.01101   -0.04224    0.00198
AFIX  43
H27   2    0.563110    0.438235    0.621322    11.00000   -1.20000
AFIX   0

CL2S  3    0.454811    0.686683    0.558565    10.50000    0.28203    0.43029 =
         0.43428    0.10653   -0.14150   -0.12974
CL3S  3    0.558714    0.833438    0.546525    10.50000    0.26350    0.20894 =
         0.15917   -0.05518    0.01904    0.06420
CL4S  3    0.570508    0.753796    0.600625    10.50000    0.28242    0.14222 =
         0.17450    0.00324   -0.03158   -0.05064
C2S   1    0.537634    0.754707    0.562979    10.50000    0.10064    0.18491 =
         0.24227   -0.06035    0.01084    0.02897
AFIX  13
H2S   2    0.565513    0.739321    0.547325    10.50000   -1.20000
AFIX   0

CL1S  3    0.692604    0.422065    0.782013    11.00000    0.10324    0.07868 =
         0.10582   -0.02164   -0.00973    0.04481
C1S   1    0.666667    0.333333    0.768860    10.33333    0.08250    0.08250 =
         0.09386    0.00000    0.00000    0.04125
AFIX  13
H1S   2    0.666667    0.333331    0.742590    10.33333   -1.20000
AFIX   0
HKLF 4




REM  agr371cc_a.res in R-3
REM wR2 = 0.1727, GooF = S = 0.975, Restrained GooF = 0.979 for all data
REM R1 = 0.0583 for 3404 Fo > 4sig(Fo) and 0.0968 for all 5421 data
REM 328 parameters refined using 39 restraints

END

WGHT      0.1007      0.0000

REM Highest difference peak  0.863,  deepest hole -0.551,  1-sigma level  0.082
Q1    1   0.6667  0.3333  0.6096  10.33333  0.05    0.86
Q2    1   0.6667  0.3333  0.6651  10.33333  0.05    0.86
Q3    1   0.5256  0.7614  0.6196  11.00000  0.05    0.74
Q4    1   0.5470  0.8212  0.5743  11.00000  0.05    0.55
Q5    1   0.6091  0.7394  0.6102  11.00000  0.05    0.53
Q6    1   0.5518  0.7110  0.5867  11.00000  0.05    0.52
Q7    1   0.5853  0.8589  0.5414  11.00000  0.05    0.49
Q8    1   0.6416  0.2692  0.6423  11.00000  0.05    0.47
Q9    1   0.6667  0.3333  0.7966  10.33333  0.05    0.47
Q10   1   0.5072  0.8178  0.5412  11.00000  0.05    0.44
Q11   1   0.5029  0.8054  0.5592  11.00000  0.05    0.40
Q12   1   0.6045  0.2973  0.6409  11.00000  0.05    0.40
Q13   1   0.5490  0.8931  0.5306  11.00000  0.05    0.39
Q14   1   0.5812  0.3196  0.6135  11.00000  0.05    0.39
Q15   1   0.4551  0.7576  0.5666  11.00000  0.05    0.36
Q16   1   0.4645  0.7372  0.5898  11.00000  0.05    0.36
;
_shelx_res_checksum              86217
_shelx_hkl_file
;
   0   0  -6 80317.1 2314.58   1
   0   0   6 79883.2 2316.52   1
   0   0  -9 5475.38 285.657   1
   0   0   9 4988.78 319.120   1
   0   0  12 215482. 6346.73   1
   0   0 -12 227163. 6343.99   1
   0   0 -15 18130.0 696.360   1
   0   0  15 19061.5 739.371   1
   0   0 -18 16250.4 681.787   1
   0   0  18 16717.1 772.272   1
   0   0 -21 139.868 299.127   1
   0   0  21 103.231 516.798   1
   0   0  24 2986.00 520.815   1
   0   0 -24 3238.56 356.703   1
   0   0 -27 12256.9 600.524   1
   0   0  27 11184.7 752.276   1
   0   0  30 403.717 602.066   1
   0   0 -30-0.70441 316.547   1
   0   0 -33 6105.62 538.759   1
   0   0  33 6973.82 782.492   1
   0   0  36 5174.38 767.199   1
   0   0  39 4306.37 736.978   1
   0   0  42 1115.47 710.675   1
   0   1  44-1.45142 739.760   1
   1  -1  44 1044.55 692.246   1
   0   1  41 2800.54 771.592   1
  -1   0  41 847.427 696.881   1
   1  -1  41 2245.63 720.654   1
   1  -1  38 1640.19 679.696   1
  -1   0  38 1240.33 680.937   1
   0   1  38 1145.87 679.428   1
   1   0 -35 914.699 408.086   1
   1  -1  35 1056.53 661.663   1
  -1   0  35 263.350 622.284   1
   0   1  35 1328.87 687.412   1
  -1   1 -32 93.7141 376.448   1
   0  -1 -32 66.4984 405.092   1
  -1   0  32-77.1134 608.205   1
   0   1  32 269.871 687.669   1
   1  -1  32 130.286 638.452   1
   1   0 -32 136.028 334.449   1
   0   1  29 4776.47 717.367   1
   1  -1  29 3956.89 659.017   1
   1   0 -29 5264.78 463.496   1
  -1   1 -29 5167.25 464.613   1
   0  -1 -29 4796.22 460.716   1
  -1   0  29 4552.63 654.437   1
   0  -1 -26 112.516 295.406   1
   0   1  26 203.965 548.560   1
   1  -1  26 844.108 466.498   1
  -1   0  26 697.495 509.725   1
   1   0 -26 300.149 284.178   1
  -1   1 -26 33.4653 297.528   1
  -1   1 -23 784.190 271.198   1
   0  -1 -23 971.556 321.571   1
  -1   0  23 1135.40 452.204   1
   0   1  23 960.395 546.034   1
   1   0 -23 577.132 278.440   1
   1  -1  23 1659.85 422.821   1
   0  -1 -20 7947.36 516.671   1
   1  -1  20 8047.02 555.610   1
   1   0 -20 8149.27 481.811   1
  -1   1 -20 8948.83 478.471   1
  -1   0  20 8634.46 629.561   1
   0   1  20 8246.56 678.092   1
  -1   1 -17 938.083 275.851   1
   1   0 -17 1084.79 320.658   1
   1  -1  17 1325.63 438.155   1
  -1   0  17 1128.62 498.279   1
   0  -1 -17 903.550 339.695   1
  -1   0  14 6271.77 429.164   1
   0   1  14 7275.14 441.329   1
   0  -1 -14 6217.44 385.972   1
  -1   1 -14 5883.05 334.526   1
   1  -1  14 5890.55 398.622   1
   1   0 -14 5708.84 350.503   1
   1   0 -11 662.186 203.845   1
   0  -1 -11 395.317 207.892   1
  -1   0  11 893.181 264.153   1
  -1   1 -11 511.995 182.318   1
   1  -1  11 446.489 225.504   1
   0   1  11 1067.05 279.383   1
   1  -1   8 87397.4 2530.12   1
   0  -1  -8 89374.4 2552.51   1
  -1   1  -8 85583.4 2527.75   1
   1   0  -8 86197.5 2525.26   1
  -1   0   8 88264.5 2533.62   1
   0   1   8 87049.0 2557.50   1
   0   1   5 56990.2 1684.45   1
   1  -1   5 57785.5 1660.66   1
  -1   1  -5 56010.4 1658.25   1
   1   0  -5 57028.8 1658.93   1
  -1   0   5 58644.4 1660.99   1
  -1   0  -7 1976.82 201.163   1
   1   0   7 1853.45 234.840   1
   0  -1   7 1842.88 190.675   1
   0   1  -7 2127.45 156.145   1
  -1   1   7 2136.55 306.597   1
   1  -1  -7 2010.70 266.689   1
   0  -1  10 1610.85 217.139   1
  -1   0 -10 2199.25 210.516   1
  -1   1  10 1778.43 318.588   1
   0   1 -10 1701.80 178.341   1
   1  -1 -10 2211.21 229.292   1
   1   0  10 1835.32 267.807   1
   1   0  13 10041.8 495.098   1
   0  -1  13 10744.0 456.329   1
  -1   1  13 10823.6 529.338   1
   1  -1 -13 10153.8 459.531   1
  -1   0 -13 9907.49 437.467   1
   0   1 -13 10418.0 419.750   1
   0  -1  16 9006.83 490.961   1
  -1   1  16 8753.34 613.648   1
   1  -1 -16 8738.43 469.407   1
   0   1 -16 8366.22 415.130   1
   1   0  16 7659.29 525.494   1
  -1   0 -16 8023.41 442.947   1
  -1   1  19 1781.16 572.607   1
  -1   0 -19 2077.05 320.777   1
   1  -1 -19 1156.52 374.718   1
   1   0  19 1872.18 463.394   1
   0   1 -19 1246.84 299.662   1
   0  -1  19 2561.21 461.926   1
   1   0  22 3217.55 455.321   1
  -1   1  22 2604.95 541.994   1
   0  -1  22 2444.49 480.016   1
   0   1 -22 2287.20 328.740   1
  -1   0 -22 2565.51 357.338   1
   1  -1 -22 2197.47 379.951   1
  -1   0 -25 2312.08 338.419   1
   1  -1 -25 1613.65 358.423   1
   0  -1  25 2608.99 511.883   1
   1   0  25 3023.86 528.276   1
  -1   1  25 2399.28 519.915   1
   0   1 -25 2285.42 333.946   1
  -1   0 -28 13099.7 681.696   1
   1  -1 -28 14419.4 684.020   1
   0   1 -28 12976.5 654.836   1
  -1   1  28 14645.2 861.740   1
   0  -1  28 14599.5 816.223   1
   1   0  28 13140.5 831.406   1
  -1   1  31 3236.94 677.762   1
   1   0  31 3763.16 699.107   1
  -1   0 -31 3439.75 456.924   1
   0   1 -31 3450.05 435.591   1
   1  -1 -31 3876.34 421.893   1
   0  -1  31 3684.97 629.741   1
   0   1 -34 5560.70 519.599   1
   0  -1  34 5833.88 740.451   1
   1   0  34 5236.31 786.657   1
  -1   1  34 4681.77 728.678   1
   1   0  37 1649.01 702.823   1
   0  -1  37 1608.44 646.193   1
  -1   1  37 823.536 646.692   1
  -1   1  40-736.472 684.836   1
   1   0  40-584.506 717.760   1
   0  -1  40 423.459 659.008   1
   1   0  43 30.7219 662.672   1
  -1   1  43 256.895 714.166   1
   0  -1  43 268.070 647.456   1
   1  -2  42 93.3852 644.082   1
   1   1  42 29.4679 693.214   1
   1  -2  39 1764.85 658.597   1
   1   1  39 1900.36 771.507   1
  -1   2 -36 1109.64 400.859   1
  -2   1  36 327.233 678.936   1
   1   1  36 2261.50 707.541   1
   1  -2  36 1407.02 629.502   1
   1  -2  33 4303.37 700.649   1
   1   1  33 2421.13 754.424   1
  -2   1  33 2349.62 655.392   1
   2  -1 -33 3228.69 429.584   1
  -1   2 -33 3095.20 413.715   1
   1  -2  30 1308.51 594.846   1
  -2   1  30 1108.21 615.768   1
  -1  -1 -30 755.768 366.663   1
   1   1  30 883.932 681.983   1
   2  -1 -30 406.346 338.116   1
  -1   2 -30 690.218 352.235   1
  -1   2 -27 2627.71 343.101   1
   2  -1 -27 1829.35 370.909   1
  -1  -1 -27 2158.69 365.552   1
   1   1  27 2387.11 570.251   1
  -2   1  27 1728.98 560.592   1
   1  -2  27 2011.14 511.477   1
   1   1  24 1725.32 508.769   1
  -2   1  24 1479.83 500.062   1
  -1   2 -24 1100.61 281.294   1
  -1  -1 -24 1275.17 310.126   1
   2  -1 -24 636.672 339.873   1
   1  -2  24 1990.43 415.269   1
  -1  -1 -21 16805.6 724.560   1
  -1   2 -21 17062.4 667.543   1
   1  -2  21 16417.3 735.488   1
   1   1  21 17035.4 801.045   1
   2  -1 -21 16818.9 724.227   1
  -2   1  21 15740.6 812.737   1
  -1   2 -18 5285.12 374.877   1
   1   1  18 6281.32 578.726   1
   2  -1 -18 5615.87 462.126   1
  -1  -1 -18 5766.50 433.829   1
  -2   1  18 6290.40 605.079   1
   1  -2  18 5355.87 471.680   1
  -2   1  15 6950.86 521.852   1
   2  -1 -15 7366.41 427.477   1
  -1   2 -15 6611.08 353.394   1
  -1  -1 -15 6631.76 412.951   1
   1  -2  15 6546.69 418.649   1
   1   1  15 6874.77 496.319   1
  -1  -1 -12 3234.09 280.139   1
  -1   2 -12 3132.53 221.225   1
   1   1  12 3263.67 350.909   1
   1  -2  12 2999.31 260.380   1
   2  -1 -12 3192.07 291.683   1
  -2   1  12 3155.34 340.597   1
  -1  -1  -9 98959.9 2860.99   1
   1  -2   9 98459.7 2821.22   1
   2  -1  -9 95988.4 2847.67   1
  -1   2  -9 95951.0 2817.50   1
   1   1   9 100819. 2875.53   1
  -1   2  -6 7957.89 284.333   1
   1  -2   6 7904.45 293.246   1
   1   1   6 7948.36 381.924   1
   2  -1   6 5101.14 281.314   1
   1   1  -6 5651.20 218.620   1
  -1   2   6 5530.43 384.590   1
  -1  -1   6 5400.06 236.356   1
  -2   1  -6 5182.76 254.930   1
   2  -1   9 101473. 2921.10   1
  -1   2   9 102798. 2947.94   1
  -2   1  -9 98985.9 2911.56   1
   1  -2  -9 101499. 2934.97   1
   1   1  -9 98802.5 2882.32   1
  -1  -1   9 99586.4 2885.27   1
   1   1 -12 21493.5 730.542   1
  -1   2  12 23091.9 835.936   1
  -1  -1  12 23402.1 753.027   1
   1  -2 -12 22238.3 788.752   1
  -2   1 -12 22245.7 765.396   1
   2  -1  12 22359.1 784.739   1
  -2   1 -15 20238.7 725.004   1
   1  -2 -15 19803.2 765.788   1
   2  -1  15 19362.7 775.814   1
   1   1 -15 19835.5 704.672   1
  -1   2  15 19817.9 834.729   1
  -1  -1  15 20016.4 753.230   1
  -1   2  18 7934.33 694.984   1
  -1  -1  18 7986.70 553.490   1
  -2   1 -18 6580.17 453.778   1
   1   1 -18 6958.70 426.191   1
   2  -1  18 6461.40 546.095   1
   1  -2 -18 7971.92 526.620   1
  -2   1 -21 30860.4 1067.71   1
   1  -2 -21 29472.5 1104.00   1
  -1  -1  21 29594.4 1101.37   1
   2  -1  21 28724.0 1134.73   1
  -1   2  21 29952.7 1188.93   1
   1   1 -21 31046.1 1035.10   1
   2  -1  24 1396.74 449.846   1
   1  -2 -24 1016.72 352.227   1
  -1   2  24 1573.59 541.794   1
  -1  -1  24 1652.18 446.321   1
  -2   1 -24 991.394 311.642   1
   1   1 -24 1362.79 278.867   1
   1   1 -27 492.852 306.707   1
  -1   2  27 530.567 534.627   1
   1  -2 -27-262.280 369.467   1
   2  -1  27 932.066 500.195   1
  -1  -1  27 389.997 488.994   1
  -2   1 -27-92.2389 346.027   1
  -2   1 -30 2393.23 393.581   1
   1  -2 -30 2386.52 405.603   1
   2  -1  30 3716.29 617.488   1
  -1   2  30 2577.04 680.465   1
  -1  -1  30 2511.05 585.747   1
   1   1 -30 2478.15 368.295   1
  -2   1 -33 5630.80 550.962   1
  -1  -1  33 6576.58 716.219   1
  -1   2  33 6657.21 818.274   1
   2  -1  33 7219.64 794.322   1
   1   1 -33 6034.14 501.140   1
   2  -1  36 6869.34 842.417   1
   1   1 -36 5745.22 524.087   1
  -1  -1  36 5539.62 731.165   1
  -1   2  36 6148.84 798.170   1
  -1  -1  39 28.7877 608.881   1
   2  -1  39-420.790 647.132   1
  -1   2  39-182.194 662.040   1
   2  -1  42 612.267 681.399   1
  -1   2  42 324.515 730.889   1
   2  -2  43 340.027 670.526   1
   0   2  43 310.211 757.155   1
   0   2  40 196.094 754.593   1
   2  -2  40 671.289 670.713   1
   2  -2  37 182.899 651.910   1
   0   2  37 213.754 734.625   1
   2   0 -34 178.341 361.951   1
   2  -2  34 59.4134 636.469   1
   0   2  34-462.022 696.292   1
  -2   0  34-541.925 601.101   1
  -2   2 -34-103.315 369.758   1
   0   2  31 2447.92 705.196   1
   2   0 -31 1399.84 372.938   1
   0  -2 -31 2822.24 420.162   1
  -2   2 -31 1715.31 383.709   1
  -2   0  31 2059.05 603.244   1
   2  -2  31 2436.14 573.416   1
   2   0 -28 5193.08 427.143   1
   2  -2  28 5891.26 565.677   1
  -2   0  28 4686.42 597.360   1
   0   2  28 4988.99 712.100   1
  -2   2 -28 4844.90 433.728   1
   0  -2 -28 4764.70 474.325   1
   0   2  25 1277.75 586.301   1
  -2   2 -25 1481.06 305.067   1
  -2   0  25 743.646 461.876   1
   0  -2 -25 1378.86 338.026   1
   2  -2  25 1193.81 451.434   1
   2   0 -25 914.879 306.969   1
   0   2  22 9506.82 708.654   1
   2   0 -22 8287.03 494.835   1
  -2   0  22 9177.32 608.453   1
  -2   2 -22 8605.86 482.133   1
   0  -2 -22 9262.85 539.813   1
   2  -2  22 8544.58 580.088   1
  -2   0  19 5152.91 553.238   1
   0  -2 -19 4453.56 464.938   1
   0   2  19 5182.43 630.378   1
   2  -2  19 4466.73 495.983   1
   2   0 -19 5214.50 417.794   1
  -2   2 -19 5751.95 402.655   1
   2  -2  16 43597.4 1452.78   1
   0  -2 -16 45693.6 1472.51   1
   0   2  16 44890.8 1544.43   1
  -2   0  16 44248.1 1463.92   1
  -2   2 -16 44580.8 1424.05   1
   2   0 -16 46947.4 1431.89   1
   0  -2 -13 48479.8 1506.42   1
   2  -2  13 46626.9 1463.52   1
   2   0 -13 48222.9 1459.32   1
  -2   0  13 48608.0 1478.00   1
   0   2  13 46860.9 1521.74   1
  -2   2 -13 46880.5 1461.03   1
   2   0 -10 20821.7 685.179   1
  -2   2 -10 19346.8 668.515   1
   0  -2 -10 21739.7 728.785   1
   2  -2  10 20162.8 686.629   1
   0   2  10 20438.5 747.082   1
   0   2   7 9415.34 458.799   1
   2   0  -7 9165.29 371.133   1
   2  -2   7 8871.12 361.456   1
  -2   2  -7 9424.70 354.476   1
   2  -2   4 1569.81 147.384   1
   0   2   4 2415.43 250.318   1
   2   0   5 5504.04 282.395   1
   2  -2  -8 124.295 266.437   1
   0  -2   8 2.07446 138.970   1
   2   0   8-12.3731 229.639   1
   0   2  -8-41.0312 108.258   1
  -2   0  -8 101.175 187.937   1
  -2   0 -11 64409.0 1905.10   1
   0   2 -11 62589.5 1852.12   1
   2   0  11 63006.3 1918.68   1
   2  -2 -11 62018.7 1916.89   1
  -2   2  11 64354.7 1931.98   1
   0  -2  11 63668.0 1863.04   1
  -2   0 -14 12036.8 517.584   1
   2  -2 -14 13328.3 562.381   1
  -2   2  14 12027.1 624.457   1
   0  -2  14 12359.2 504.719   1
   0   2 -14 12117.6 462.534   1
   2   0  14 11420.5 587.919   1
   0   2 -17 2981.39 295.226   1
   2  -2 -17 3907.17 428.989   1
   2   0  17 3005.62 525.649   1
   0  -2  17 3986.49 406.379   1
  -2   2  17 3146.05 584.094   1
  -2   0 -17 2557.86 340.682   1
   2  -2 -20 15435.8 711.168   1
   0   2 -20 15638.5 628.113   1
   2   0  20 15338.7 757.397   1
  -2   2  20 15454.5 816.747   1
   0  -2  20 16084.5 704.586   1
  -2   0 -20 14521.9 677.419   1
   2   0  23 15406.8 785.277   1
  -2   0 -23 15919.7 700.578   1
  -2   2  23 14639.8 807.341   1
   2  -2 -23 14956.5 712.648   1
   0   2 -23 15551.7 637.372   1
   0  -2  23 14852.7 731.690   1
  -2   0 -26 4776.19 432.155   1
   2  -2 -26 4644.50 445.590   1
  -2   2  26 4969.63 625.377   1
   0  -2  26 4115.13 525.538   1
   0   2 -26 4858.75 396.031   1
   2   0  26 5522.23 578.627   1
  -2   0 -29 1957.88 377.410   1
  -2   2  29 1562.96 659.567   1
   2   0  29 3037.91 552.569   1
   0   2 -29 2047.84 359.663   1
   2  -2 -29 1329.21 418.783   1
   0  -2  29 2872.55 559.852   1
   0  -2  32 429.596 592.616   1
   2   0  32 829.412 656.009   1
  -2   0 -32 612.169 397.853   1
  -2   2  32 467.418 632.925   1
   0   2 -32 123.503 341.658   1
   2  -2 -32 561.047 364.610   1
   0   2 -35-112.167 343.554   1
  -2   2  35-701.083 677.170   1
   0  -2  35-206.208 601.142   1
   2   0  35 627.304 726.879   1
   2   0  38 29.1007 729.584   1
   0  -2  38 94.2790 614.024   1
  -2   2  38-746.720 698.556   1
   2   0  41 1134.39 672.539   1
   0  -2  41 1062.32 638.401   1
   0  -2  44 215.316 628.220   1
   2   0  44 121.432 740.062   1
   2   1  43 635.530 731.510   1
   1  -3  43 762.870 630.012   1
   1  -3  40-12.9819 635.835   1
   2   1  40 795.369 754.877   1
   2   1  37 173.052 727.411   1
  -1   3 -37 361.101 363.145   1
   1  -3  37-381.921 605.475   1
  -1   3 -34 578.988 349.150   1
   1  -3  34 384.196 586.224   1
   2   1  34 602.391 723.133   1
   3  -2 -31 4038.92 495.927   1
   1  -3  31 4478.43 645.926   1
  -1   3 -31 4538.03 443.265   1
   2   1  31 4995.28 784.278   1
  -3   2  28 7314.51 716.995   1
   2   1  28 9896.43 698.362   1
  -1   3 -28 7842.99 489.396   1
   1  -3  28 8322.03 654.627   1
   3  -2 -28 8152.05 558.371   1
  -2  -1 -28 8068.89 565.813   1
  -3   2  25 11033.3 736.670   1
  -2  -1 -25 12173.7 613.889   1
   2   1  25 11567.2 739.968   1
   1  -3  25 11846.0 620.480   1
  -1   3 -25 12339.5 568.820   1
   3  -2 -25 11839.5 615.324   1
  -1   3 -22 848.709 269.952   1
   3  -2 -22 1054.25 351.668   1
  -3   2  22 752.077 496.790   1
  -2  -1 -22 844.681 311.427   1
   1  -3  22 1788.36 373.551   1
   2   1  22 1200.81 477.194   1
  -3   2  19 8830.06 655.381   1
   2   1  19 8037.24 616.224   1
   1  -3  19 8564.09 521.240   1
  -1   3 -19 9337.38 441.591   1
   3  -2 -19 9662.15 522.650   1
  -2  -1 -19 8235.44 504.762   1
  -2  -1 -16 42251.9 1364.72   1
  -1   3 -16 41117.9 1291.66   1
   3  -2 -16 41534.4 1367.32   1
   1  -3  16 41312.9 1322.76   1
   2   1  16 40684.4 1426.06   1
   3  -2 -13 25150.7 873.411   1
  -1   3 -13 25130.2 788.843   1
   2   1  13 24658.3 904.160   1
  -2  -1 -13 25212.8 858.655   1
   1  -3  13 22831.8 796.214   1
  -1   3 -10 4986.05 225.427   1
   1  -3  10 4680.36 233.732   1
   2   1  10 4717.77 361.702   1
   3  -2 -10 4450.19 325.586   1
  -1   3  -7 144127. 4128.13   1
   1  -3   7 144702. 4128.21   1
   2   1   7 148752. 4194.16   1
   2   1   4 847.825 211.955   1
   2   1   1 60630.9 1722.42   1
  -2  -1  -1 58003.0 1718.48   1
   2   1  -2 43776.3 1266.83   1
  -3   2  -5 6638.59 299.257   1
   3  -2   5 6563.86 308.977   1
  -1   3   5 6679.16 411.551   1
   3  -2   8 192531. 5475.13   1
  -1   3   8 190587. 5507.58   1
  -3   2  -8 197251. 5474.79   1
   2   1  -8 187361. 5429.97   1
   2   1 -11 28770.3 891.106   1
   3  -2  11 29058.9 942.017   1
  -3   2 -11 28391.3 929.674   1
   1  -3 -11 27850.0 968.294   1
  -1   3  11 29661.8 1013.27   1
   3  -2  14 7139.02 432.195   1
   1  -3 -14 6501.32 451.356   1
  -1   3  14 8749.14 575.955   1
   2   1 -14 7719.42 365.943   1
  -2  -1  14 6801.82 405.687   1
  -3   2 -14 7363.72 383.164   1
  -1   3  17 21666.5 977.369   1
  -3   2 -17 22543.0 808.399   1
   3  -2  17 20426.3 861.241   1
   1  -3 -17 22087.5 873.409   1
   2   1 -17 22415.1 787.170   1
  -2  -1  17 20909.4 839.858   1
   1  -3 -20 37294.1 1297.46   1
   3  -2  20 36340.1 1287.85   1
  -2  -1  20 35725.3 1254.24   1
  -3   2 -20 37012.7 1242.11   1
  -1   3  20 35469.8 1372.95   1
   2   1 -20 37684.0 1212.58   1
   3  -2  23 13285.6 728.103   1
   2   1 -23 14198.9 613.547   1
  -3   2 -23 15248.2 652.310   1
  -2  -1  23 14909.9 705.961   1
   1  -3 -23 14029.5 703.654   1
  -1   3  23 13331.6 824.200   1
   1  -3 -26 16376.7 782.980   1
   3  -2  26 15720.5 827.328   1
   2   1 -26 16281.8 693.588   1
  -2  -1  26 17317.1 801.153   1
  -1   3  26 15868.7 894.120   1
  -3   2 -26 17179.3 743.137   1
   3  -2  29 8063.17 651.840   1
  -1   3  29 8432.27 801.769   1
   2   1 -29 8097.75 506.154   1
  -3   2 -29 8480.52 543.400   1
  -2  -1  29 7959.67 655.169   1
   1  -3 -29 8933.09 593.634   1
  -2  -1  32 222.821 570.446   1
   2   1 -32 110.647 328.988   1
  -3   2 -32 332.179 347.644   1
  -1   3  32-31.0462 668.133   1
   3  -2  32 783.088 579.180   1
  -1   3  35 5799.04 842.040   1
   2   1 -35 5594.29 469.958   1
   3  -2  35 4382.96 732.972   1
   3  -2  38 3001.73 744.359   1
  -1   3  38 2528.40 768.189   1
  -1   3  41 1468.99 805.467   1
   3  -2  41 1932.87 714.669   1
   2  -3  41 767.139 665.603   1
   1   2  41 737.796 737.872   1
   2  -3  38 984.688 656.681   1
   1   2  38 1827.46 742.302   1
  -2   3 -35 2189.07 434.445   1
   1   2  35 2767.97 781.498   1
   2  -3  35 2115.96 664.859   1
   3  -1 -35 2273.00 430.561   1
   1   2  32 1747.57 771.555   1
   3  -1 -32 745.695 379.888   1
  -2   3 -32 281.796 337.668   1
   2  -3  32 687.959 580.908   1
  -2   3 -29-0.63168 309.706   1
   2  -3  29 914.422 472.457   1
   1   2  29-394.752 646.416   1
  -1  -2 -29 404.735 378.117   1
   3  -1 -29-255.481 351.661   1
  -2   3 -26 45.5626 278.038   1
  -1  -2 -26 94.7385 332.487   1
  -3   1  26-202.057 490.944   1
   3  -1 -26-154.641 324.266   1
   1   2  26 28.7069 559.685   1
   2  -3  26 335.269 399.849   1
  -3   1  23 1002.72 471.351   1
   2  -3  23 1020.26 370.208   1
   1   2  23 1876.56 517.152   1
  -1  -2 -23 1321.52 334.421   1
  -2   3 -23 1351.28 276.092   1
   3  -1 -23 995.209 318.690   1
   3  -1 -20 13533.7 630.139   1
   2  -3  20 12755.7 649.847   1
  -2   3 -20 14029.5 591.232   1
  -1  -2 -20 14257.9 648.509   1
   1   2  20 13817.3 757.594   1
   1   2  17 3324.44 545.785   1
   3  -1 -17 2752.68 381.025   1
  -2   3 -17 1838.27 284.325   1
  -1  -2 -17 2087.26 365.513   1
   2  -3  17 1344.68 377.127   1
  -2   3 -14 10359.6 428.848   1
   1   2  14 9549.06 589.054   1
  -1  -2 -14 9933.71 507.274   1
   2  -3  14 9919.88 448.373   1
   3  -1 -14 10579.0 506.877   1
  -1  -2 -11 14205.5 569.864   1
   2  -3  11 14463.4 519.008   1
   1   2  11 14265.1 619.837   1
   3  -1 -11 14454.4 554.661   1
  -2   3 -11 14321.2 506.128   1
  -2   3  -8 321690. 9141.63   1
   2  -3   8 320741. 9140.15   1
   1   2   8 326421. 9194.79   1
   2  -3   5 7057.70 296.803   1
   1   2   5 8708.33 390.845   1
  -1  -2  -2 1249.48 172.200   1
   1   2   2 1312.05 189.573   1
   1   2  -1 4440.32 182.266   1
  -1  -2   1 4429.46 171.884   1
   3  -1   4 27860.8 872.197   1
   3  -1   7 38172.8 1184.67   1
  -3   1  -7 38286.7 1175.36   1
  -2   3  10 32050.3 1078.61   1
   3  -1  10 32569.0 1047.48   1
  -3   1 -10 32636.2 1030.09   1
  -1  -2  10 32701.3 971.414   1
   1   2 -10 31481.4 962.634   1
   2  -3 -10 32495.2 1065.08   1
   3  -1  13 9397.05 464.762   1
  -1  -2  13 8707.48 394.345   1
  -2   3  13 9381.74 563.866   1
   1   2 -13 8895.60 354.859   1
   2  -3 -13 9515.46 466.481   1
  -3   1 -13 8339.38 416.328   1
  -1  -2  16 1887.37 370.548   1
  -3   1 -16 1478.25 314.429   1
  -2   3  16 1394.36 592.622   1
   3  -1  16 505.930 419.163   1
   2  -3 -16 2075.63 389.248   1
   1   2 -16 1542.79 243.583   1
  -2   3  19 5989.82 652.965   1
   1   2 -19 7097.46 384.093   1
  -1  -2  19 6952.30 498.743   1
   3  -1  19 6086.72 569.706   1
  -3   1 -19 6843.04 470.654   1
   2  -3 -19 7131.21 522.562   1
  -1  -2  22 3968.44 448.688   1
   2  -3 -22 2765.04 407.107   1
   3  -1  22 2966.63 499.961   1
   1   2 -22 2925.50 294.779   1
  -2   3  22 3137.89 598.910   1
  -3   1 -22 3184.88 368.138   1
  -1  -2  25 3984.70 475.213   1
   1   2 -25 4033.83 344.905   1
   2  -3 -25 3402.64 455.105   1
  -2   3  25 3230.90 569.877   1
  -3   1 -25 4114.37 385.045   1
   3  -1  25 4016.26 531.411   1
  -3   1 -28 5510.43 466.767   1
   1   2 -28 5905.09 427.818   1
  -2   3  28 5790.26 678.875   1
   3  -1  28 5661.96 619.603   1
  -1  -2  28 6041.19 586.353   1
   2  -3 -28 4305.43 492.133   1
  -3   1 -31 3833.32 434.884   1
  -1  -2  31 4078.59 613.144   1
   2  -3 -31 3614.85 480.753   1
   3  -1  31 4179.60 595.027   1
  -2   3  31 3627.75 698.815   1
   1   2 -31 3742.88 404.031   1
  -2   3  34 1380.81 719.010   1
   1   2 -34 1914.09 402.852   1
  -1  -2  34 2297.14 624.014   1
   3  -1  34 2678.20 652.110   1
  -2   3  37 423.769 736.600   1
  -1  -2  37 1068.09 588.184   1
   3  -1  37 1243.70 670.419   1
   1   2 -37 487.012 369.558   1
   3  -1  40 767.683 665.911   1
  -1  -2  40-283.970 603.315   1
   3  -1  43 1280.78 729.530   1
   0   3  42 125.421 733.421   1
   3  -3  42 165.982 630.657   1
   3  -3  39 631.795 645.663   1
   0   3  39 594.007 731.965   1
   0   3  36 4973.27 805.761   1
   3  -3  36 5741.45 774.474   1
   3   0 -36 5481.92 497.275   1
  -3   3 -33 2518.83 424.091   1
   0   3  33 2167.14 722.171   1
   3   0 -33 1976.62 403.430   1
   3  -3  33 3821.82 595.728   1
  -3   3 -30 476.369 343.412   1
   3   0 -30 356.636 344.530   1
   0   3  30 1032.20 655.351   1
   3  -3  30 764.591 535.940   1
   3   0 -27-234.786 323.324   1
   0  -3 -27 563.851 371.822   1
  -3   3 -27 604.586 326.834   1
   0   3  27 764.365 627.724   1
   3  -3  27 250.817 470.152   1
  -3   3 -24 6808.49 442.670   1
   3  -3  24 6739.81 550.456   1
   0  -3 -24 6409.40 499.214   1
   3   0 -24 6782.13 460.383   1
   0   3  24 7504.70 692.851   1
   0  -3 -21 11392.2 609.235   1
   3   0 -21 11044.2 552.472   1
   3  -3  21 10837.9 620.073   1
   0   3  21 11361.9 757.197   1
  -3   3 -21 11550.3 541.513   1
   0   3  18 4823.16 680.055   1
   3   0 -18 5186.68 400.159   1
  -3   3 -18 4210.34 369.392   1
   0  -3 -18 4711.94 460.664   1
   3  -3  18 4160.11 450.283   1
   0   3  15 11123.4 739.505   1
   3  -3  15 11427.1 539.075   1
   3   0 -15 12020.2 523.680   1
  -3   3 -15 11369.4 495.617   1
   0  -3 -15 11547.6 594.568   1
   3  -3  12 10294.5 436.276   1
   0  -3 -12 9967.27 483.569   1
   0   3  12 9684.30 562.326   1
  -3   3 -12 10432.7 427.889   1
   3   0 -12 9993.44 432.206   1
  -3   3  -9 1243.60 184.692   1
   3  -3   9 1444.03 217.207   1
   0   3   9 1204.30 350.897   1
   0   3   6 137.867 345.705   1
   3  -3   6-116.454 180.377   1
   0   3   3 41151.1 1251.06   1
   0  -3  -3 40022.3 1229.50   1
   0  -3   0 22114.0 707.243   1
   0   3   0 23601.3 713.073   1
   3   0   0 22143.0 705.085   1
   3   0   3 693.364 195.866   1
   3   0   6 27901.7 904.397   1
   0  -3   9 7430.42 272.670   1
   3  -3  -9 7524.29 405.023   1
   0   3  -9 7377.02 261.667   1
   3   0   9 8259.91 390.197   1
   3   0  12 3933.86 344.394   1
   0  -3  12 3939.36 242.693   1
   0   3 -12 3969.58 205.309   1
  -3   0 -12 3726.86 297.263   1
   3  -3 -12 4292.19 385.323   1
   3   0  15 12470.0 656.137   1
   3  -3 -15 13107.6 651.950   1
   0   3 -15 12827.0 490.147   1
  -3   0 -15 12951.8 584.537   1
   0  -3  15 13935.8 527.855   1
  -3   3  18 30194.4 1207.71   1
   0  -3  18 32250.8 1052.89   1
   3   0  18 31824.8 1188.96   1
   3  -3 -18 33584.1 1137.58   1
  -3   0 -18 30077.0 1106.02   1
   0   3 -18 30545.6 1015.84   1
   3  -3 -21 28142.3 1072.95   1
   0   3 -21 28409.4 964.871   1
   0  -3  21 28921.9 1030.04   1
  -3   3  21 28094.3 1140.06   1
   3   0  21 27702.5 1109.51   1
  -3   0 -21 30183.9 1067.00   1
   0   3 -24 3659.08 325.603   1
   3  -3 -24 3814.17 445.990   1
   3   0  24 3753.49 543.957   1
   0  -3  24 4611.22 476.190   1
  -3   3  24 3021.54 542.757   1
  -3   0 -24 3737.09 375.735   1
   3   0  27 308.592 514.539   1
  -3   3  27-29.7520 599.513   1
   0  -3  27 598.285 454.511   1
  -3   0 -27 79.2762 312.479   1
   3  -3 -27-102.177 384.457   1
   0   3 -27-29.8684 263.534   1
   0  -3  30 2027.84 534.847   1
   3  -3 -30 2515.13 460.260   1
   0   3 -30 2756.98 357.568   1
  -3   0 -30 2806.54 431.987   1
   3   0  30 3388.02 616.831   1
  -3   3  30 1792.47 660.924   1
   0   3 -33 1018.09 348.515   1
   3   0  33 2367.21 678.743   1
   0  -3  33 1264.04 574.550   1
   3   0  36 494.902 752.687   1
   0   3 -36 944.455 357.909   1
   0  -3  36 1000.14 590.035   1
   3   0  39-448.526 767.500   1
   0  -3  39 220.791 608.601   1
   0  -3  42 296.538 608.543   1
   3   0  42 1377.63 721.637   1
   1  -4  41 2504.77 630.865   1
   3   1  41 3593.89 857.112   1
   3   1  38 2659.45 788.837   1
   1  -4  38 2715.75 625.038   1
   3   1  35 1528.76 733.970   1
  -1   4 -35 2256.89 370.676   1
   1  -4  35 1262.05 583.222   1
   4  -3 -32 155.835 416.853   1
   1  -4  32 146.556 521.911   1
  -1   4 -32 641.949 305.275   1
   4  -3 -29 8768.31 626.939   1
  -3  -1 -29 9156.27 593.564   1
   1  -4  29 8558.29 668.517   1
   3   1  29 8590.55 728.943   1
  -1   4 -29 9508.53 517.654   1
  -1   4 -26 10278.2 515.091   1
   3   1  26 9861.45 710.059   1
   4  -3 -26 10515.3 632.623   1
  -3  -1 -26 10865.5 624.820   1
   1  -4  26 10808.2 607.235   1
   4  -3 -23 7199.60 491.328   1
  -1   4 -23 7109.05 400.523   1
   1  -4  23 7484.27 479.954   1
  -3  -1 -23 7320.45 489.314   1
   3   1  23 7064.94 599.442   1
   1  -4  20 35415.6 1165.83   1
   4  -3 -20 34227.2 1209.80   1
   3   1  20 34370.2 1286.33   1
  -3  -1 -20 34764.5 1217.50   1
  -1   4 -20 34081.6 1119.05   1
  -3  -1 -17 57.3707 320.472   1
   3   1  17 127.810 493.910   1
  -1   4 -17 227.498 221.892   1
   1  -4  17 80.9794 306.831   1
   4  -3 -17 190.996 450.934   1
   1  -4  14-128.780 230.099   1
  -1   4 -14 407.621 179.777   1
   3   1  14 104.340 411.540   1
  -3  -1 -14 220.274 276.510   1
   4  -3 -14 550.807 411.893   1
  -1   4 -11 17831.7 574.710   1
   4  -3 -11 17720.2 685.915   1
   1  -4  11 18013.6 579.057   1
   3   1  11 17602.0 710.035   1
   1  -4   8 79663.5 2294.98   1
   3   1   8 80898.3 2386.05   1
   3   1   5 30891.5 989.071   1
   3   1   2 173962. 4930.95   1
  -3  -1  -2 170941. 4926.80   1
  -3  -1   1 27816.0 863.310   1
   3   1  -1 29299.0 867.960   1
   1  -4  -1 28047.1 899.700   1
   1  -4  -4 8635.78 427.491   1
  -1   4   4 8645.02 469.920   1
  -4   3  -7 25898.5 848.547   1
  -1   4   7 27085.4 933.640   1
   4  -3   7 26328.4 862.296   1
  -4   3 -10 47668.9 1429.00   1
   3   1 -10 45705.4 1375.73   1
  -1   4  10 45166.1 1486.86   1
   4  -3  10 46389.4 1433.10   1
  -1   4  13 21664.8 910.472   1
   1  -4 -13 23887.4 853.974   1
  -4   3 -13 22912.7 790.230   1
   4  -3  13 21029.8 790.295   1
   3   1 -13 21979.3 749.157   1
   3   1 -16 50185.2 1522.26   1
   4  -3  16 48004.3 1585.37   1
   1  -4 -16 49547.4 1628.06   1
  -4   3 -16 49799.9 1562.91   1
  -1   4  16 47972.3 1683.54   1
  -4   3 -19 2735.37 346.495   1
   1  -4 -19 2541.92 440.115   1
   3   1 -19 2516.23 318.914   1
   4  -3  19 2694.65 396.465   1
  -1   4  19 3191.90 612.686   1
   4  -3  22 7602.48 545.507   1
   1  -4 -22 6480.01 531.338   1
  -4   3 -22 7682.16 463.675   1
   3   1 -22 7211.48 431.355   1
  -1   4  22 7474.42 667.689   1
   3   1 -25 7923.32 472.957   1
  -4   3 -25 8248.06 498.873   1
   1  -4 -25 8701.28 572.333   1
   4  -3  25 7647.44 574.798   1
  -1   4  25 8684.14 713.961   1
   1  -4 -28 21670.7 950.141   1
   4  -3  28 21830.2 991.263   1
  -4   3 -28 20624.4 876.996   1
   3   1 -28 21110.6 841.070   1
  -1   4  28 21077.7 1081.31   1
   3   1 -31 15150.1 696.694   1
  -1   4  31 14043.9 1019.62   1
  -4   3 -31 15525.5 769.226   1
   4  -3  31 14522.3 861.636   1
   4  -3  34 2252.73 597.830   1
  -1   4  34 1510.90 733.487   1
   3   1 -34 1899.95 380.059   1
   4  -3  37 1095.16 594.392   1
   3   1 -37-205.774 356.964   1
  -1   4  37-184.025 731.861   1
  -1   4  40-119.970 732.727   1
   4  -3  40 353.771 739.147   1
  -1   4  43-1414.22 779.376   1
   4  -3  43 427.938 671.180   1
   2  -4  42 690.915 659.694   1
   2   2  42 832.181 766.940   1
   2  -4  39 3801.76 685.244   1
   2   2  39 3721.42 793.453   1
   2  -4  36 6422.35 719.272   1
  -2   4 -36 5517.00 494.278   1
  -2   4 -33 7077.85 500.554   1
   4  -2 -33 5579.56 534.262   1
   2   2  33 7596.08 846.730   1
   2  -4  33 7144.70 707.789   1
   2  -4  30 6041.18 574.348   1
  -2   4 -30 4881.03 424.960   1
   2   2  30 5445.19 796.526   1
   4  -2 -30 4574.15 488.645   1
  -2  -2 -27 879.182 354.850   1
  -2   4 -27 754.848 288.917   1
   2  -4  27 1806.00 436.762   1
   4  -2 -27 629.945 368.612   1
   2   2  27 1639.40 547.121   1
   4  -2 -24 1728.39 381.116   1
  -2  -2 -24 2246.05 352.880   1
   2  -4  24 1827.24 393.759   1
  -2   4 -24 1934.05 301.595   1
   2   2  24 2069.99 516.373   1
   2  -4  21 4730.92 432.143   1
  -2  -2 -21 4611.25 436.894   1
   4  -2 -21 5989.13 460.336   1
   2   2  21 5441.57 595.138   1
  -2   4 -21 5311.28 353.116   1
  -2  -2 -18 22752.9 859.533   1
   2   2  18 21528.0 936.924   1
   2  -4  18 21545.2 815.039   1
  -2   4 -18 21709.6 772.921   1
   4  -2 -18 21146.8 878.172   1
   4  -2 -15 8604.09 535.982   1
  -2   4 -15 7991.37 380.247   1
  -2  -2 -15 8552.37 485.042   1
   2   2  15 7729.10 594.579   1
   2  -4  15 7857.90 413.592   1
   4  -2 -12 12048.9 536.348   1
   2  -4  12 11609.0 452.567   1
   2   2  12 11801.7 590.732   1
  -2   4 -12 12210.1 446.115   1
   2   2   9 1821.67 305.710   1
   2  -4   9 1949.28 179.096   1
   2   2   6 72533.1 2166.65   1
  -2  -2  -3 74583.2 2182.82   1
   2   2   3 74749.8 2188.23   1
   2   2   0 275554. 7832.42   1
  -2  -2   0 277235. 7831.52   1
  -2  -2   3 4222.94 175.105   1
   2   2  -3 4396.51 178.011   1
   4  -2   3 4146.28 273.122   1
   4  -2   6 4860.63 296.060   1
  -4   2  -9 123.146 191.639   1
   2   2  -9 171.647 117.226   1
   4  -2   9 97.8722 225.183   1
  -2   4   9 17.8144 333.540   1
   2   2 -12 13417.9 461.250   1
   2  -4 -12 12995.7 611.586   1
  -4   2 -12 12966.7 535.108   1
  -2   4  12 13525.5 669.350   1
   4  -2  12 14026.4 571.872   1
  -4   2 -15 11042.2 518.201   1
   4  -2  15 11322.7 573.660   1
  -2   4  15 11016.4 733.666   1
   2  -4 -15 11763.9 603.233   1
   2   2 -15 10992.4 455.683   1
  -2  -2  18 11675.3 578.839   1
   2   2 -18 11580.1 505.146   1
   4  -2  18 12514.5 657.595   1
  -2   4  18 12267.5 818.624   1
   2  -4 -18 12395.5 661.758   1
  -4   2 -18 12932.7 573.395   1
  -2  -2  21 37.3348 371.651   1
   2  -4 -21 254.689 355.883   1
   4  -2  21 38.4927 445.411   1
  -2   4  21 151.792 574.146   1
  -4   2 -21 296.622 282.695   1
   2   2 -21 462.036 240.038   1
  -2   4  24-132.525 520.987   1
  -4   2 -24-175.559 297.324   1
  -2  -2  24-132.855 388.648   1
   2  -4 -24-131.945 381.943   1
   4  -2  24-615.401 398.233   1
   2   2 -24 13.3915 238.519   1
  -2  -2  27 2064.37 466.005   1
  -2   4  27 1822.38 616.601   1
   2  -4 -27 1435.73 431.838   1
   2   2 -27 2028.63 318.403   1
  -4   2 -27 2058.64 367.422   1
   4  -2  27 1832.38 495.189   1
   2  -4 -30 238.772 418.471   1
  -4   2 -30 732.887 379.217   1
  -2   4  30 311.382 654.657   1
   2   2 -30 413.971 297.086   1
   4  -2  30 475.400 559.029   1
  -2  -2  30-64.9712 508.540   1
   2   2 -33 6884.03 478.984   1
  -2   4  33 5713.60 802.392   1
   4  -2  33 6400.76 718.561   1
   2   2 -36 3788.32 444.507   1
  -2   4  36 4523.68 829.509   1
   4  -2  36 5572.76 717.463   1
   4  -2  39 3539.30 752.427   1
  -2   4  39 2466.02 791.231   1
   4  -2  42 692.987 678.244   1
   3  -4  43 196.079 654.435   1
   1   3  43 684.139 737.280   1
   1   3  40-1.41919 729.766   1
   3  -4  40 201.040 640.128   1
   3  -4  37 2430.76 682.672   1
   1   3  37 3200.15 826.744   1
   4  -1 -34 5929.64 507.461   1
  -3   4 -34 5740.31 486.879   1
   1   3  34 5814.96 856.384   1
   4  -1 -31 506.476 394.150   1
  -3   4 -31 1285.20 348.757   1
   1   3  31 1631.29 748.259   1
   3  -4  31 1236.24 535.295   1
   4  -1 -28-269.889 359.389   1
   3  -4  28 402.075 456.753   1
  -3   4 -28 169.794 299.327   1
  -1  -3 -28 364.690 374.347   1
   1   3  28 16.4294 658.521   1
   3  -4  25-146.278 389.898   1
  -1  -3 -25 223.613 351.150   1
  -3   4 -25 161.111 267.805   1
   4  -1 -25 199.178 340.288   1
   1   3  25 576.615 595.586   1
   3  -4  22 220.989 356.864   1
   1   3  22 386.170 564.004   1
  -3   4 -22 689.830 265.443   1
   4  -1 -22 538.397 326.277   1
  -1  -3 -22 680.457 333.950   1
   4  -1 -19 710.013 330.851   1
   3  -4  19-330.809 340.081   1
  -1  -3 -19-31.5577 360.176   1
  -3   4 -19 108.445 259.307   1
   4  -1 -16 3419.09 444.640   1
  -1  -3 -16 2924.97 423.281   1
   3  -4  16 3414.05 357.995   1
   1   3  16 4236.61 551.571   1
  -3   4 -16 3081.15 311.754   1
   3  -4  13 11741.1 511.637   1
  -3   4 -13 13088.7 502.994   1
   4  -1 -13 12975.1 557.375   1
   1   3  13 12834.8 641.877   1
  -3   4 -10 52985.8 1563.60   1
   1   3  10 48250.4 1632.39   1
   3  -4  10 53213.4 1564.74   1
   3  -4   7 61439.9 1799.26   1
   1   3   7 60005.2 1859.55   1
  -1  -3  -4 326105. 9213.75   1
   1   3   4 321964. 9218.21   1
   1   3   1 91398.7 2633.67   1
  -1  -3  -1 90574.4 2628.52   1
   1   3  -2 2785.93 170.316   1
  -1  -3   2 2609.98 154.972   1
   4  -1   5 24734.2 817.483   1
   4  -1   8 5086.02 321.764   1
   3  -4 -11 1141.03 318.506   1
   4  -1  11 1143.91 276.760   1
   1   3 -11 628.059 102.479   1
  -4   1 -11 924.505 213.947   1
  -1  -3  11 937.110 148.261   1
   1   3 -14 965.754 170.140   1
  -1  -3  14 1254.81 272.187   1
  -4   1 -14 680.771 282.574   1
   3  -4 -14 551.512 431.839   1
   4  -1  14 1030.23 348.628   1
   3  -4 -17 36909.8 1288.10   1
   1   3 -17 37154.1 1148.21   1
  -3   4  17 37044.8 1379.03   1
  -1  -3  17 37617.2 1188.24   1
  -4   1 -17 35630.8 1248.85   1
   4  -1  17 36087.2 1301.54   1
   3  -4 -20 4038.98 439.635   1
  -1  -3  20 4726.09 410.149   1
   4  -1  20 2993.74 481.597   1
   1   3 -20 3851.23 293.535   1
  -3   4  20 3028.37 574.667   1
  -4   1 -20 3652.79 387.682   1
   4  -1  23 3189.12 502.511   1
   1   3 -23 3843.07 306.419   1
  -4   1 -23 3613.44 389.771   1
  -3   4  23 3382.70 586.495   1
  -1  -3  23 3444.20 406.185   1
   3  -4 -23 3499.71 433.865   1
   3  -4 -26 2307.84 416.578   1
  -4   1 -26 2521.72 373.263   1
  -1  -3  26 2409.52 455.149   1
  -3   4  26 1897.09 571.600   1
   1   3 -26 2213.00 303.310   1
   4  -1  26 1552.14 507.859   1
  -3   4  29-514.420 650.339   1
  -1  -3  29-40.7970 476.423   1
   3  -4 -29-110.451 453.780   1
   1   3 -29 382.385 292.512   1
  -4   1 -29-88.7279 384.246   1
   4  -1  29 206.957 567.402   1
   4  -1  32 534.906 569.924   1
  -3   4  32 83.8332 716.807   1
  -1  -3  32-305.272 528.852   1
   1   3 -32-81.3888 311.641   1
  -1  -3  35-46.0326 541.648   1
   1   3 -35 88.7360 334.219   1
   1   3 -38 2473.67 382.692   1
   4  -1  38 2264.63 730.531   1
  -1  -3  38 747.995 565.343   1
   4  -1  41 2471.21 774.524   1
   4  -4  41 932.165 670.673   1
   0   4  41-122.839 802.573   1
   0   4  38-17.3755 793.263   1
   4  -4  38-403.879 621.665   1
   4   0 -35 300.999 349.632   1
   4  -4  35 1524.97 583.953   1
   0   4  35 942.048 767.031   1
   0   4  32 7167.85 853.494   1
   4   0 -32 5924.76 493.965   1
  -4   4 -32 6310.00 504.787   1
   4  -4  32 6731.99 690.728   1
  -4   4 -29 2475.31 383.263   1
   0   4  29 2487.60 686.210   1
   4  -4  29 1718.82 526.008   1
   4   0 -29 1789.78 389.440   1
  -4   4 -26 10695.7 571.670   1
   4   0 -26 10687.1 579.987   1
   0  -4 -26 10487.9 654.115   1
   0   4  26 10631.3 835.335   1
   4  -4  26 10929.0 667.860   1
   4   0 -23 14333.9 629.589   1
  -4   4 -23 15537.4 650.808   1
   0  -4 -23 13814.9 705.929   1
   0   4  23 13454.4 836.548   1
   4  -4  23 13449.0 688.292   1
  -4   4 -20 24436.5 900.384   1
   0   4  20 24517.8 1094.03   1
   0  -4 -20 25327.7 988.486   1
   4  -4  20 26188.4 941.655   1
   4   0 -20 24469.9 895.057   1
   0   4  17 4746.67 701.548   1
  -4   4 -17 4840.55 390.444   1
   4  -4  17 5482.97 438.819   1
   4   0 -17 4928.36 437.052   1
   4  -4  14 1351.37 326.254   1
  -4   4 -14 995.158 272.408   1
   0   4  14 1430.74 584.177   1
   4   0 -14 1422.76 351.003   1
   0   4  11 154.569 418.163   1
   4  -4  11 266.276 239.492   1
  -4   4 -11 108.653 198.768   1
   0   4   8 5455.05 419.964   1
   4  -4   8 5370.10 301.460   1
   0  -4  -5 1485.76 242.867   1
   0   4   5 1172.19 336.296   1
   0   4   2 2331.68 326.295   1
   0  -4  -2 2929.95 240.322   1
   0  -4   1 79340.2 2297.25   1
   0   4  -1 79484.6 2300.31   1
   4   0   1 79386.6 2319.71   1
  -4   0  -1 78955.1 2316.80   1
   4   0   4 10234.9 432.799   1
   4   0   7 65.6283 244.206   1
   4  -4 -10 986.471 306.946   1
   0  -4  10 604.200 102.732   1
   4   0  10 887.560 291.978   1
   4   0  13 54137.9 1713.41   1
  -4   0 -13 54401.7 1693.32   1
   0  -4  13 53046.0 1591.88   1
   0   4 -13 53909.9 1581.12   1
   4  -4 -13 56400.1 1733.01   1
   0   4 -16 2555.71 225.365   1
   4  -4 -16 2291.89 516.873   1
  -4   0 -16 2283.73 350.911   1
   4   0  16 1863.18 462.800   1
   0  -4  16 3324.12 303.813   1
   0  -4  19 1792.43 324.764   1
   4  -4 -19 1667.64 426.788   1
   4   0  19 402.649 461.052   1
   0   4 -19 754.009 219.213   1
  -4   0 -19 625.523 317.568   1
   0  -4  22 4180.11 407.980   1
  -4   0 -22 3987.00 387.955   1
   0   4 -22 3930.03 298.494   1
   4  -4 -22 4360.08 461.217   1
   4   0  22 3287.85 505.143   1
   0   4 -25 521.560 253.250   1
  -4   0 -25 939.315 349.988   1
   4  -4 -25 1426.80 381.446   1
   0  -4  25 873.202 399.767   1
   4   0  25 311.685 508.399   1
   4  -4 -28 3885.87 493.658   1
   0  -4  28 3980.48 513.183   1
  -4   0 -28 3412.26 437.158   1
   4   0  28 3152.43 615.664   1
   0   4 -28 3459.89 354.211   1
   0   4 -31 6302.08 454.124   1
   4  -4 -31 6781.28 582.937   1
   4   0  31 7901.00 745.684   1
   0  -4  31 7627.96 623.136   1
   0  -4  34 2502.69 568.170   1
   0   4 -34 2233.91 353.109   1
   4   0  34 3620.18 669.742   1
   0  -4  37 215.952 543.302   1
   0   4 -37 238.630 322.053   1
   4   0  37 111.786 720.371   1
   0  -4  40 532.821 577.148   1
   4   0  40 1131.12 795.366   1
   4   0  43 1389.01 838.669   1
   1  -5  42 127.231 556.393   1
   4   1  42 10.8398 725.069   1
   4   1  39-8.37708 745.746   1
   1  -5  39 325.727 538.028   1
  -1   5 -36 1595.59 321.442   1
   4   1  36 2109.84 784.316   1
   1  -5  36 2010.48 562.675   1
   4   1  33 3477.13 712.882   1
   1  -5  33 3652.11 550.969   1
  -1   5 -33 2579.09 365.745   1
   1  -5  30 270.196 493.924   1
  -1   5 -30 108.481 271.734   1
   4   1  30 353.100 568.756   1
   5  -4 -30 355.946 440.753   1
   5  -4 -27 42.9600 428.212   1
   4   1  27 504.135 537.342   1
  -1   5 -27 58.2805 257.251   1
   1  -5  27-86.6233 426.901   1
  -4  -1 -27-9.35709 358.316   1
   4   1  24 2361.75 522.433   1
  -1   5 -24 2587.30 295.937   1
   1  -5  24 2450.35 363.423   1
  -4  -1 -24 2407.92 373.264   1
   5  -4 -24 2247.70 415.130   1
   4   1  21 16694.9 877.287   1
   1  -5  21 17391.1 700.813   1
  -1   5 -21 18472.8 667.111   1
  -4  -1 -21 19635.8 803.477   1
   5  -4 -21 19228.3 824.347   1
   5  -4 -18 17052.1 781.556   1
  -1   5 -18 17426.2 609.606   1
   1  -5  18 17020.3 646.468   1
   4   1  18 16152.9 814.957   1
  -4  -1 -18 16843.6 740.319   1
  -1   5 -15 5153.77 275.604   1
   4   1  15 4626.47 553.501   1
   5  -4 -15 5253.72 561.932   1
   1  -5  15 4731.19 320.043   1
   4   1  12 2527.09 389.621   1
   5  -4 -12 1854.29 411.938   1
   1  -5  12 2196.90 189.853   1
   1  -5   9 552.269 113.828   1
   4   1   9 561.772 275.619   1
   4   1   6 39476.0 1248.32   1
   4   1   3 63193.9 1913.10   1
  -4  -1  -3 65101.8 1909.71   1
  -4  -1   0 2246.47 202.323   1
   4   1   0 2446.77 212.288   1
   1  -5   0 1835.28 247.601   1
   1  -5  -3 156243. 4631.63   1
   4   1  -3 162239. 4590.95   1
  -1   5   3 162741. 4643.31   1
   5  -4   6 3751.26 280.176   1
   1  -5  -6 3479.03 319.472   1
  -1   5   6 3371.89 363.017   1
   5  -4   9 6305.40 364.761   1
  -1   5   9 5854.67 470.734   1
  -1   5  12 138.732 520.114   1
   5  -4  12 90.8381 273.768   1
   4   1 -12-50.3688 244.996   1
  -5   4 -12 16.5623 236.830   1
  -5   4 -15 29159.9 1011.35   1
   4   1 -15 30004.8 977.330   1
   5  -4  15 28020.8 1033.76   1
  -1   5  15 28563.0 1184.24   1
   5  -4  18 25811.0 956.919   1
   1  -5 -18 25703.3 1007.45   1
   4   1 -18 26203.2 873.802   1
  -1   5  18 24431.0 1108.39   1
  -5   4 -18 24574.8 934.369   1
  -1   5  21 4997.89 678.760   1
   1  -5 -21 4622.45 465.861   1
   5  -4  21 5398.17 427.506   1
  -5   4 -21 4719.07 393.697   1
   4   1 -21 4735.12 353.808   1
   4   1 -24 1741.21 300.052   1
  -1   5  24 2150.14 617.615   1
   1  -5 -24 1444.86 412.824   1
  -5   4 -24 2313.68 359.791   1
   5  -4  24 1599.90 455.508   1
   4   1 -27-192.599 315.362   1
  -1   5  27-246.522 648.699   1
   1  -5 -27-469.953 413.581   1
  -5   4 -27-348.484 337.827   1
   5  -4  27-428.871 476.098   1
  -1   5  30 9510.00 908.620   1
   4   1 -30 9813.44 538.772   1
  -5   4 -30 8220.38 593.875   1
   5  -4  30 8739.20 745.092   1
   4   1 -33 113.084 325.489   1
   5  -4  33-333.875 544.037   1
  -1   5  33-276.135 706.804   1
  -1   5  36-671.775 774.526   1
   5  -4  36 479.188 591.146   1
   4   1 -36 92.3890 299.568   1
   5  -4  39 1399.58 635.865   1
  -1   5  39-1039.75 752.546   1
  -1   5  42-1630.95 742.931   1
   5  -4  42-312.127 678.253   1
   3   2  43 381.388 796.754   1
   2  -5  43 1470.22 635.016   1
   2  -5  40 1639.87 604.967   1
   3   2  40 1294.26 758.396   1
  -2   5 -37 145.222 346.868   1
   2  -5  37 960.238 565.384   1
   3   2  37 709.382 786.667   1
  -2   5 -34 3553.45 398.159   1
   2  -5  34 3845.38 627.177   1
   3   2  34 3783.45 785.949   1
   3   2  31 4368.69 738.665   1
  -2   5 -31 3228.80 377.121   1
   5  -3 -31 2768.27 451.281   1
   2  -5  31 3663.88 556.786   1
  -3  -2 -28 9617.41 607.086   1
   5  -3 -28 9149.48 614.771   1
  -2   5 -28 9619.28 516.958   1
   2  -5  28 8713.41 596.393   1
   3   2  28 10034.7 767.544   1
  -3  -2 -25 11645.4 662.695   1
  -2   5 -25 12331.6 560.348   1
   5  -3 -25 13107.2 651.248   1
   2  -5  25 12292.4 635.571   1
   3   2  25 12044.7 794.615   1
   5  -3 -22 7818.31 484.653   1
   2  -5  22 6814.52 457.125   1
  -2   5 -22 7828.59 406.772   1
  -3  -2 -22 6624.41 494.164   1
   3   2  22 6385.65 624.395   1
   5  -3 -19 756.773 403.502   1
  -3  -2 -19 779.311 337.127   1
  -2   5 -19 773.717 232.715   1
   2  -5  19 91.0061 324.293   1
   3   2  19 422.331 473.517   1
   5  -3 -16 2534.02 470.598   1
   3   2  16 2103.80 510.869   1
  -2   5 -16 2265.58 246.592   1
   2  -5  16 2801.63 305.591   1
   5  -3 -13 11358.2 576.011   1
   2  -5  13 11271.8 442.190   1
   3   2  13 10402.9 625.489   1
   3   2  10 14323.3 632.599   1
   2  -5  10 14736.4 499.585   1
   3   2   7 2047.61 289.561   1
   3   2   4 33710.4 1079.00   1
  -3  -2  -4 34772.9 1073.05   1
   3   2   1 193525. 5586.04   1
  -3  -2  -1 197854. 5585.02   1
  -3  -2   2 24103.0 754.658   1
   3   2  -2 25085.9 759.129   1
   5  -3   5 7619.65 373.707   1
   3   2  -5 7542.08 270.086   1
  -2   5   8 70642.1 2196.38   1
   5  -3   8 70727.5 2146.71   1
  -5   3  -8 73287.6 2146.77   1
   5  -3  11 22505.8 806.158   1
  -5   3 -11 23529.0 795.018   1
   3   2 -11 21622.6 696.846   1
  -2   5  11 21846.2 897.108   1
   3   2 -14 1203.61 222.557   1
  -2   5  14-116.182 573.289   1
  -5   3 -14 60.7545 274.959   1
   5  -3  14 11.6702 359.062   1
  -5   3 -17 2385.77 343.051   1
   5  -3  17 2145.43 423.180   1
   3   2 -17 2589.30 280.950   1
  -2   5  17 2013.74 618.953   1
   2  -5 -17 2682.48 448.730   1
  -5   3 -20 6464.90 429.007   1
   2  -5 -20 7165.48 542.511   1
   5  -3  20 6745.82 510.144   1
  -2   5  20 6328.00 671.469   1
   3   2 -20 7209.82 384.944   1
   2  -5 -23 12842.8 682.157   1
   3   2 -23 12465.5 537.513   1
   5  -3  23 11449.8 675.368   1
  -5   3 -23 12201.2 604.685   1
  -2   5  23 11589.2 786.273   1
   5  -3  26 1735.56 473.231   1
   3   2 -26 2342.21 313.759   1
  -2   5  26 2723.57 640.122   1
   2  -5 -26 1991.61 424.809   1
  -5   3 -26 2418.08 382.801   1
  -2   5  29 3087.12 723.900   1
  -5   3 -29 2103.81 403.669   1
   5  -3  29 2615.35 595.780   1
   3   2 -29 2944.43 347.384   1
   3   2 -32 31.1446 306.550   1
  -2   5  32-186.993 719.412   1
   5  -3  32-46.9020 597.599   1
   5  -3  35 1088.53 563.348   1
  -2   5  35-147.607 714.344   1
   3   2 -35-89.1336 317.763   1
  -2   5  38 1603.31 797.430   1
   5  -3  38 2287.71 669.430   1
   5  -3  41 222.995 658.567   1
   3  -5  41 1934.77 664.841   1
   2   3  41 1908.91 763.891   1
   3  -5  38 1676.17 631.610   1
   2   3  38 1215.65 821.477   1
  -3   5 -35 803.118 353.068   1
   3  -5  35 931.698 579.556   1
   5  -2 -35 501.043 404.325   1
   2   3  35 1243.86 763.287   1
   5  -2 -32 263.364 400.735   1
   2   3  32 911.966 708.040   1
   3  -5  32 1401.13 504.693   1
  -3   5 -32 556.013 336.788   1
   3  -5  29-117.586 453.244   1
   2   3  29-460.319 662.154   1
   5  -2 -29-130.808 389.226   1
  -3   5 -29-13.9986 308.719   1
   2   3  26 1270.86 618.174   1
   3  -5  26 78.9052 392.857   1
  -3   5 -26 449.364 285.641   1
  -2  -3 -26 295.984 372.338   1
   5  -2 -26 489.245 348.666   1
  -2  -3 -23 4127.11 415.271   1
  -3   5 -23 3538.58 331.861   1
   2   3  23 4828.33 601.292   1
   5  -2 -23 3981.85 418.034   1
   3  -5  23 3134.28 408.013   1
   2   3  20 236.061 482.033   1
  -2  -3 -20 342.643 327.281   1
  -3   5 -20 19.0686 242.176   1
   3  -5  20-317.337 330.398   1
   5  -2 -20 181.782 398.396   1
  -3   5 -17 12991.2 555.867   1
   2   3  17 12822.4 748.785   1
   3  -5  17 14265.2 584.744   1
   5  -2 -17 13468.5 679.992   1
  -3   5 -14 92.8969 217.648   1
   5  -2 -14-246.528 384.252   1
   3  -5  14-34.0927 257.851   1
   2   3  14 485.627 468.880   1
   2   3  11 5263.64 471.644   1
   3  -5  11 5520.16 299.996   1
   3  -5   8 11240.5 428.117   1
   2   3   8 11932.1 537.110   1
   2   3   5 147006. 4240.72   1
  -2  -3  -5 145911. 4227.55   1
   2   3   2 75176.9 2210.60   1
  -2  -3  -2 75087.7 2198.74   1
  -2  -3   1 115286. 3327.19   1
   2   3  -1 117147. 3331.31   1
   2   3  -4 5335.76 194.164   1
   5  -2   4 5911.63 323.882   1
  -2  -3   4 4891.55 190.396   1
   5  -2   7 82980.5 2466.30   1
  -5   2 -10 6613.66 366.654   1
   5  -2  10 6796.31 405.105   1
   5  -2  13-62.6952 327.437   1
   2   3 -13 7.10662 137.663   1
   3  -5 -13 309.483 431.039   1
  -5   2 -13 215.034 264.707   1
  -3   5  16 203.419 608.611   1
   2   3 -16 974.474 193.780   1
  -5   2 -16 920.607 310.318   1
   3  -5 -16 1247.56 447.681   1
   5  -2  16 853.366 416.755   1
   5  -2  19 1538.53 387.823   1
   3  -5 -19 1947.16 425.423   1
  -5   2 -19 979.701 321.058   1
  -3   5  19 658.097 567.420   1
   2   3 -19 1255.15 215.362   1
   3  -5 -22 9975.23 639.360   1
   2   3 -22 11218.6 465.909   1
  -5   2 -22 10762.3 577.501   1
   5  -2  22 10118.2 629.207   1
  -3   5  22 11155.2 772.570   1
   2   3 -25 2767.74 291.945   1
  -5   2 -25 3034.44 390.932   1
  -3   5  25 2599.60 610.958   1
   5  -2  25 2938.85 516.181   1
   3  -5 -25 3088.29 445.488   1
   2   3 -28 1815.03 298.211   1
   3  -5 -28 1492.81 459.300   1
  -5   2 -28 1468.43 381.606   1
   5  -2  28 1477.71 539.092   1
  -3   5  28 1395.56 671.516   1
   2   3 -31 260.113 308.309   1
   5  -2  31 140.546 540.165   1
  -3   5  31-289.498 701.755   1
   2   3 -34 1827.48 350.501   1
   5  -2  34 1993.99 632.426   1
   2   3 -37 1465.92 346.043   1
   5  -2  37 2340.19 617.270   1
   5  -2  40 615.799 640.135   1
   5  -2  43 183.539 776.809   1
   4  -5  42-114.104 649.916   1
   1   4  42-468.555 805.577   1
   4  -5  39 898.925 655.765   1
   1   4  39 813.101 812.391   1
   4  -5  36 873.320 558.626   1
   5  -1 -36 91.2955 372.218   1
   1   4  36 704.065 778.084   1
   1   4  33 1640.07 804.890   1
  -4   5 -33 673.416 361.289   1
   5  -1 -33 882.540 390.972   1
   4  -5  33 1321.95 538.040   1
   5  -1 -30-182.140 376.274   1
  -4   5 -30-205.783 332.943   1
   4  -5  30-197.110 499.598   1
   1   4  30-118.510 740.403   1
   5  -1 -27 137.461 352.717   1
  -4   5 -27-55.2180 294.158   1
  -1  -4 -27-290.361 378.882   1
   1   4  27 117.075 686.172   1
   4  -5  27-334.322 428.883   1
   4  -5  24 5011.28 470.666   1
  -1  -4 -24 4565.24 453.567   1
   1   4  24 4486.98 664.976   1
  -4   5 -24 5576.88 402.361   1
   5  -1 -24 4669.19 425.475   1
   5  -1 -21 7046.96 458.318   1
   4  -5  21 7272.74 464.888   1
  -1  -4 -21 6892.58 498.017   1
   1   4  21 6114.92 669.715   1
  -4   5 -21 6748.14 414.945   1
   5  -1 -18 31478.3 1107.40   1
   4  -5  18 32407.8 1093.83   1
   1   4  18 30351.2 1236.68   1
  -4   5 -18 31743.7 1074.29   1
   4  -5  15 30589.2 1061.43   1
   5  -1 -15 32531.0 1096.04   1
   1   4  15 32126.3 1201.70   1
  -4   5 -15 31953.5 1051.40   1
   4  -5  12 50257.5 1544.39   1
   1   4  12 49836.1 1634.66   1
   1   4   9 4710.03 404.315   1
   4  -5   9 4167.21 278.795   1
  -1  -4  -6 12613.8 504.616   1
   1   4   6 11821.7 530.708   1
  -1  -4  -3 28386.3 890.034   1
   1   4   3 26531.3 900.510   1
   1   4   0 85153.6 2467.08   1
  -1  -4   0 84537.4 2461.80   1
   1   4  -3 85.3263 152.426   1
  -1  -4   3 39.8811 111.857   1
   5  -1   3 171.497 213.170   1
   5  -1   6 5180.63 326.738   1
   5  -1   9 980.831 281.224   1
   5  -1  12 13265.9 578.574   1
  -1  -4  12 11733.3 371.335   1
  -5   1 -12 14349.9 540.824   1
   4  -5 -12 13920.9 632.425   1
  -1  -4  15 6271.34 324.802   1
   1   4 -15 5680.32 262.300   1
  -5   1 -15 6453.05 426.922   1
   4  -5 -15 5649.55 555.973   1
   5  -1  15 5928.96 494.248   1
   4  -5 -18 6584.74 578.774   1
  -5   1 -18 7349.06 479.876   1
  -1  -4  18 7368.43 408.311   1
   1   4 -18 6972.03 323.387   1
   5  -1  18 7258.58 535.918   1
   4  -5 -21 5542.96 469.635   1
  -5   1 -21 4911.58 407.770   1
   5  -1  21 4018.27 533.361   1
  -1  -4  21 4256.28 371.987   1
   1   4 -21 4618.80 290.432   1
   5  -1  24 5767.54 615.914   1
  -1  -4  24 6217.57 450.318   1
  -5   1 -24 6646.13 485.647   1
   4  -5 -24 5821.51 514.581   1
   1   4 -24 6006.25 354.250   1
   5  -1  27 4091.72 641.792   1
   4  -5 -27 4220.33 512.947   1
   1   4 -27 4851.91 350.003   1
  -5   1 -27 4991.98 469.600   1
  -1  -4  27 4836.28 481.089   1
  -1  -4  30 543.909 440.544   1
   5  -1  30 390.364 548.386   1
   1   4 -30 579.847 292.936   1
   1   4 -33 1171.19 308.670   1
   5  -1  33 1692.63 636.264   1
  -1  -4  33 681.537 493.434   1
   5  -1  36 3079.90 691.502   1
   1   4 -36 1937.24 343.006   1
   5  -1  39 3866.65 791.126   1
   5  -1  42 797.458 799.963   1
   5  -5  43 661.654 668.151   1
   0   5  43 1202.38 791.122   1
   0   5  40 117.313 740.298   1
   5  -5  40 660.735 625.607   1
   5  -5  37 52.6917 571.578   1
   0   5  37-224.022 770.934   1
   5   0 -37 337.204 343.221   1
  -5   5 -34 200.440 394.205   1
   0   5  34 281.372 779.280   1
   5   0 -34-258.102 351.009   1
   5  -5  34 611.718 554.598   1
   5  -5  31 9629.11 735.912   1
   0   5  31 8830.99 884.136   1
  -5   5 -31 9990.43 594.742   1
   5   0 -31 7838.43 554.957   1
   5   0 -28 5139.36 474.701   1
  -5   5 -28 6610.00 491.901   1
   5  -5  28 5266.58 588.472   1
   5   0 -25 4958.90 418.557   1
   0  -5 -25 5747.15 514.542   1
   5  -5  25 5087.40 524.304   1
   0   5  25 5075.72 696.474   1
  -5   5 -25 5408.92 436.537   1
   5  -5  22 493.758 327.286   1
  -5   5 -22 614.436 296.099   1
   5   0 -22 846.499 300.987   1
   0  -5 -22 311.773 375.339   1
   0   5  22 831.260 610.214   1
   0   5  19 231.098 611.348   1
   5  -5  19 47.5621 333.902   1
   5   0 -19 174.826 323.534   1
  -5   5 -19-111.337 256.487   1
   5  -5  16 44342.6 1445.16   1
   0   5  16 43641.1 1594.57   1
  -5   5 -16 44478.7 1433.51   1
   5   0 -16 44137.2 1415.52   1
   0   5  13 10182.3 770.726   1
   5  -5  13 10047.3 514.906   1
   0   5  10 36795.2 1290.80   1
   5  -5  10 38122.7 1209.14   1
   0   5   7 41101.9 1390.72   1
   0  -5  -7 44288.7 1367.17   1
   0   5   4 28745.2 983.894   1
   0  -5  -4 29252.9 948.829   1
   5   0  -1 1757.86 210.309   1
   0  -5  -1 2469.88 226.188   1
   0   5   1 1854.35 272.441   1
  -5   0  -2 80391.7 2348.45   1
   5   0   2 79307.0 2349.83   1
   0  -5   2 79134.2 2309.90   1
   0  -5   5 16069.2 503.189   1
   5   0   5 15670.5 608.923   1
   5   0   8 11660.8 525.260   1
   5  -5 -11 18616.4 775.610   1
   5   0  11 19195.7 769.184   1
   0  -5  14 4625.78 250.472   1
   5  -5 -14 5004.35 540.011   1
   5   0  14 4945.98 494.389   1
   0   5 -17 5620.48 272.816   1
   5  -5 -17 5311.96 562.535   1
   5   0  17 5104.78 537.378   1
  -5   0 -17 4904.46 432.269   1
   0  -5  17 6354.39 325.743   1
   5   0  20 7746.60 626.424   1
   0  -5  20 8810.64 437.688   1
   5  -5 -20 7518.11 581.932   1
  -5   0 -20 7629.18 512.054   1
   0   5 -20 8321.82 365.171   1
  -5   0 -23 2959.79 389.219   1
   5  -5 -23 4696.87 448.230   1
   0   5 -23 4263.56 292.060   1
   5   0  23 3542.78 553.625   1
   0  -5  23 4466.11 393.826   1
  -5   0 -26 8312.40 568.416   1
   5   0  26 6543.19 677.130   1
   0  -5  26 7788.51 510.453   1
   5  -5 -26 6928.51 588.088   1
   0   5 -26 7411.67 410.694   1
   0   5 -29 4764.65 381.292   1
   0  -5  29 6096.63 528.735   1
   5  -5 -29 5401.80 571.742   1
   5   0  29 4918.63 667.939   1
   0   5 -32 1423.38 307.156   1
   5   0  32 493.491 623.529   1
   0  -5  32 1453.73 488.357   1
   0   5 -35 151.896 289.145   1
   0  -5  35 88.8996 479.885   1
   5   0  35 205.936 644.971   1
   0  -5  38 1590.34 527.751   1
   5   0  38 4406.19 737.371   1
   5   0  41 1482.64 802.897   1
   1  -6  40-46.6710 484.508   1
   5   1  40 288.917 745.708   1
   1  -6  37 194.550 502.532   1
   5   1  37 1082.50 615.563   1
   5   1  34 2255.98 694.218   1
  -1   6 -34 1482.52 310.026   1
   1  -6  34 2230.52 509.364   1
  -1   6 -31 225.510 269.919   1
   5   1  31 537.857 633.948   1
   1  -6  31 829.355 453.221   1
   6  -5 -28 367.284 417.656   1
   1  -6  28 344.965 423.528   1
  -1   6 -28 40.0960 272.223   1
   5   1  28 177.141 603.259   1
  -5  -1 -25 17411.7 835.659   1
  -1   6 -25 18474.5 689.797   1
   6  -5 -25 17931.2 835.938   1
   1  -6  25 18397.7 734.530   1
   5   1  25 17411.7 970.563   1
   1  -6  22 189.392 277.110   1
  -5  -1 -22-18.2020 320.990   1
  -1   6 -22 100.794 197.228   1
   6  -5 -22 220.061 427.458   1
   5   1  22-345.533 475.642   1
   5   1  19 1772.42 497.275   1
  -5  -1 -19 2379.27 358.064   1
   6  -5 -19 3538.32 480.795   1
  -1   6 -19 3096.70 235.515   1
   1  -6  19 2625.03 286.232   1
   1  -6  16 430.807 214.735   1
   6  -5 -16 1040.91 496.307   1
   5   1  16 39.1786 466.906   1
   5   1  13 1683.84 445.175   1
   1  -6  13 1587.47 178.830   1
   1  -6  10 2848.11 165.885   1
   5   1  10 3071.72 380.544   1
   5   1   7 5278.52 384.692   1
  -5  -1  -7 4808.53 326.491   1
   5   1   4 1563.85 261.504   1
  -5  -1  -4 1510.55 224.596   1
   5   1   1 10531.2 432.263   1
   1  -6   1 10106.9 426.650   1
  -5  -1  -1 10794.2 423.375   1
   1  -6  -2 72638.7 2194.21   1
   5   1  -2 74246.3 2166.77   1
  -1   6   5-57.1267 347.929   1
   1  -6  -5 251.645 288.661   1
   6  -5   8 26491.3 913.359   1
  -1   6   8 25278.4 978.245   1
   1  -6  -8 26874.9 931.420   1
   6  -5  11 20721.9 781.470   1
  -1   6  11 21222.4 940.818   1
   6  -5  14 251.172 335.688   1
  -6   5 -14-159.326 307.440   1
   5   1 -14-63.8705 315.883   1
  -1   6  14 145.641 642.894   1
   6  -5  17 1203.67 351.409   1
  -1   6  17 1490.71 638.597   1
  -6   5 -17 1290.89 322.220   1
   5   1 -17 1533.50 340.782   1
   1  -6 -20 407.039 389.423   1
   6  -5  20-30.6575 335.355   1
  -1   6  20 606.103 576.503   1
   5   1 -20 900.407 270.014   1
  -6   5 -20-8.07341 288.855   1
  -6   5 -23 9571.89 562.129   1
   6  -5  23 10285.0 583.744   1
  -1   6  23 9445.76 785.574   1
   1  -6 -23 9156.04 609.931   1
   5   1 -23 9626.46 490.322   1
   6  -5  26 7640.49 617.608   1
  -1   6  26 7800.53 819.506   1
   1  -6 -26 8488.28 611.418   1
   5   1 -26 8246.22 483.883   1
  -6   5 -26 8003.30 533.050   1
  -6   5 -29 1424.57 407.254   1
   6  -5  29 725.931 508.140   1
   5   1 -29 641.331 339.554   1
  -1   6  29 1792.31 726.082   1
  -6   5 -32 328.041 392.945   1
   6  -5  32-26.9956 548.560   1
  -1   6  32-227.856 730.421   1
   5   1 -32 221.180 340.136   1
  -1   6  35 80.3465 796.284   1
   6  -5  35-143.560 543.964   1
   5   1 -35 437.893 311.291   1
  -1   6  38-895.738 757.899   1
   6  -5  38 270.550 548.842   1
  -1   6  41 850.269 804.468   1
   6  -5  41 1872.96 631.789   1
   4   2  41 1.54392 815.190   1
   2  -6  41 282.186 550.508   1
   2  -6  38 967.956 544.334   1
   4   2  38 1319.69 758.339   1
   2  -6  35 279.688 540.745   1
   4   2  35-499.136 737.342   1
  -2   6 -35 333.698 316.097   1
   4   2  32 705.452 601.747   1
   2  -6  32-717.665 499.282   1
  -2   6 -32-52.9879 297.740   1
   4   2  29 2094.31 622.344   1
  -2   6 -29 2276.68 320.168   1
   6  -4 -29 2133.95 455.933   1
   2  -6  29 3516.79 445.774   1
   4   2  26 25051.5 1172.47   1
  -4  -2 -26 26242.0 1053.46   1
  -2   6 -26 25683.1 919.100   1
   6  -4 -26 25832.2 1037.11   1
   2  -6  26 24893.4 972.719   1
  -2   6 -23 24709.2 851.506   1
   6  -4 -23 22651.8 987.861   1
   2  -6  23 24551.7 891.343   1
  -4  -2 -23 23620.4 964.114   1
   4   2  23 24251.2 1077.05   1
   4   2  20 5227.71 580.373   1
  -2   6 -20 6066.52 343.417   1
  -4  -2 -20 6622.41 469.929   1
   6  -4 -20 6538.18 545.183   1
   2  -6  20 5789.94 392.573   1
   2  -6  17 9287.09 416.447   1
   6  -4 -17 9554.50 596.384   1
   4   2  17 8478.18 655.356   1
   6  -4 -14-226.117 471.298   1
   4   2  14 17.4749 474.191   1
   2  -6  14 417.317 217.940   1
   2  -6  11 1367.92 186.486   1
   4   2  11 1230.24 410.022   1
  -4  -2  -8 32921.7 1087.43   1
   4   2   8 32990.4 1107.97   1
   4   2   5 177203. 5169.43   1
  -4  -2  -5 180934. 5164.60   1
   4   2   2 52144.5 1584.46   1
  -4  -2  -2 52676.9 1579.28   1
  -4  -2   1 261.717 146.610   1
   4   2  -1 361.741 161.443   1
   2  -6  -1 274.848 227.125   1
   2  -6  -4 156.760 263.878   1
   4   2  -4 36.4658 131.335   1
   2  -6  -7 18009.5 710.916   1
   6  -4   7 18353.4 690.995   1
   6  -4  10 11238.4 534.561   1
  -2   6  10 11300.3 659.422   1
  -6   4 -13 24897.3 887.096   1
   6  -4  13 25039.1 905.234   1
  -2   6  13 22547.7 1050.61   1
   4   2 -13 23359.5 785.338   1
  -2   6  16 16116.2 907.027   1
   6  -4  16 16414.7 743.816   1
   4   2 -16 16940.8 611.184   1
  -6   4 -16 17578.7 716.187   1
  -2   6  19 2175.22 642.037   1
   4   2 -19 1861.74 266.102   1
   2  -6 -19 2437.84 425.684   1
   6  -4  19 1415.28 392.715   1
  -6   4 -19 2053.74 320.703   1
  -6   4 -22 642.842 270.849   1
   2  -6 -22 1172.75 400.761   1
  -2   6  22 1074.96 611.518   1
   4   2 -22 786.299 258.444   1
   6  -4  22 1364.47 359.260   1
  -6   4 -25-56.9873 314.234   1
   4   2 -25-249.100 270.987   1
   2  -6 -25 49.2015 404.871   1
   6  -4  25-457.688 439.410   1
  -2   6  25-149.627 613.931   1
   6  -4  28 3201.11 559.506   1
   4   2 -28 3704.50 350.540   1
  -6   4 -28 3115.75 450.306   1
  -2   6  28 3973.01 734.633   1
   6  -4  31 6851.68 707.225   1
  -6   4 -31 8517.17 611.973   1
   4   2 -31 8756.58 500.449   1
  -2   6  31 7339.81 893.510   1
   4   2 -34 282.545 305.564   1
  -2   6  34 365.584 708.615   1
   6  -4  34 153.488 591.507   1
   6  -4  37 616.833 587.930   1
  -2   6  37-100.687 777.463   1
   6  -4  40 1188.04 599.287   1
  -2   6  40-346.337 741.967   1
   3   3  42 401.213 764.252   1
   3  -6  42 1031.48 618.601   1
   3   3  39 738.921 750.001   1
   3  -6  39 413.158 583.593   1
   3   3  36 348.869 774.653   1
  -3   6 -36 26.2687 342.571   1
   3  -6  36-253.319 555.431   1
  -3   6 -33 2177.93 369.407   1
   6  -3 -33 1836.20 444.449   1
   3   3  33 1482.27 739.098   1
   3  -6  33 2899.74 533.398   1
   3  -6  30 1722.09 476.990   1
   6  -3 -30 2315.07 470.077   1
  -3   6 -30 1582.61 334.252   1
   3  -6  27-331.915 416.004   1
  -3   6 -27 81.2203 293.214   1
   6  -3 -27 581.602 386.922   1
   3   3  27 342.527 601.043   1
   3  -6  24 10943.4 593.019   1
  -3   6 -24 11589.0 538.578   1
   6  -3 -24 11329.0 625.624   1
  -3  -3 -24 10562.2 620.177   1
   3   3  24 11254.5 757.811   1
  -3   6 -21 2065.68 272.926   1
   3  -6  21 1536.75 327.922   1
  -3  -3 -21 2130.36 363.889   1
   6  -3 -21 1880.32 431.841   1
   3   3  21 1738.75 540.915   1
   3   3  18 4922.75 579.369   1
   3  -6  18 4305.77 339.832   1
   6  -3 -18 4575.59 491.514   1
  -3   6 -18 4313.07 310.282   1
   3  -6  15 4316.02 332.508   1
   3   3  15 4204.70 572.306   1
   6  -3 -15 4462.14 497.382   1
   3  -6  12 1417.44 242.465   1
   3   3  12 1372.42 465.812   1
   3   3   9 14625.6 660.951   1
   3  -6   9 15473.3 539.273   1
   3   3   6 34091.8 1123.00   1
  -3  -3  -6 34481.0 1105.95   1
   3   3   3 21652.1 741.094   1
  -3  -3  -3 21742.3 725.886   1
   3   3   0 1641.55 182.842   1
  -3  -3   0 1374.79 167.771   1
   3   3  -3 13260.7 436.944   1
  -3  -3   3 12669.8 431.826   1
   6  -3   6 18872.8 679.656   1
   3   3  -6 17465.4 540.456   1
  -6   3  -9 7339.03 396.765   1
   6  -3   9 7558.69 426.887   1
   6  -3  12-40.8718 348.402   1
   3   3 -12 727.808 134.647   1
  -6   3 -12 142.453 271.421   1
  -3   6  15 10368.2 812.116   1
   3   3 -15 11072.8 416.429   1
   6  -3  15 11059.1 607.347   1
  -6   3 -15 11389.8 552.105   1
   3   3 -18 15510.1 569.023   1
   6  -3  18 16741.1 731.476   1
  -6   3 -18 16826.0 709.940   1
  -3   6  18 14289.3 882.937   1
   3  -6 -18 17111.4 763.645   1
   3  -6 -21 8416.75 569.799   1
   3   3 -21 8327.38 383.606   1
  -6   3 -21 8641.93 509.961   1
  -3   6  21 8330.07 698.413   1
   6  -3  21 9576.20 577.396   1
  -6   3 -24 5089.17 437.609   1
   3   3 -24 4545.24 315.773   1
   3  -6 -24 3542.14 489.846   1
  -3   6  24 4907.96 660.484   1
   6  -3  24 3989.73 527.832   1
  -3   6  27 464.939 664.356   1
   3  -6 -27 759.862 431.288   1
  -6   3 -27 709.244 362.671   1
   6  -3  27-13.5982 503.327   1
   3   3 -27 644.026 255.011   1
   3   3 -30-239.061 280.687   1
   6  -3  30-988.886 538.374   1
  -3   6  30-677.072 678.747   1
  -3   6  33-171.758 707.109   1
   3   3 -33 455.902 294.497   1
   6  -3  33-40.4810 586.043   1
   6  -3  36 1623.76 676.289   1
   3   3 -36 1905.24 342.235   1
   6  -3  39 1105.89 600.529   1
   6  -3  42 1091.66 697.600   1
   4  -6  40 342.953 634.061   1
   2   4  40 1002.10 776.337   1
   4  -6  37 3347.94 588.456   1
   2   4  37 2258.76 841.328   1
   6  -2 -34-396.654 388.859   1
   2   4  34-60.0528 751.334   1
  -4   6 -34-143.901 336.161   1
   4  -6  34 443.581 498.138   1
   2   4  31 1441.26 774.981   1
   4  -6  31 553.816 494.265   1
   6  -2 -31 506.634 415.709   1
  -4   6 -31 786.827 343.216   1
  -4   6 -28 5319.57 452.967   1
   2   4  28 5856.26 767.176   1
   6  -2 -28 6018.71 507.714   1
   4  -6  28 5686.68 552.973   1
   6  -2 -25 1331.29 369.922   1
   4  -6  25 242.665 380.965   1
  -4   6 -25 210.332 278.724   1
   2   4  25 293.141 582.393   1
  -2  -4 -25 285.012 369.406   1
   6  -2 -22 742.283 391.438   1
   2   4  22 1753.29 529.009   1
  -4   6 -22 514.726 258.829   1
  -2  -4 -22 622.175 327.269   1
   4  -6  22 587.268 311.504   1
   4  -6  19 14724.5 611.006   1
   6  -2 -19 12816.4 652.066   1
   2   4  19 13688.1 793.213   1
  -4   6 -19 14162.2 582.449   1
   4  -6  16 37297.6 1240.90   1
   2   4  16 39204.2 1404.15   1
   6  -2 -16 38885.9 1301.80   1
   2   4  13 59539.2 1969.43   1
   4  -6  13 61371.1 1848.20   1
   4  -6  10 161068. 4636.67   1
   2   4  10 160195. 4717.32   1
   2   4   7 39431.7 1299.44   1
  -2  -4  -7 39981.5 1269.25   1
  -2  -4  -4 11054.7 442.133   1
   2   4   4 10275.5 484.399   1
  -2  -4  -1 26361.8 821.547   1
   2   4   1 25224.5 835.617   1
   2   4  -2 3834.33 217.112   1
  -2  -4   2 3561.78 195.204   1
   6  -2   2 3445.62 284.424   1
   2   4  -5 37008.2 1033.26   1
   6  -2   5 38875.9 1162.58   1
   6  -2   8 5634.55 373.755   1
  -6   2 -11 6139.93 391.616   1
   6  -2  11 5692.35 456.985   1
   2   4 -14 317.025 96.6106   1
   6  -2  14 543.880 399.952   1
  -6   2 -14 462.390 301.248   1
   2   4 -17 4463.85 229.859   1
  -6   2 -17 4462.72 409.745   1
   4  -6 -17 5303.92 551.680   1
   6  -2  17 4300.82 461.314   1
   4  -6 -20 7954.03 559.783   1
  -6   2 -20 7035.24 475.859   1
   2   4 -20 7530.00 337.536   1
   6  -2  20 7612.76 541.771   1
   4  -6 -23 34739.8 1289.28   1
   2   4 -23 35613.5 1113.65   1
  -6   2 -23 34947.6 1255.35   1
   6  -2  23 32760.1 1302.61   1
   4  -6 -26 22014.0 995.670   1
   2   4 -26 21872.8 784.862   1
  -6   2 -26 21756.2 935.918   1
   6  -2  26 21877.5 1003.35   1
   6  -2  29 2073.46 566.304   1
   2   4 -29 1804.86 301.972   1
   2   4 -32 282.518 277.907   1
   6  -2  32-81.6342 590.628   1
   2   4 -35-125.907 290.264   1
   6  -2  35 49.8500 590.688   1
   6  -2  38 1330.30 668.647   1
   6  -2  41 1621.10 629.756   1
   5  -6  41 1781.84 640.872   1
   1   5  41 106.658 792.783   1
   1   5  38 4197.85 871.515   1
   5  -6  38 5253.47 669.791   1
   1   5  35 4816.74 873.835   1
   5  -6  35 3954.14 624.286   1
   6  -1 -35 3119.71 462.061   1
  -5   6 -35 3489.50 447.289   1
   6  -1 -32-435.370 386.453   1
   1   5  32-10.3211 788.425   1
   5  -6  32-497.687 515.350   1
  -5   6 -32-221.397 357.073   1
   6  -1 -29 5964.64 507.938   1
  -5   6 -29 5897.01 486.767   1
   1   5  29 6237.04 821.644   1
   5  -6  29 5381.39 599.227   1
  -1  -5 -26 4921.06 491.333   1
   1   5  26 6666.69 748.043   1
  -5   6 -26 5423.83 430.892   1
   5  -6  26 4890.92 506.046   1
   6  -1 -26 4838.19 462.376   1
   1   5  23 8895.36 797.914   1
   5  -6  23 11155.6 581.228   1
  -5   6 -23 10572.0 538.662   1
  -1  -5 -23 10675.7 616.531   1
   6  -1 -23 10394.8 561.826   1
   5  -6  20 43.1808 313.260   1
  -5   6 -20-74.6820 262.433   1
  -1  -5 -20 64.4729 353.313   1
   1   5  20 74.3347 576.651   1
   6  -1 -20 88.8470 348.039   1
   1   5  17 5465.97 679.543   1
   6  -1 -17 4966.33 449.420   1
   5  -6  17 5083.50 416.345   1
   5  -6  14 318.564 306.935   1
   1   5  14 1838.53 588.540   1
   1   5  11 7423.79 579.744   1
   5  -6  11 6323.08 401.796   1
   1   5   8 1719.91 374.473   1
  -1  -5  -8 490.915 268.746   1
   1   5   5 614.686 310.905   1
  -1  -5  -5 629.170 229.202   1
   1   5   2 4783.00 351.065   1
  -1  -5  -2 4880.92 289.909   1
  -1  -5   1 9.45214 154.925   1
   6  -1   1-38.4070 204.841   1
   1   5  -1 97.7738 212.807   1
   6  -1   4 10518.3 475.128   1
   1   5  -4 11230.2 386.252   1
  -1  -5   4 11140.2 372.301   1
  -6   1  -4 10407.0 459.986   1
   6  -1   7 2655.36 331.128   1
   6  -1  10 22491.9 860.395   1
   5  -6 -13 29771.2 1135.32   1
   6  -1  13 29666.8 1088.65   1
   5  -6 -16 33008.4 1181.32   1
   6  -1  16 32583.4 1140.61   1
   1   5 -16 28603.4 899.749   1
  -1  -5  16 30517.2 915.879   1
  -6   1 -16 32120.9 1089.63   1
   6  -1  19 2732.86 440.640   1
  -6   1 -19 2779.42 357.469   1
   5  -6 -19 2957.28 486.879   1
  -1  -5  19 2416.50 264.191   1
   1   5 -19 2653.80 191.996   1
  -6   1 -22 3653.90 414.984   1
  -1  -5  22 4397.38 340.437   1
   6  -1  22 4052.71 551.926   1
   5  -6 -22 4577.76 506.281   1
   1   5 -22 3839.01 249.355   1
  -6   1 -25 12529.6 650.112   1
   6  -1  25 11511.4 775.816   1
  -1  -5  25 11669.9 562.366   1
   5  -6 -25 11141.8 674.837   1
   1   5 -25 11881.6 491.891   1
   1   5 -28 20502.8 754.663   1
   6  -1  28 20425.1 1026.37   1
  -1  -5  28 19663.8 827.782   1
   5  -6 -28 21240.2 951.053   1
  -1  -5  31 16507.5 780.756   1
   1   5 -31 17325.4 696.532   1
   6  -1  31 17722.9 1006.71   1
   1   5 -34 1447.12 304.609   1
   6  -1  34 1557.36 607.129   1
   6  -1  37 522.268 658.373   1
   6  -1  40 474.579 706.296   1
   6  -6  42 951.387 583.817   1
   0   6  42-80.1975 810.122   1
   0   6  39 1491.48 789.472   1
   6  -6  39 2783.51 639.089   1
   6  -6  36 5382.71 669.132   1
   6   0 -36 4717.41 464.638   1
   0   6  36 5720.52 879.544   1
   6  -6  33 2893.86 589.383   1
   6   0 -33 1703.65 405.745   1
   0   6  33 2949.95 841.048   1
  -6   6 -33 2751.01 435.623   1
   6   0 -30-180.490 363.435   1
   6  -6  30-585.403 521.378   1
   0   6  30 670.806 721.000   1
  -6   6 -30-238.774 378.601   1
  -6   6 -27-150.790 325.203   1
   6   0 -27 193.911 329.419   1
   6  -6  27-640.028 470.695   1
   0   6  27 772.227 693.691   1
  -6   6 -24 904.682 343.098   1
   0   6  24 1662.50 683.000   1
   6  -6  24 1176.26 364.584   1
   6   0 -24 1121.78 321.000   1
   0  -6 -24 676.688 396.482   1
   0   6  21 657.762 609.408   1
   0  -6 -21-107.025 375.430   1
   6  -6  21 141.201 326.414   1
  -6   6 -21-48.0281 288.989   1
   6   0 -21-105.191 329.649   1
   0   6  18 642.235 607.550   1
  -6   6 -18 720.852 290.422   1
   6  -6  18 183.344 340.832   1
   6   0 -18 710.543 338.775   1
   6  -6  15 7011.89 462.771   1
   0   6  15 6716.60 718.777   1
   0   6  12 19781.9 951.446   1
   6  -6  12 18796.0 745.465   1
   0   6   9 566.291 488.058   1
   6  -6   9-246.971 274.127   1
   0  -6  -9-99.8837 312.992   1
   0   6   6 7141.05 486.419   1
   0  -6  -6 6595.87 405.919   1
   0   6   3 1664.37 343.788   1
   0  -6  -3 2353.08 254.548   1
   0  -6   0 6947.48 333.004   1
   6   0   0 6730.49 353.378   1
   0   6   0 6749.26 364.969   1
  -6   0  -3 17784.1 638.466   1
   6   0   3 17729.9 649.188   1
   0  -6   3 17070.8 584.302   1
   0  -6   6 21790.3 689.782   1
   6   0   6 22468.1 811.399   1
  -6   0  -6 24203.6 806.585   1
   6   0   9 4023.82 416.104   1
   6   0  12-272.402 404.635   1
   6  -6 -15 3869.26 557.341   1
   0  -6  15 4033.11 197.287   1
   6   0  15 3239.21 472.303   1
   6  -6 -18 40964.4 1406.78   1
  -6   0 -18 41285.5 1362.73   1
   0  -6  18 37771.9 1187.22   1
   6   0  18 39384.2 1396.72   1
  -6   0 -21 1371.19 334.146   1
   0   6 -21 1578.06 187.172   1
   0  -6  21 1965.13 274.756   1
   6   0  21 1137.29 476.663   1
   6  -6 -21 1222.37 443.015   1
   0  -6  24 9196.32 476.084   1
   6  -6 -24 9166.08 618.090   1
   0   6 -24 8830.36 403.918   1
  -6   0 -24 8380.96 553.910   1
   6   0  24 7834.44 680.253   1
   0  -6  27 1684.88 390.365   1
   0   6 -27 1189.09 252.186   1
   6  -6 -27 1895.88 483.781   1
   6   0  30 11533.7 851.651   1
   0   6 -30 11671.1 546.565   1
   0  -6  30 12812.2 666.487   1
   6   0  33 4463.43 691.306   1
   0   6 -33 3478.55 344.427   1
   0  -6  33 3679.27 484.188   1
   0  -6  36 845.838 460.205   1
   6   0  36 1729.58 646.742   1
   6   0  39 2357.04 724.658   1
   6   0  42 280.872 758.122   1
   6   1  41 1702.65 794.323   1
   1  -7  38 2118.30 485.876   1
   6   1  38 2893.70 704.131   1
  -1   7 -35-102.999 258.096   1
   1  -7  35-169.551 447.946   1
   6   1  35 704.053 628.504   1
   6   1  32 880.191 620.386   1
   1  -7  32 876.808 439.263   1
  -1   7 -32 383.737 258.926   1
   1  -7  29 4294.73 470.999   1
  -1   7 -29 3594.50 332.769   1
   6   1  29 2873.46 660.458   1
   7  -6 -26 7436.84 624.227   1
   6   1  26 6248.32 695.357   1
  -1   7 -26 7730.64 390.239   1
   1  -7  26 7633.55 487.937   1
   7  -6 -23 559.306 444.051   1
  -6  -1 -23 208.063 331.321   1
   1  -7  23 466.860 269.185   1
   6   1  23-98.8819 500.284   1
   6   1  20 3008.34 546.243   1
   7  -6 -20 3955.99 513.488   1
  -6  -1 -20 3116.16 376.817   1
   1  -7  20 3537.97 272.498   1
   7  -6 -17 7589.05 575.044   1
   1  -7  17 7243.87 329.200   1
   6   1  17 6955.03 578.690   1
   1  -7  14 678.807 146.416   1
   6   1  14 648.026 414.919   1
   1  -7  11 1532.78 146.226   1
   6   1  11 1361.45 436.343   1
   6   1   8 8028.17 520.769   1
  -6  -1  -8 9053.36 457.566   1
   6   1   5 61812.8 1905.31   1
   1  -7   5 61877.5 1823.25   1
  -6  -1  -5 60745.1 1891.06   1
   6   1   2 25739.3 878.746   1
  -6  -1  -2 25356.2 862.876   1
   1  -7   2 25826.2 852.402   1
   1  -7  -1 4536.15 355.989   1
   6   1  -1 4489.78 302.801   1
  -1   7   4 49.0182 388.409   1
   6   1  -4 481.052 207.910   1
   1  -7  -4 625.194 311.412   1
  -1   7   7 36126.6 1302.44   1
   1  -7  -7 38466.7 1258.96   1
   7  -6  10 30321.5 1060.64   1
  -1   7  10 29536.9 1180.01   1
   7  -6  13 2002.90 403.946   1
  -1   7  13 2820.88 682.307   1
  -1   7  16 6532.37 698.335   1
   6   1 -16 6479.84 406.346   1
   7  -6  16 6586.62 481.858   1
  -7   6 -19 1908.86 325.524   1
   7  -6  19 1267.53 332.725   1
  -1   7  19 2109.38 609.430   1
   6   1 -19 1688.64 323.633   1
  -7   6 -22 8029.81 505.940   1
  -1   7  22 7152.95 756.088   1
   6   1 -22 7802.47 435.903   1
   1  -7 -22 8247.03 573.404   1
   7  -6  22 7217.28 534.318   1
   6   1 -25 1959.61 339.994   1
  -7   6 -25 1623.62 347.026   1
  -1   7  25 1451.16 668.291   1
   7  -6  25 2034.92 446.705   1
  -7   6 -28 9239.12 587.603   1
   7  -6  28 8469.30 676.825   1
   6   1 -28 9575.83 536.097   1
  -1   7  28 9797.90 887.825   1
   7  -6  31 3680.50 609.457   1
  -7   6 -31 3536.69 469.287   1
  -1   7  31 4603.04 832.177   1
   6   1 -31 3002.22 401.167   1
   6   1 -34 3853.71 398.815   1
   7  -6  34 4521.05 635.429   1
  -1   7  34 3692.59 874.784   1
   7  -6  37 416.654 595.407   1
  -1   7  37-172.745 779.622   1
   7  -6  40 198.746 606.480   1
  -1   7  40-1243.24 822.269   1
   5   2  42 556.093 851.312   1
   5   2  39 2292.39 798.757   1
   2  -7  39 1958.35 532.016   1
   2  -7  36 2321.22 525.582   1
   5   2  36 3907.50 705.813   1
   2  -7  33 751.549 474.706   1
   5   2  33 1025.00 684.703   1
  -2   7 -33 719.068 287.109   1
  -2   7 -30 240.903 277.252   1
   7  -5 -30 695.879 424.755   1
   2  -7  30 374.356 418.428   1
   5   2  30 1095.42 615.682   1
   5   2  27 3587.49 646.086   1
   2  -7  27 5613.23 442.194   1
  -2   7 -27 4447.34 355.358   1
   7  -5 -27 5892.78 539.197   1
   5   2  24 1517.02 542.728   1
  -2   7 -24 1446.83 261.675   1
  -5  -2 -24 1347.00 381.652   1
   2  -7  24 1682.90 330.196   1
   7  -5 -24 2355.69 502.827   1
   5   2  21 10237.5 706.798   1
   7  -5 -21 10947.1 647.593   1
  -5  -2 -21 10611.9 593.488   1
   2  -7  21 11518.4 501.107   1
   5   2  18 9044.85 658.738   1
   2  -7  18 10228.9 429.224   1
   7  -5 -18 10078.1 641.186   1
   5   2  15 217.179 503.225   1
   2  -7  15 391.788 202.226   1
   2  -7  12 2183.28 220.582   1
   5   2  12 2567.21 472.665   1
  -5  -2  -9 1232.16 294.759   1
   5   2   9 1520.98 378.871   1
   5   2   6 13017.5 581.734   1
  -5  -2  -6 13704.7 561.681   1
   5   2   3 19361.4 702.310   1
  -5  -2  -3 18825.8 680.867   1
   2  -7   0 41127.1 1296.83   1
  -5  -2   0 41188.4 1273.99   1
   5   2   0 41359.5 1278.73   1
   5   2  -3 62149.0 1855.36   1
   2  -7  -3 63435.2 1918.45   1
   2  -7  -6 861.584 359.263   1
   5   2  -6 587.134 170.570   1
   2  -7  -9 1997.93 446.732   1
  -2   7   9 1592.83 562.590   1
   7  -5   9 1815.72 369.810   1
  -2   7  12 14880.9 881.306   1
   7  -5  12 15624.4 698.442   1
   5   2 -15 19136.0 666.695   1
  -2   7  15 18107.8 950.840   1
  -7   5 -15 18025.7 747.860   1
   7  -5  15 17692.7 783.298   1
  -2   7  18 20094.7 969.367   1
   5   2 -18 19394.1 698.862   1
   7  -5  18 19590.0 830.356   1
  -7   5 -18 19740.7 798.817   1
   5   2 -21 116.776 230.547   1
  -2   7  21 153.938 558.675   1
   2  -7 -21 154.483 371.173   1
  -7   5 -21-32.7923 285.243   1
   7  -5  21-70.6015 367.452   1
  -2   7  24 8618.14 809.777   1
   7  -5  24 9453.79 607.522   1
  -7   5 -24 8769.74 566.152   1
   2  -7 -24 8556.19 620.180   1
   5   2 -24 8570.46 461.586   1
  -2   7  27 1149.64 684.693   1
   5   2 -27 592.750 297.752   1
   7  -5  27 81.6691 484.633   1
  -7   5 -27 373.173 367.798   1
  -7   5 -30 11069.4 669.208   1
   7  -5  30 12469.7 801.567   1
   5   2 -30 11891.0 573.898   1
  -2   7  30 11093.6 955.371   1
   5   2 -33 2288.36 341.851   1
   7  -5  33 1166.10 602.379   1
  -2   7  33 1945.56 784.889   1
   7  -5  36 1617.33 632.883   1
  -2   7  36 1084.04 772.520   1
  -2   7  39 312.279 822.976   1
   7  -5  39 1072.80 624.495   1
   7  -5  42 79.7867 650.643   1
   4   3  40 500.643 832.750   1
   3  -7  40 245.431 523.406   1
   3  -7  37-506.355 539.610   1
   4   3  37-238.024 735.314   1
   4   3  34 159.919 760.167   1
  -3   7 -34-259.145 293.191   1
   3  -7  34 375.482 486.670   1
   7  -4 -31 4391.03 544.402   1
  -3   7 -31 4674.11 411.862   1
   3  -7  31 5833.28 540.903   1
  -3   7 -28 1028.24 301.476   1
   3  -7  28 855.043 393.893   1
   4   3  28 527.080 606.549   1
   7  -4 -28 1301.75 458.618   1
   3  -7  25 5349.49 465.262   1
  -4  -3 -25 5686.70 504.349   1
   7  -4 -25 5255.79 558.231   1
  -3   7 -25 6169.93 396.532   1
   4   3  25 5717.94 676.485   1
  -4  -3 -22 251.659 343.951   1
   4   3  22 175.952 492.747   1
   7  -4 -22 139.066 422.233   1
   3  -7  22-493.044 303.155   1
   4   3  19 3962.98 550.827   1
   7  -4 -19 3733.10 463.542   1
   3  -7  19 4259.69 326.512   1
   4   3  16 2136.92 519.608   1
   3  -7  16 1951.76 259.560   1
   7  -4 -16 1644.86 485.181   1
   4   3  13 32160.9 1204.75   1
   3  -7  13 31460.5 1007.97   1
   4   3  10 40761.5 1421.16   1
  -4  -3 -10 43703.6 1388.83   1
   3  -7  10 41815.0 1285.16   1
   4   3   7 2469.51 359.763   1
  -4  -3  -7 2824.02 301.390   1
  -4  -3  -4 13768.3 530.510   1
   4   3   4 13372.3 544.884   1
   4   3   1 37461.4 1180.84   1
  -4  -3  -1 38161.9 1174.97   1
   4   3  -2 116751. 3347.33   1
  -4  -3   2 115095. 3345.15   1
   7  -4   5 1200.58 294.192   1
   3  -7  -5 1654.37 353.665   1
   4   3  -5 1234.40 154.107   1
   4   3  -8 23744.6 731.949   1
   3  -7  -8 24643.6 926.968   1
   7  -4   8 24576.9 886.149   1
   7  -4  11 9286.52 528.418   1
   4   3 -14 7171.40 327.959   1
   7  -4  14 7139.99 533.138   1
  -7   4 -14 7549.76 466.880   1
  -7   4 -17 5061.29 430.456   1
   4   3 -17 5689.97 293.145   1
   7  -4  17 5379.96 472.099   1
  -3   7  17 5025.78 664.412   1
   3  -7 -20 10544.7 613.607   1
   4   3 -20 10103.1 423.900   1
   7  -4  20 9374.43 572.204   1
  -7   4 -20 10382.1 555.632   1
  -3   7  20 9732.58 762.563   1
   4   3 -23 12255.3 503.920   1
  -7   4 -23 12555.2 654.182   1
  -3   7  23 11356.0 830.139   1
   7  -4  23 11970.1 687.210   1
   3  -7 -23 13349.3 727.680   1
  -3   7  26 656.036 684.574   1
  -7   4 -26 735.542 375.052   1
   4   3 -26 819.143 247.976   1
   7  -4  26 280.310 488.542   1
  -7   4 -29 1458.44 374.953   1
   4   3 -29 1659.88 279.876   1
   7  -4  29 1104.66 528.314   1
  -3   7  29 496.442 696.689   1
   7  -4  32 1339.28 599.484   1
   4   3 -32 1355.86 307.620   1
  -3   7  32 825.084 753.350   1
   7  -4  35 1315.54 590.542   1
   4   3 -35 1585.14 323.395   1
   7  -4  38 1874.56 587.727   1
   7  -4  41 394.412 636.456   1
   3   4  41 3080.89 849.971   1
   4  -7  41 1974.97 652.291   1
   4  -7  38 2981.38 634.825   1
   3   4  38 2524.72 809.096   1
   4  -7  35 696.764 498.329   1
   3   4  35 1708.34 815.356   1
  -4   7 -35 974.926 333.213   1
   4  -7  32 772.908 513.638   1
  -4   7 -32 356.072 327.126   1
   7  -3 -32 906.977 414.261   1
   3   4  32 1079.78 815.371   1
   4  -7  29 1263.01 465.619   1
  -4   7 -29 1103.57 319.083   1
   3   4  29 1011.39 681.852   1
   7  -3 -29 1003.59 404.625   1
  -4   7 -26 12634.1 597.554   1
   4  -7  26 12516.4 673.485   1
   7  -3 -26 12560.8 689.595   1
   3   4  26 13686.8 847.756   1
  -3  -4 -23 2592.96 371.762   1
   3   4  23 1434.34 540.001   1
   4  -7  23 1811.77 346.624   1
  -4   7 -23 1582.26 296.211   1
   7  -3 -23 2014.32 440.401   1
   7  -3 -20 5566.32 473.118   1
   3   4  20 6482.10 593.246   1
  -3  -4 -20 4602.02 428.896   1
   4  -7  20 5376.88 384.418   1
   3   4  17 692.452 511.917   1
   7  -3 -17-94.8532 402.449   1
   4  -7  17 286.647 262.681   1
   3   4  14 36252.1 1395.81   1
   4  -7  14 39127.3 1224.16   1
   4  -7  11 42499.0 1325.05   1
   3   4  11 42025.7 1471.80   1
  -3  -4  -8 60730.0 1865.33   1
   3   4   8 59807.0 1900.96   1
   3   4   5 3437.94 339.747   1
  -3  -4  -5 3678.68 291.692   1
  -3  -4  -2 389.657 190.389   1
   3   4   2 143.908 228.165   1
   3   4  -1 33764.1 1059.51   1
  -3  -4   1 34722.0 1053.17   1
   3   4  -4 26806.4 798.238   1
   7  -3   4 25795.9 899.706   1
  -3  -4   4 25007.7 789.702   1
   7  -3   7 662.681 313.636   1
   3   4  -7 473.912 87.1506   1
  -7   3 -10 22041.2 800.569   1
   7  -3  10 20234.7 826.420   1
   7  -3  13 6840.18 514.023   1
  -7   3 -13 7425.63 466.544   1
  -7   3 -16 9179.92 502.486   1
   7  -3  16 8420.16 549.605   1
   7  -3  19 287.869 380.928   1
  -7   3 -19 35.1851 305.330   1
   3   4 -19 188.425 136.140   1
   4  -7 -22 3627.36 468.569   1
   3   4 -22 3130.29 236.666   1
   7  -3  22 3030.02 443.872   1
  -7   3 -22 2789.45 391.158   1
   7  -3  25 2376.84 539.715   1
   4  -7 -25 2888.04 483.673   1
  -7   3 -25 2780.47 415.593   1
   3   4 -25 2821.77 257.797   1
   7  -3  28 6429.63 650.318   1
  -7   3 -28 5839.94 521.801   1
   3   4 -28 6633.68 378.506   1
   7  -3  31 2122.19 590.529   1
   3   4 -31 1793.68 312.358   1
   7  -3  34 1312.01 596.069   1
   3   4 -34 1084.42 303.207   1
   7  -3  37-312.656 642.136   1
   7  -3  40 900.404 612.742   1
   5  -7  42 514.346 628.571   1
   2   5  42 3.32590 791.268   1
   5  -7  39 1365.63 563.749   1
   2   5  39 1464.59 842.995   1
   2   5  36 818.915 795.987   1
  -5   7 -36 171.961 345.692   1
   5  -7  36 628.317 503.300   1
   7  -2 -33 172.391 382.767   1
  -5   7 -33 137.830 323.326   1
   5  -7  33 203.778 494.751   1
   2   5  33-213.066 797.313   1
   5  -7  30 410.440 473.388   1
  -5   7 -30 840.389 338.665   1
   2   5  30 1638.02 765.153   1
   7  -2 -30 1233.51 419.814   1
   2   5  27 550.495 679.299   1
   7  -2 -27 1155.92 395.272   1
   5  -7  27-245.196 420.197   1
  -5   7 -27 216.711 314.881   1
   7  -2 -24 287.049 423.618   1
   2   5  24 112.944 609.065   1
   5  -7  24 105.496 341.943   1
  -2  -5 -24-44.2249 341.622   1
  -5   7 -24-28.3390 275.957   1
  -2  -5 -21 10460.3 591.844   1
   5  -7  21 9629.08 525.120   1
   7  -2 -21 9886.02 577.716   1
   2   5  21 10841.7 699.766   1
   5  -7  18 50401.6 1585.46   1
   2   5  18 47543.8 1720.07   1
   7  -2 -18 50292.7 1624.46   1
   2   5  15 38267.5 1405.04   1
   5  -7  15 38638.0 1258.39   1
   5  -7  12 33775.5 1118.60   1
   2   5  12 34033.8 1251.35   1
  -2  -5  -9 19577.0 769.410   1
   2   5   9 20240.8 828.104   1
  -2  -5  -6 6847.71 394.554   1
   2   5   6 7372.04 471.001   1
  -2  -5  -3 12918.8 513.959   1
   2   5   3 13519.6 555.720   1
  -2  -5   0 303.940 165.168   1
   2   5   0 300.252 222.329   1
   2   5  -3 24139.4 749.983   1
  -2  -5   3 23460.7 736.829   1
   7  -2   3 22863.7 840.941   1
   2   5  -6 17056.3 515.934   1
  -2  -5   6 15742.8 498.623   1
   7  -2   6 18517.9 679.015   1
   7  -2   9 15580.5 672.022   1
   7  -2  12 16877.9 760.065   1
  -7   2 -15 18244.5 757.078   1
   7  -2  15 17593.3 807.966   1
   7  -2  18 5916.75 496.140   1
  -7   2 -18 5646.42 433.361   1
   5  -7 -18 5965.66 539.336   1
   5  -7 -21 785.616 459.902   1
   2   5 -21 677.896 142.380   1
  -7   2 -21 711.387 320.976   1
   7  -2  21 328.042 418.653   1
   2   5 -24 6727.14 323.857   1
   7  -2  24 5269.88 587.259   1
  -7   2 -24 5866.46 485.474   1
   5  -7 -24 7475.31 588.047   1
   2   5 -27 32.1215 206.034   1
   7  -2  27-354.127 550.323   1
   2   5 -30 3433.58 315.002   1
   7  -2  30 2679.89 626.722   1
   2   5 -33 2840.75 308.994   1
   7  -2  33 1933.60 646.113   1
   7  -2  36 776.858 648.841   1
   7  -2  39 1240.03 690.587   1
   7  -2  42 1159.74 680.456   1
   1   6  40 634.700 789.981   1
   6  -7  40-112.731 556.364   1
   6  -7  37 214.569 552.488   1
   1   6  37 124.341 789.582   1
   6  -7  34-152.825 539.428   1
   7  -1 -34-134.407 391.416   1
   1   6  34 222.334 790.602   1
  -6   7 -34-317.442 340.320   1
   7  -1 -31 2579.20 441.837   1
   6  -7  31 2540.51 547.792   1
   1   6  31 2989.54 785.975   1
  -6   7 -31 3258.70 416.526   1
  -6   7 -28 1141.97 353.202   1
   7  -1 -28 1045.33 384.633   1
   1   6  28 1404.68 747.150   1
   6  -7  28 135.334 461.381   1
  -6   7 -25 2155.89 347.174   1
   6  -7  25 1811.68 414.606   1
   1   6  25 2465.12 695.282   1
   7  -1 -22 2694.59 407.773   1
  -1  -6 -22 2929.08 432.363   1
   6  -7  22 3092.82 400.247   1
   1   6  22 2629.11 668.035   1
   6  -7  19 13786.2 614.347   1
   1   6  19 11683.7 825.261   1
   7  -1 -19 11957.3 594.197   1
   6  -7  16 22758.2 853.619   1
   1   6  16 23480.0 1067.83   1
   6  -7  13 6456.42 435.549   1
   1   6  13 6692.75 715.709   1
  -1  -6 -10 26675.7 980.196   1
   1   6  10 24239.2 1091.95   1
   6  -7  10 26119.4 923.694   1
  -1  -6  -7 85.7232 290.784   1
   1   6   7 512.805 456.429   1
   1   6   4 16059.0 689.206   1
  -1  -6  -4 15866.2 624.469   1
   1   6   1 5764.93 395.007   1
   7  -1  -1 5344.78 355.644   1
  -1  -6  -1 5913.70 321.849   1
   7  -1   2 17601.9 684.118   1
   1   6  -2 18279.6 633.653   1
  -1  -6   2 18086.7 610.654   1
  -1  -6   5 41643.8 1239.05   1
  -7   1  -5 42763.9 1349.57   1
   7  -1   5 41957.1 1357.45   1
   7  -1   8 1310.48 377.904   1
   7  -1  11 38021.9 1315.72   1
   6  -7 -14 14213.4 770.717   1
   7  -1  14 14802.9 724.545   1
   7  -1  17 5139.37 499.615   1
  -7   1 -17 4167.78 404.856   1
   6  -7 -17 4896.91 535.147   1
   7  -1  20 5886.05 546.288   1
   6  -7 -20 5583.17 544.705   1
  -7   1 -20 5243.21 449.438   1
   1   6 -23 9818.96 388.899   1
  -7   1 -23 10219.5 589.832   1
   7  -1  23 8527.94 679.137   1
   6  -7 -23 10120.1 675.261   1
   7  -1  26 10188.8 779.297   1
   6  -7 -26 10839.4 678.729   1
   1   6 -26 10151.5 434.245   1
   1   6 -29 432.130 231.153   1
   7  -1  29 583.794 605.178   1
   7  -1  32 154.898 591.374   1
   1   6 -32 81.0834 199.525   1
   7  -1  35 1477.14 640.784   1
   7  -1  38 907.354 685.545   1
   7  -1  41 2421.73 738.470   1
   7  -7  41 700.775 583.492   1
   0   7  41 876.128 836.778   1
   0   7  38 1810.01 846.341   1
   7  -7  38 2691.02 639.841   1
   0   7  35 820.237 791.727   1
   7  -7  35-75.1894 556.524   1
   7   0 -35 104.185 357.271   1
   7   0 -32 1007.51 370.290   1
   7  -7  32 2.73364 532.298   1
  -7   7 -32 739.133 404.934   1
  -7   7 -29 378.463 375.609   1
   7  -7  29-95.7371 482.325   1
   7   0 -29 498.107 352.900   1
   0   7  29 879.571 780.217   1
   7   0 -26 1378.57 346.945   1
   7  -7  26 715.826 418.812   1
  -7   7 -26 887.791 360.398   1
   0   7  26 1520.39 737.110   1
   0  -7 -23 8733.67 624.701   1
   7   0 -23 9939.82 544.453   1
   7  -7  23 9759.56 596.382   1
   0   7  23 9849.61 827.556   1
   7   0 -20 797.727 334.755   1
   7  -7  20 359.382 321.333   1
   0  -7 -20 149.109 369.202   1
   0   7  20-73.5684 593.857   1
   0   7  17 547.133 584.003   1
   7   0 -17 623.383 320.866   1
   7  -7  17 457.347 324.698   1
   0   7  14 708.586 600.384   1
   7  -7  14 135.557 326.149   1
   7  -7  11 29833.3 1051.92   1
   0   7  11 28579.5 1213.19   1
   0   7   8 13801.3 804.860   1
   0  -7  -8 14156.3 655.892   1
   0   7   5 14774.6 697.324   1
   0  -7  -5 14654.6 629.287   1
   0   7   2 25176.8 915.663   1
   7   0  -2 25921.2 872.858   1
   0  -7  -2 25130.9 870.684   1
   7   0   1 13956.5 555.497   1
   0  -7   1 12447.7 508.537   1
   7   0   4 5698.06 414.031   1
  -7   0  -4 5579.31 370.283   1
   0  -7   4 6085.02 307.124   1
   0  -7   7 11587.3 426.557   1
  -7   0  -7 12595.0 557.782   1
   7   0   7 12432.8 605.116   1
   7   0  10 30162.4 1103.66   1
   7   0  13 18388.0 817.858   1
   7   0  16 2917.00 473.327   1
   7  -7 -16 2764.83 517.887   1
   7   0  19 66.0606 403.543   1
  -7   0 -19 120.374 302.365   1
   0  -7  19 178.017 151.459   1
  -7   0 -22 2523.23 372.981   1
   7   0  22 1800.53 523.746   1
   0  -7  22 2537.04 252.512   1
   7  -7 -22 1508.62 528.817   1
   0  -7  25 6471.43 393.746   1
   7   0  25 5069.35 666.568   1
   7  -7 -25 6294.08 643.915   1
   7   0  28 3402.78 649.305   1
   0  -7  28 3273.76 393.497   1
   0   7 -28 3833.35 287.557   1
   0   7 -31 60.0507 211.316   1
   0  -7  31 353.677 379.117   1
   7   0  31-181.671 612.831   1
   0   7 -34 896.667 263.000   1
   7   0  34 132.805 625.642   1
   7   0  37 1308.44 700.530   1
   7   0  40 1117.63 701.336   1
   7   1  39 1810.96 685.517   1
   1  -8  36-454.585 396.664   1
   7   1  36 837.091 704.272   1
   1  -8  33 515.965 387.241   1
   7   1  33-87.9347 691.159   1
   7   1  30 840.079 653.547   1
   1  -8  30 1419.46 387.985   1
   1  -8  27 1534.65 348.937   1
   7   1  27 1038.15 602.975   1
   7   1  24 10602.0 776.263   1
   8  -7 -24 11259.2 751.435   1
   1  -8  24 10936.8 489.105   1
  -7  -1 -21 8030.76 526.987   1
   7   1  21 6559.64 637.854   1
   8  -7 -21 6459.87 601.162   1
   1  -8  21 7554.43 341.150   1
   7   1  18 29094.8 1123.00   1
   8  -7 -18 28643.4 1121.01   1
  -7  -1 -18 29180.9 1066.18   1
   1  -8  18 27109.3 861.949   1
   1  -8  15 3273.89 175.029   1
   7   1  15 4970.73 489.359   1
   1  -8  12 5927.70 239.830   1
   7   1  12 6881.64 536.979   1
   7   1   9 1854.52 460.390   1
  -7  -1  -6 56471.4 1767.54   1
   1  -8   6 56244.9 1684.19   1
   7   1   6 55176.9 1788.95   1
  -7  -1  -3-64.8682 274.681   1
   7   1   3-179.361 356.172   1
   1  -8   3 99.3544 296.929   1
   7   1   0 38757.0 1232.18   1
   1  -8   0 36895.9 1232.45   1
   1  -8  -3 29066.3 1044.56   1
   7   1  -3 29678.4 984.682   1
  -1   8   6 3583.86 577.500   1
   7   1  -6 4173.45 326.220   1
   8  -7   9 4774.88 448.200   1
  -1   8   9 5304.96 662.787   1
   8  -7  12-86.4715 342.396   1
  -1   8  12 284.193 644.276   1
   8  -7  15 26546.5 979.958   1
  -1   8  15 25477.0 1155.56   1
  -1   8  18 9084.64 738.539   1
   8  -7  18 7602.32 517.540   1
   7   1 -18 7750.85 442.399   1
   8  -7  21 108.992 368.789   1
   7   1 -21 143.092 308.002   1
   1  -8 -21-68.2563 381.513   1
  -1   8  21 112.289 605.441   1
   8  -7  24 829.974 434.915   1
   7   1 -24 1538.44 313.321   1
  -1   8  24 1960.70 691.432   1
  -8   7 -27 4251.64 449.424   1
   8  -7  27 4925.97 548.127   1
   7   1 -27 4716.60 415.620   1
  -1   8  27 4526.45 809.292   1
   8  -7  30 515.254 521.840   1
   7   1 -30 531.112 351.339   1
  -8   7 -30 708.352 375.563   1
  -1   8  30 641.931 806.217   1
  -1   8  33-226.905 780.340   1
   8  -7  33-396.556 555.314   1
   7   1 -33-158.838 336.775   1
  -1   8  36 125.440 767.149   1
   8  -7  36-238.898 550.778   1
   8  -7  39 947.484 630.085   1
  -1   8  39 1064.89 844.987   1
   6   2  40 1016.87 772.728   1
   2  -8  37 331.778 454.135   1
   6   2  37 1872.79 702.032   1
   6   2  34 1005.57 701.638   1
   2  -8  34 966.721 464.519   1
   6   2  31-451.984 638.402   1
   2  -8  31 123.969 423.319   1
   8  -6 -28 550.330 470.513   1
   2  -8  28 851.336 356.003   1
   6   2  28 285.579 578.177   1
   2  -8  25 695.511 310.496   1
   6   2  25-143.427 572.859   1
   8  -6 -25 222.255 457.200   1
   2  -8  22 3434.90 318.890   1
   8  -6 -22 3716.31 535.807   1
   6   2  22 3426.20 566.714   1
  -6  -2 -22 4053.92 442.540   1
   8  -6 -19 3829.43 512.458   1
  -6  -2 -19 4126.51 413.531   1
   6   2  19 3735.98 522.882   1
   2  -8  19 3624.11 274.585   1
   2  -8  16 231.079 175.900   1
   6   2  16 425.039 473.595   1
   2  -8  13 44645.9 1346.47   1
   6   2  13 45958.8 1534.71   1
   6   2  10 65581.5 2078.11   1
  -6  -2  -7 4354.17 381.913   1
   6   2   7 4290.34 461.924   1
  -6  -2  -4 113007. 3316.59   1
   6   2   4 111481. 3327.20   1
   2  -8   1 115.033 303.194   1
   6   2   1 38.8188 282.995   1
  -6  -2  -1 94.8045 232.209   1
   2  -8  -2 9416.90 510.500   1
   6   2  -2 9551.85 430.511   1
   6   2  -5 324.181 216.066   1
   2  -8  -5 309.654 393.649   1
   8  -6   8 25188.9 968.154   1
   6   2  -8 26741.3 854.320   1
   2  -8  -8 26977.1 1026.33   1
  -2   8  11 12469.2 813.554   1
   8  -6  11 12485.2 626.087   1
   8  -6  14 5622.13 466.627   1
  -2   8  14 4715.75 679.918   1
  -2   8  17 8598.38 715.233   1
   8  -6  17 7753.64 514.556   1
   6   2 -17 8179.96 408.006   1
  -2   8  20 501.296 583.973   1
   2  -8 -20 620.955 385.897   1
   6   2 -20 318.554 254.701   1
   8  -6  20 395.356 378.512   1
  -8   6 -20 418.165 310.241   1
   2  -8 -23 19674.4 936.248   1
  -8   6 -23 20625.5 863.062   1
   8  -6  23 21537.9 912.660   1
  -2   8  23 18269.7 1051.48   1
   6   2 -23 19963.7 742.641   1
  -8   6 -26 5076.69 486.010   1
   6   2 -26 4602.66 371.018   1
   8  -6  26 4351.64 497.751   1
  -2   8  26 4800.80 784.875   1
  -8   6 -29-253.466 388.022   1
  -2   8  29 389.494 718.522   1
   8  -6  29-164.530 508.962   1
   6   2 -29-143.558 306.863   1
  -2   8  32-536.639 749.076   1
   8  -6  32 127.403 551.878   1
   6   2 -32 861.598 292.685   1
   8  -6  35-475.138 583.195   1
  -2   8  35-141.694 764.678   1
   8  -6  38 73.5478 608.695   1
  -2   8  38 377.229 861.052   1
   8  -6  41 446.235 633.891   1
   3  -8  41 2148.81 555.016   1
   5   3  41 1061.51 867.635   1
   5   3  38 4060.00 866.914   1
   3  -8  38 5480.13 630.390   1
   5   3  35 2130.88 709.828   1
   3  -8  35 1873.97 511.457   1
   3  -8  32 1368.45 416.307   1
   5   3  32 1376.15 638.937   1
   3  -8  29-104.563 372.394   1
   8  -5 -29 498.580 457.551   1
   5   3  29-271.462 627.630   1
   8  -5 -26 1583.28 527.504   1
   5   3  26 1348.85 585.769   1
   3  -8  26 1592.51 369.393   1
  -5  -3 -23 695.559 363.052   1
   5   3  23 942.898 537.577   1
   3  -8  23 284.877 300.836   1
   8  -5 -23 1003.15 432.624   1
   3  -8  20 3568.26 299.321   1
   5   3  20 2818.77 541.899   1
   8  -5 -20 3130.53 475.506   1
  -5  -3 -20 3548.50 404.907   1
   5   3  17 7079.61 629.505   1
   8  -5 -17 8981.93 580.490   1
   3  -8  17 8074.17 386.901   1
   5   3  14 22239.0 982.720   1
   3  -8  14 23096.5 765.022   1
   5   3  11 41719.3 1445.54   1
   3  -8  11 41068.0 1269.53   1
  -5  -3  -8 10097.5 509.531   1
   5   3   8 9987.40 572.897   1
  -5  -3  -5 75954.6 2283.00   1
   5   3   5 75138.5 2297.15   1
  -5  -3  -2 122946. 3596.61   1
   5   3   2 123488. 3605.48   1
   5   3  -1 9219.54 412.871   1
  -5  -3   1 9089.28 396.814   1
   5   3  -4 19219.2 659.222   1
   3  -8  -4 20227.1 790.854   1
   8  -5   7 12458.7 627.799   1
   5   3  -7 13059.2 464.846   1
   3  -8  -7 13993.3 687.717   1
   8  -5  10 5520.11 474.890   1
   5   3 -10 5856.36 266.626   1
   8  -5  13 4824.08 465.077   1
   8  -5  16 13692.7 658.999   1
   5   3 -16 12054.9 473.154   1
  -8   5 -16 13655.2 609.884   1
  -3   8  16 11514.6 801.385   1
   3  -8 -19 568.181 382.266   1
   8  -5  19 195.670 349.723   1
  -8   5 -19 497.178 303.195   1
   5   3 -19 548.353 195.773   1
  -3   8  19-211.789 581.440   1
  -3   8  22 45.0592 636.838   1
   3  -8 -22 285.803 412.586   1
   5   3 -22 165.861 215.342   1
   8  -5  22 92.5504 395.437   1
  -8   5 -22 396.163 314.924   1
   5   3 -25-163.724 246.089   1
   8  -5  25 31.7476 399.556   1
  -3   8  25 80.7948 675.997   1
  -8   5 -25-46.6850 358.712   1
  -3   8  28-212.231 724.193   1
   5   3 -28 179.840 241.442   1
   8  -5  28-51.0804 474.446   1
  -8   5 -28 125.763 355.757   1
  -3   8  31 13674.6 1041.26   1
   5   3 -31 14551.7 624.539   1
   8  -5  31 15336.2 935.281   1
   5   3 -34 233.312 264.255   1
   8  -5  34 137.362 546.838   1
   8  -5  37-107.643 590.584   1
   8  -5  40 293.395 616.999   1
   4  -8  39 2451.65 584.867   1
   4   4  39 2521.28 855.913   1
   4   4  36 3827.64 856.455   1
   4  -8  36 5124.94 576.391   1
   4   4  33 3897.49 817.588   1
   4  -8  33 3664.64 514.177   1
   4  -8  30 1461.40 437.482   1
   8  -4 -30 1839.43 453.366   1
   4   4  30 2862.54 703.369   1
   4   4  27 818.726 630.877   1
   8  -4 -27 355.533 488.019   1
   4  -8  27 407.071 385.816   1
   4   4  24 506.363 550.020   1
   4  -8  24-219.946 344.098   1
   8  -4 -24 557.878 432.144   1
  -4  -4 -21 1384.26 343.234   1
   4  -8  21 1173.64 288.790   1
   4   4  21 1412.27 518.832   1
   8  -4 -21 1654.47 450.251   1
   4  -8  18 18998.6 720.641   1
   4   4  18 19533.3 944.272   1
   8  -4 -18 20682.7 855.745   1
   4  -8  15 112.995 241.070   1
   4   4  15 160.718 486.610   1
   4  -8  12 5127.24 346.420   1
   4   4  12 5074.65 583.426   1
  -4  -4  -9 581.860 312.368   1
   4   4   9 255.555 448.613   1
   4   4   6 19512.0 807.290   1
  -4  -4  -6 20728.4 761.235   1
   4   4   3 112518. 3319.87   1
  -4  -4  -3 112997. 3307.51   1
  -4  -4   0 44150.2 1380.40   1
   4   4   0 46137.0 1390.56   1
  -4  -4   3 55919.5 1660.44   1
   4   4  -3 55788.4 1663.28   1
   4  -8  -6 9.63748 409.860   1
   8  -4   6 487.378 360.869   1
   4   4  -6 541.527 162.746   1
   8  -4   9 32.9862 379.299   1
   4   4  -9-28.2121 106.131   1
   8  -4  12 21082.2 854.854   1
  -8   4 -12 20718.6 819.289   1
   8  -4  15 16508.0 704.383   1
  -8   4 -15 15627.4 639.286   1
  -8   4 -18 24124.8 903.212   1
   8  -4  18 24845.1 938.963   1
  -8   4 -21 4051.10 431.920   1
   4   4 -21 4739.49 242.594   1
   8  -4  21 5420.26 511.160   1
   4  -8 -21 5932.36 530.717   1
   4  -8 -24 2425.32 476.150   1
  -8   4 -24 1545.85 387.756   1
   4   4 -24 1623.83 207.074   1
   8  -4  24 1793.44 467.021   1
   8  -4  27-260.056 477.579   1
  -8   4 -27 517.274 373.148   1
   4   4 -27 32.1160 221.771   1
   8  -4  30 509.446 566.971   1
   4   4 -30 1010.72 252.887   1
   4   4 -33 306.660 260.424   1
   8  -4  33-259.542 620.080   1
   8  -4  36 3377.12 723.461   1
   8  -4  39 895.826 648.227   1
   5  -8  40 450.717 563.896   1
   3   5  40 156.177 781.732   1
   5  -8  37 387.767 488.544   1
   3   5  37-207.149 789.557   1
   5  -8  34 1102.82 513.411   1
   3   5  34 2343.46 797.343   1
   8  -3 -31 3266.03 492.573   1
   5  -8  31 3118.33 529.766   1
   3   5  31 3069.96 801.255   1
   3   5  28 678.945 704.689   1
   5  -8  28-110.237 440.582   1
   8  -3 -28 1618.36 410.658   1
   8  -3 -25 17502.4 837.317   1
   3   5  25 17573.8 965.999   1
   5  -8  25 17905.0 767.097   1
   5  -8  22-71.7247 299.375   1
   3   5  22 657.880 524.097   1
  -3  -5 -22 269.134 339.222   1
   8  -3 -22 112.296 426.039   1
   5  -8  19 4238.00 362.544   1
   8  -3 -19 4294.23 453.296   1
   3   5  19 5487.73 582.431   1
   5  -8  16 17709.1 682.048   1
   3   5  16 17339.6 879.230   1
   5  -8  13 35175.7 1140.28   1
   3   5  13 33426.5 1289.12   1
  -3  -5 -10 9698.36 516.222   1
   3   5  10 9183.34 634.780   1
  -3  -5  -7 22681.0 826.851   1
   3   5   7 21993.5 900.778   1
   3   5   4 79.8443 356.037   1
  -3  -5  -4-73.5991 244.431   1
   3   5   1 39151.3 1259.93   1
  -3  -5  -1 40078.9 1238.57   1
   3   5  -2 34942.6 1096.02   1
  -3  -5   2 34807.8 1074.73   1
   8  -3   5 63.7109 334.760   1
  -3  -5   5 108.509 133.835   1
   3   5  -5 121.071 178.462   1
   8  -3   8 20193.5 820.079   1
   8  -3  11 2547.85 430.742   1
  -8   3 -14 325.543 327.752   1
   8  -3  14 735.939 403.390   1
   8  -3  17 312.019 393.474   1
  -8   3 -17 661.980 311.635   1
   3   5 -20 617.729 96.2749   1
   5  -8 -20 715.547 482.330   1
  -8   3 -20 703.236 334.253   1
   8  -3  20 701.239 408.197   1
   5  -8 -23 3427.74 502.323   1
  -8   3 -23 2494.90 402.977   1
   8  -3  23 2311.37 468.333   1
   3   5 -23 2152.20 179.282   1
   3   5 -26 6803.91 330.118   1
  -8   3 -26 6898.73 563.877   1
   8  -3  26 6046.00 622.290   1
   8  -3  29 930.267 612.532   1
   3   5 -29 2227.67 251.464   1
   8  -3  32-101.763 629.733   1
   3   5 -32 436.997 186.561   1
   8  -3  35 143.820 612.600   1
   8  -3  38 1429.20 669.254   1
   8  -3  41 823.246 654.080   1
   6  -8  41 1574.81 564.316   1
   2   6  41 1995.20 863.007   1
   6  -8  38 440.861 553.176   1
   2   6  38 925.723 809.194   1
   2   6  35-93.6842 752.061   1
   8  -2 -35 211.864 424.564   1
   6  -8  35-611.514 495.834   1
   6  -8  32-683.879 492.420   1
   8  -2 -32 92.8333 398.741   1
   8  -2 -29 240.652 395.201   1
   6  -8  29-302.741 450.871   1
   2   6  29 562.470 731.050   1
   2   6  26 9910.44 924.207   1
   6  -8  26 9864.74 590.262   1
   8  -2 -26 8967.39 615.307   1
   8  -2 -23 17331.3 788.363   1
  -2  -6 -23 17324.6 822.759   1
   6  -8  23 18235.1 767.819   1
   2   6  23 16622.2 991.794   1
  -2  -6 -20 11021.5 612.215   1
   6  -8  20 10562.4 553.873   1
   8  -2 -20 11465.2 604.046   1
   2   6  20 11288.9 803.909   1
   6  -8  17 13761.8 612.141   1
   2   6  17 15777.3 809.874   1
   2   6  14 7847.51 630.240   1
   6  -8  14 7498.63 455.382   1
   6  -8  11 458.254 311.580   1
  -2  -6 -11 94.5493 374.143   1
  -2  -6  -8 12224.8 598.470   1
   2   6   8 13762.3 690.010   1
  -2  -6  -5 4304.13 378.037   1
   2   6   5 5245.90 443.688   1
  -2  -6  -2 701.820 250.138   1
   2   6   2 1226.94 332.709   1
   2   6  -1-5.52695 306.484   1
   8  -2   1 92.6292 307.456   1
  -2  -6   1 59.6997 187.312   1
   2   6  -4 6885.72 344.895   1
  -2  -6   4 5783.53 272.724   1
   8  -2   4 5429.48 447.267   1
  -2  -6   7 13995.7 444.304   1
   8  -2   7 18439.9 698.128   1
   8  -2  10 27214.8 1030.76   1
   8  -2  13 56238.9 1841.50   1
   8  -2  16 4091.41 477.421   1
   6  -8 -16 4302.98 521.691   1
  -8   2 -16 4078.08 417.557   1
   6  -8 -19 3732.85 513.886   1
  -8   2 -19 3387.58 402.101   1
   8  -2  19 3373.09 475.468   1
   6  -8 -22 2295.46 523.092   1
   8  -2  22 2201.55 499.316   1
  -8   2 -22 2426.13 392.946   1
   2   6 -22 1820.26 131.974   1
   8  -2  25 444.831 530.451   1
   2   6 -25 294.132 152.606   1
   8  -2  28-696.328 591.842   1
   2   6 -28 156.242 177.451   1
   2   6 -31 2244.94 252.162   1
   8  -2  31 1933.34 649.560   1
   8  -2  34-260.274 593.336   1
   8  -2  37-224.247 663.494   1
   8  -2  40 620.598 649.483   1
   7  -8  39 1248.55 567.320   1
   1   7  39 345.098 787.357   1
   7  -8  36 1910.68 574.346   1
   1   7  36 2059.82 865.602   1
   8  -1 -33 659.431 405.226   1
   1   7  33 1345.97 771.304   1
   7  -8  33 946.602 513.726   1
   7  -8  30 11166.4 703.479   1
   1   7  30 11240.9 971.152   1
   8  -1 -30 9681.42 610.960   1
   7  -8  27 11.9756 399.634   1
   8  -1 -27 677.186 355.925   1
   1   7  27 149.978 706.288   1
   1   7  24 9109.44 860.977   1
   7  -8  24 9379.83 573.204   1
   8  -1 -24 9332.98 579.060   1
  -1  -7 -21 8732.61 585.470   1
   8  -1 -21 8672.89 525.114   1
   1   7  21 9054.56 778.187   1
   7  -8  21 8528.21 526.790   1
   7  -8  18 14364.4 654.506   1
   1   7  18 15743.2 883.026   1
   7  -8  15 20485.2 813.338   1
   1   7  15 20638.4 988.065   1
   7  -8  12 828.166 327.372   1
   1   7  12 2442.23 634.838   1
  -1  -7  -9 305.262 370.427   1
   1   7   9 1281.66 611.344   1
  -1  -7  -6 5681.21 431.476   1
   1   7   6 5987.29 625.277   1
  -1  -7  -3 75251.6 2276.56   1
   1   7   3 75159.4 2310.47   1
   8  -1   0 17030.5 685.227   1
  -1  -7   0 17223.2 640.108   1
   1   7   0 17239.6 702.703   1
  -1  -7   3 4078.98 283.440   1
   1   7  -3 4141.90 352.077   1
   8  -1   3 4296.27 418.844   1
   8  -1   6 738.473 383.831   1
  -1  -7   6 367.023 164.284   1
   8  -1   9 14518.9 703.736   1
   8  -1  12 18154.6 820.932   1
   7  -8 -15 5490.54 559.209   1
   8  -1  15 4845.52 509.102   1
   8  -1  18 15071.9 749.363   1
  -8   1 -18 14597.2 693.723   1
   7  -8 -18 15370.0 801.467   1
   8  -1  21 8776.97 627.212   1
  -8   1 -21 8306.63 537.493   1
   7  -8 -21 7759.27 676.832   1
   7  -8 -24 4635.46 599.943   1
   8  -1  24 3802.50 610.171   1
   8  -1  27 1700.27 580.815   1
   8  -1  30 549.396 609.878   1
   1   7 -30-38.8636 186.620   1
   1   7 -33 980.350 224.705   1
   8  -1  33 1353.39 623.249   1
   8  -1  36 654.038 686.390   1
   8  -1  39 915.246 662.077   1
   8  -8  40-373.907 581.195   1
   0   8  40 1.64670 834.803   1
   8  -8  37-437.905 555.047   1
   0   8  37 78.1812 780.388   1
   8   0 -34-305.053 362.790   1
   8  -8  34 9.07771 549.090   1
   0   8  34 299.333 800.101   1
   8   0 -31 8036.15 544.658   1
   8  -8  31 9217.14 699.333   1
   0   8  31 8697.10 937.414   1
   8   0 -28 1915.22 384.046   1
   0   8  28 1211.14 748.625   1
   8  -8  28 1692.43 466.903   1
   8   0 -25-38.6640 375.505   1
   0   8  25 379.866 698.522   1
   8  -8  25-271.756 394.867   1
   8  -8  22 3257.61 439.341   1
   0  -8 -22 3360.18 467.318   1
   0   8  22 2192.26 684.601   1
   8   0 -22 2726.99 403.548   1
   8   0 -19 143.573 308.671   1
   0  -8 -19 186.418 370.319   1
   8  -8  19 291.185 347.609   1
   0   8  19 760.733 584.947   1
   0   8  16 13638.0 856.941   1
   8  -8  16 13667.8 641.120   1
   0   8  13 9974.23 750.777   1
   8  -8  13 9270.24 541.737   1
   8  -8  10 52089.7 1653.48   1
   0   8  10 48747.6 1744.89   1
   0  -8  -7 58820.9 1866.37   1
   0   8   7 57652.7 1926.23   1
   0   8   4 11997.7 710.442   1
   8   0  -4 11371.0 537.456   1
   0  -8  -4 12527.5 586.395   1
   8   0  -1 3253.99 348.050   1
   0  -8  -1 3236.38 346.711   1
   0   8   1 2822.48 462.104   1
   0  -8   2 17407.0 637.107   1
   8   0   2 16617.0 696.035   1
   8   0   5 44130.5 1485.19   1
   0  -8   5 44280.2 1363.41   1
  -8   0  -5 46962.2 1472.24   1
   0  -8   8 5423.68 256.368   1
   8   0   8 5312.69 503.898   1
   8   0  11 12912.2 695.521   1
   8   0  14 237.639 398.804   1
   8   0  17 13207.0 722.372   1
  -8   0 -17 13910.4 667.446   1
   8  -8 -17 13331.7 740.383   1
  -8   0 -20 14228.0 698.162   1
   8   0  20 13238.5 770.011   1
   8  -8 -20 14583.6 801.358   1
   8   0  23 32501.2 1250.10   1
   8  -8 -23 31507.8 1225.81   1
   8   0  26 10832.6 799.046   1
   8   0  29 14552.7 944.264   1
   8   0  32 1330.70 674.803   1
   8   0  35-989.983 660.203   1
   8   0  38 1901.09 698.903   1
   8   0  41 1261.37 687.591   1
   8   1  40 585.291 675.576   1
   8   1  37 265.374 649.858   1
   8   1  34 2558.45 700.548   1
   1  -9  34 1048.73 329.417   1
   1  -9  31 2384.98 344.769   1
   8   1  31 2263.63 684.039   1
   8   1  28 5027.56 694.463   1
   1  -9  28 4902.84 358.443   1
   1  -9  25 3073.15 269.926   1
   8   1  25 3050.62 628.261   1
   9  -8 -22 348.095 527.085   1
   8   1  22-270.487 538.009   1
   1  -9  22 15.8192 177.265   1
   9  -8 -19 11951.4 729.720   1
   8   1  19 12500.5 718.397   1
  -8  -1 -19 13370.4 653.679   1
   1  -9  19 10654.2 376.624   1
   1  -9  16 3409.96 159.706   1
   8   1  16 5390.75 511.549   1
   1  -9  13 12549.5 417.243   1
   8   1  13 16751.4 726.169   1
   8   1  10 18477.2 829.659   1
   1  -9  10 18954.7 631.186   1
  -8  -1  -7 5699.83 434.532   1
   1  -9   7 6082.91 367.103   1
   8   1   7 5162.30 492.633   1
  -8  -1  -4-48.3732 295.071   1
   8   1   4-121.755 368.460   1
   1  -9   4 363.256 342.716   1
   8   1   1 19994.6 783.438   1
   1  -9   1 20349.0 791.785   1
   1  -9  -2 23370.8 890.901   1
   8   1  -2 22864.4 845.907   1
   8   1  -5 5184.98 383.916   1
  -1   9   5 4468.19 642.332   1
   1  -9  -8 24216.0 934.234   1
  -1   9   8 22879.1 1048.81   1
  -1   9  11 37261.9 1426.23   1
   9  -8  11 38685.4 1324.64   1
   1  -9 -14 4552.65 470.347   1
   9  -8  14 5126.33 470.036   1
  -1   9  14 5068.42 635.613   1
  -1   9  17 182.538 589.950   1
   9  -8  17-171.192 334.588   1
   1  -9 -17 102.334 389.279   1
  -1   9  20 1830.90 666.017   1
   1  -9 -20 1392.22 404.735   1
   8   1 -20 1793.74 328.306   1
   9  -8  20 1815.12 400.045   1
  -1   9  23 5353.83 761.236   1
   8   1 -23 4576.08 425.182   1
   9  -8  23 4030.01 494.647   1
   8   1 -26 857.022 335.470   1
  -1   9  26-105.022 753.015   1
   9  -8  26 174.500 423.355   1
   8   1 -29 3276.87 390.153   1
  -1   9  29 3578.68 806.934   1
   9  -8  29 3256.20 544.194   1
   8   1 -32 599.376 338.409   1
  -1   9  32 975.926 781.310   1
   9  -8  32 150.022 529.344   1
   9  -8  35-78.8270 574.635   1
  -1   9  35 429.505 794.544   1
   9  -8  38 861.051 574.939   1
  -1   9  38 1076.07 823.049   1
   7   2  38 4702.01 786.755   1
   7   2  35 1612.04 691.292   1
   2  -9  35 1253.59 424.636   1
   7   2  32 858.489 647.158   1
   2  -9  32 409.084 387.822   1
   7   2  29-130.416 617.945   1
   2  -9  29 576.759 368.272   1
   9  -7 -26 8209.76 706.007   1
   2  -9  26 10232.7 486.301   1
   7   2  26 9356.95 783.520   1
   7   2  23 8138.02 721.131   1
   2  -9  23 8897.40 422.578   1
   9  -7 -23 8303.59 675.121   1
   7   2  20 1333.92 522.453   1
   2  -9  20 1236.71 217.693   1
   9  -7 -20 1864.85 479.657   1
  -7  -2 -20 1554.77 357.306   1
   7   2  17 1518.47 463.668   1
   2  -9  17 1854.38 186.390   1
   2  -9  14 8994.63 354.478   1
   7   2  14 9731.35 613.128   1
   7   2  11 50522.0 1694.37   1
   7   2   8-144.908 414.502   1
  -7  -2  -8-115.714 295.664   1
   2  -9   5 83715.6 2507.69   1
   7   2   5 82972.2 2566.73   1
  -7  -2  -5 86246.5 2561.73   1
  -7  -2  -2 5324.83 363.310   1
   2  -9   2 4428.65 437.432   1
   7   2   2 5084.21 423.686   1
   7   2  -1 70.8837 292.790   1
   2  -9  -1 299.463 423.051   1
   2  -9  -4 18135.7 811.363   1
   7   2  -4 19852.8 708.409   1
   2  -9  -7 5232.82 566.588   1
   7   2  -7 5177.62 331.741   1
   9  -7  10 42394.7 1427.32   1
  -2   9  10 41516.8 1546.69   1
   9  -7  13 2.19137 356.241   1
  -2   9  13-28.5012 610.160   1
  -2   9  16 24229.4 1115.39   1
   9  -7  16 24505.5 959.468   1
   9  -7  19 5577.62 476.566   1
   2  -9 -19 6325.99 528.802   1
   7   2 -19 5874.59 372.643   1
  -2   9  19 5405.17 669.580   1
   9  -7  22 2198.29 437.680   1
  -2   9  22 2401.03 691.261   1
   7   2 -22 2928.31 325.610   1
   9  -7  25 2323.86 460.593   1
  -2   9  25 1818.57 729.713   1
   7   2 -25 1665.36 305.064   1
  -2   9  28 12427.8 996.539   1
   9  -7  28 14363.3 787.986   1
   7   2 -28 11824.5 578.862   1
  -2   9  31 598.285 803.399   1
   7   2 -31 570.026 303.840   1
   9  -7  31 724.717 497.842   1
   9  -7  34-139.264 535.766   1
  -2   9  34 134.788 812.883   1
  -2   9  37-829.433 832.074   1
   9  -7  37-343.286 610.880   1
   9  -7  40-679.981 639.977   1
   3  -9  39 1350.88 500.950   1
   6   3  39 2113.92 800.214   1
   6   3  36 3294.85 793.624   1
   3  -9  36 3834.24 521.625   1
   3  -9  33 13041.9 707.614   1
   6   3  33 12401.0 943.424   1
   6   3  30 4888.60 763.661   1
   3  -9  30 5282.59 462.900   1
   6   3  27 26.0418 606.102   1
   3  -9  27-163.398 339.520   1
   9  -6 -27 366.188 541.828   1
   3  -9  24 304.629 290.973   1
   9  -6 -24 721.554 470.621   1
   6   3  24 277.244 563.720   1
   3  -9  21 6073.45 351.217   1
   6   3  21 4845.39 623.015   1
   9  -6 -21 5431.94 543.494   1
  -6  -3 -21 5562.54 477.424   1
   3  -9  18 5537.05 315.599   1
  -6  -3 -18 5911.95 458.949   1
   6   3  18 5025.75 581.453   1
   6   3  15 1991.51 492.005   1
   3  -9  15 2401.22 232.926   1
   3  -9  12 7323.64 350.567   1
   6   3  12 7357.38 591.715   1
   6   3   9 1600.12 431.499   1
  -6  -3  -9 1312.04 334.264   1
  -6  -3  -6 2364.28 336.944   1
   6   3   6 2414.17 402.695   1
   6   3   3-134.619 332.181   1
  -6  -3  -3-88.5378 269.428   1
   3  -9   0-152.479 392.254   1
   6   3   0 308.586 278.048   1
  -6  -3   0 470.111 242.498   1
   3  -9  -3 57906.5 1862.39   1
   6   3  -3 58432.8 1770.58   1
   6   3  -6 8374.60 382.938   1
   3  -9  -6 8032.41 619.403   1
   6   3  -9 24.7628 194.912   1
   9  -6   9 74.5027 399.131   1
   3  -9  -9 671.516 480.531   1
   9  -6  12 2622.25 422.420   1
   9  -6  15 48384.6 1615.06   1
   9  -6  18 8782.86 587.073   1
   6   3 -18 8942.54 400.794   1
  -3   9  18 8248.79 727.795   1
   3  -9 -18 10377.4 608.038   1
   3  -9 -21 3754.09 492.824   1
  -9   6 -21 3984.86 414.386   1
   9  -6  21 3858.35 489.634   1
   6   3 -21 3671.79 274.322   1
  -3   9  21 3059.35 701.464   1
   6   3 -24 5386.48 352.471   1
   9  -6  24 6467.54 553.287   1
  -3   9  24 5185.32 784.502   1
  -9   6 -24 5598.93 484.123   1
  -3   9  27-310.261 766.913   1
   6   3 -27-531.335 264.971   1
   9  -6  27-257.625 446.323   1
   9  -6  30 2117.98 536.099   1
   6   3 -30 2007.73 273.668   1
  -3   9  30 803.498 761.722   1
   9  -6  33-593.144 547.945   1
   6   3 -33 235.483 256.762   1
   9  -6  36 788.265 601.348   1
   9  -6  39-223.729 590.529   1
   4  -9  40 254.259 524.944   1
   5   4  40 512.927 830.210   1
   4  -9  37 341.569 507.903   1
   5   4  37-1304.10 774.276   1
   5   4  34 4635.02 809.049   1
   4  -9  34 5035.99 513.036   1
   4  -9  31 1384.09 424.401   1
   5   4  31 1985.74 688.126   1
   9  -5 -28 1341.30 512.589   1
   5   4  28 1350.23 628.446   1
   4  -9  28 1409.12 392.429   1
   9  -5 -25 378.223 504.526   1
   5   4  25 281.914 602.050   1
   4  -9  25-191.399 331.713   1
  -5  -4 -22 142.841 352.118   1
   5   4  22-292.663 544.563   1
   4  -9  22 44.1081 255.147   1
   9  -5 -22-383.494 463.794   1
  -5  -4 -19 1302.13 352.385   1
   4  -9  19 1347.03 265.097   1
   5   4  19 2189.17 510.735   1
   9  -5 -19 1228.46 443.382   1
   4  -9  16 2551.91 269.346   1
   5   4  16 2666.22 521.570   1
   5   4  13 14113.2 777.615   1
   4  -9  13 15037.4 571.049   1
  -5  -4 -10 4287.01 401.684   1
   5   4  10 4171.00 529.810   1
   5   4   7 9724.33 600.885   1
  -5  -4  -7 9057.18 494.510   1
   5   4   4 17740.5 731.672   1
  -5  -4  -4 17873.1 699.080   1
  -5  -4  -1 30306.9 997.148   1
   5   4   1 30020.4 1010.89   1
   5   4  -2 6475.91 371.168   1
  -5  -4   2 6652.95 348.971   1
   4  -9  -5 4902.34 522.547   1
   5   4  -5 4561.05 288.993   1
   9  -5   8 7299.98 539.943   1
   4  -9  -8 7827.39 633.113   1
   5   4  -8 7513.51 318.891   1
   5   4 -11 9677.24 344.835   1
   9  -5  11 10772.7 588.680   1
   5   4 -14 65.0277 94.7281   1
   9  -5  14 412.585 374.102   1
   5   4 -14 279.770 137.527   1
  -9   5 -17 356.275 314.283   1
   9  -5  17 451.674 380.610   1
   5   4 -17 298.803 127.093   1
   5   4 -20 3846.73 222.612   1
   9  -5  20 4229.97 476.227   1
   4  -9 -20 5126.67 495.518   1
  -9   5 -20 4491.50 427.000   1
   5   4 -23 8807.87 368.474   1
  -9   5 -23 9217.96 583.466   1
   9  -5  23 10277.5 647.652   1
   9  -5  26 2385.74 488.031   1
   5   4 -26 1573.56 224.248   1
   5   4 -29 63.3121 211.549   1
   9  -5  29-248.371 499.364   1
   5   4 -32 738.530 249.669   1
   9  -5  32-220.869 542.856   1
   9  -5  35 2678.07 688.564   1
   9  -5  38 755.905 659.238   1
   9  -5  41 204.568 635.449   1
   5  -9  41 1500.50 574.308   1
   4   5  41 573.355 787.892   1
   5  -9  38 3135.96 529.927   1
   4   5  38 1548.80 809.577   1
   5  -9  35 973.433 505.185   1
   4   5  35 1349.16 814.825   1
   4   5  32 1055.33 805.477   1
   5  -9  32-356.689 440.620   1
   9  -4 -29 231.242 489.086   1
   4   5  29 971.107 645.917   1
   5  -9  29-251.732 412.037   1
   4   5  26 318.354 575.114   1
   9  -4 -26 206.859 478.003   1
   5  -9  26 8.79768 359.297   1
   4   5  23 4831.30 637.579   1
   5  -9  23 4177.04 385.420   1
   9  -4 -23 4473.73 523.278   1
  -4  -5 -20 363.433 329.604   1
   4   5  20 312.798 489.466   1
   5  -9  20 290.572 263.907   1
   9  -4 -20 353.082 423.290   1
   5  -9  17 470.752 266.473   1
   4   5  17 1043.90 492.927   1
   4   5  14 288.102 468.695   1
   5  -9  14 300.430 256.455   1
   4   5  11 11305.3 695.975   1
   4   5   8 5881.02 562.656   1
  -4  -5  -8 6221.38 429.813   1
   4   5   5 77666.9 2313.41   1
  -4  -5  -5 72254.6 2268.85   1
  -4  -5  -2 78174.0 2327.53   1
   4   5   2 76936.8 2348.51   1
  -4  -5   1 52543.5 1621.39   1
   4   5  -1 54615.0 1643.69   1
   4   5  -4 2680.21 272.318   1
  -4  -5   4 2779.31 225.414   1
   9  -4   4 2484.88 408.065   1
   9  -4   7 15526.9 714.270   1
   5  -9  -7 15956.8 786.163   1
   4   5  -7 14923.3 515.713   1
   9  -4  10 26706.0 1017.74   1
   9  -4  13 6781.76 514.877   1
  -9   4 -16 24634.8 963.628   1
   9  -4  16 25669.6 1007.97   1
  -9   4 -19 5311.15 452.418   1
   5  -9 -19 6338.61 576.680   1
   9  -4  19 4810.14 530.286   1
   9  -4  22 1582.02 466.016   1
  -9   4 -22 1514.10 403.837   1
   4   5 -25 867.032 153.171   1
   9  -4  25 1206.06 505.375   1
   4   5 -28 3530.28 241.245   1
   9  -4  28 4201.93 593.217   1
   4   5 -31 5354.69 319.061   1
   9  -4  31 5933.67 667.924   1
   9  -4  34 2260.53 632.834   1
   9  -4  37-492.258 627.580   1
   9  -4  40-502.506 658.836   1
   6  -9  39 2870.99 561.094   1
   3   6  39 2453.07 860.008   1
   6  -9  36 1673.04 505.816   1
   3   6  36 1711.22 849.661   1
   9  -3 -33 2985.44 511.589   1
   6  -9  33 2904.08 536.863   1
   3   6  33 4260.67 874.078   1
   3   6  30 2251.31 831.314   1
   9  -3 -30 2248.03 454.556   1
   6  -9  30 1463.52 479.223   1
   6  -9  27 67.0202 367.600   1
   3   6  27-226.096 733.085   1
   9  -3 -27 423.636 453.042   1
   6  -9  24 3423.84 416.918   1
   9  -3 -24 3356.75 500.663   1
   3   6  24 4309.45 689.702   1
   6  -9  21 856.958 313.391   1
   9  -3 -21 914.297 432.327   1
  -3  -6 -21 1577.86 360.163   1
   6  -9  18 7310.81 452.472   1
  -3  -6 -18 8092.40 514.350   1
   6  -9  15 16150.4 661.388   1
   3   6  15 16067.6 827.815   1
   3   6  12 12611.7 722.527   1
   6  -9  12 11898.0 554.317   1
  -3  -6  -9 6933.53 449.321   1
   3   6   9 7404.76 586.749   1
  -3  -6  -6 5423.05 393.175   1
   3   6   6 6109.45 537.628   1
  -3  -6  -3 28198.5 931.241   1
   3   6   3 24947.9 972.120   1
  -3  -6   0 58121.8 1761.00   1
   3   6   0 57953.9 1788.28   1
   9  -3   3 22826.9 896.104   1
   3   6  -3 24084.3 796.790   1
  -3  -6   3 23142.5 765.517   1
   3   6  -6 86.1451 234.195   1
   9  -3   6-70.2943 396.210   1
  -3  -6   6 143.337 140.679   1
   9  -3   9 665.767 393.689   1
   9  -3  12 17079.4 787.566   1
  -9   3 -15 40261.2 1382.19   1
   9  -3  15 39144.2 1393.33   1
  -9   3 -18 25177.7 987.604   1
   6  -9 -18 24489.6 1055.47   1
   9  -3  18 24958.0 1031.36   1
   9  -3  21 16227.7 824.110   1
   6  -9 -21 15937.7 845.678   1
  -9   3 -21 15933.0 766.970   1
   3   6 -24 1981.57 123.562   1
   9  -3  24 4044.43 517.293   1
   9  -3  27 719.730 520.790   1
   3   6 -27 632.219 135.686   1
   9  -3  30-126.424 556.783   1
   3   6 -30 227.038 163.854   1
   9  -3  33-282.149 572.466   1
   9  -3  36 701.862 669.268   1
   9  -3  39 2184.78 704.651   1
   7  -9  40 360.279 542.815   1
   2   7  40 693.787 810.554   1
   7  -9  37 575.493 551.012   1
   2   7  37 1271.23 813.436   1
   9  -2 -34 3780.83 492.636   1
   7  -9  34 4311.69 578.150   1
   2   7  34 5527.32 872.494   1
   7  -9  31 5473.30 578.649   1
   9  -2 -31 5084.16 504.205   1
   2   7  31 5610.60 897.321   1
   9  -2 -28 5780.91 548.059   1
   7  -9  28 6873.14 553.392   1
   2   7  28 6600.92 860.893   1
   7  -9  25 1220.84 397.133   1
   9  -2 -25 1158.36 456.818   1
   2   7  25 984.171 766.535   1
   2   7  22 1290.99 662.445   1
   7  -9  22 1420.20 377.885   1
   9  -2 -22 965.346 415.690   1
   2   7  19 2016.08 596.689   1
  -2  -7 -19 2276.02 386.383   1
   7  -9  19 2081.12 355.590   1
   2   7  16 145.800 545.918   1
  -2  -7 -16 313.375 331.102   1
   7  -9  16 229.601 286.771   1
   2   7  13 6174.00 642.205   1
   7  -9  13 6983.70 449.325   1
   2   7  10 5799.77 619.892   1
  -2  -7  -7-136.897 340.179   1
   2   7   7 1215.90 511.958   1
   2   7   4 1639.02 488.039   1
  -2  -7  -4 980.042 327.978   1
   2   7   1-82.1522 436.564   1
  -2  -7  -1-3.19146 279.686   1
  -2  -7   2 8094.71 368.966   1
   2   7  -2 8081.39 483.329   1
  -2  -7   5 5068.55 267.321   1
   9  -2   5 5064.36 465.144   1
   2   7  -5 5297.69 356.376   1
   9  -2   8 5674.58 488.009   1
  -2  -7   8 3419.72 150.739   1
   9  -2  11-257.756 413.744   1
   9  -2  14 558.208 398.627   1
  -9   2 -17 5234.96 440.014   1
   9  -2  17 4662.19 511.711   1
   7  -9 -17 6195.25 571.616   1
  -9   2 -20 33.9254 329.205   1
   7  -9 -20 148.122 455.699   1
   9  -2  20 56.9626 421.373   1
   7  -9 -23 1969.34 598.807   1
   9  -2  23 2255.16 526.388   1
   9  -2  26 4256.21 657.102   1
   9  -2  29-20.7595 626.282   1
   9  -2  32-240.950 586.077   1
   9  -2  35 635.898 662.397   1
   9  -2  38 426.475 618.103   1
   8  -9  38 242.074 555.612   1
   1   8  38 357.842 851.246   1
   8  -9  35 1186.39 546.384   1
   1   8  35 2222.28 806.603   1
   9  -1 -32 144.662 386.177   1
   8  -9  32-467.649 475.044   1
   1   8  32 801.556 803.925   1
   9  -1 -29 907.056 375.517   1
   8  -9  29 185.237 422.464   1
   1   8  29 221.199 735.426   1
   8  -9  26 4322.51 498.783   1
   9  -1 -26 3645.70 493.970   1
   9  -1 -23 10144.2 602.681   1
   8  -9  23 9106.48 585.634   1
   1   8  23 9651.78 840.193   1
   8  -9  20 8967.00 549.798   1
  -1  -8 -20 8482.75 598.236   1
   9  -1 -20 9047.37 544.238   1
   1   8  20 8335.15 771.137   1
   8  -9  17 3736.33 394.476   1
  -1  -8 -17 2843.96 416.184   1
   1   8  17 3778.32 635.064   1
   1   8  14 1916.37 584.878   1
  -1  -8 -14 1019.15 350.177   1
   8  -9  14 1095.72 331.864   1
   8  -9  11 4227.88 399.417   1
   1   8  11 4278.55 628.873   1
  -1  -8  -8 33340.5 1179.16   1
   1   8   8 33071.9 1267.02   1
  -1  -8  -5 24255.9 926.489   1
   1   8   5 26476.6 1048.06   1
  -1  -8  -2 28038.7 991.437   1
   1   8   2 29256.7 1069.24   1
   9  -1  -2 28092.7 1004.79   1
   9  -1   1-39.7619 352.809   1
  -1  -8   1-140.608 277.325   1
   1   8  -1 58.3083 421.385   1
  -1  -8   4 5946.87 334.387   1
   9  -1   4 5831.50 477.863   1
   9  -1   7 4115.14 442.484   1
  -1  -8   7 3381.01 211.171   1
   9  -1  10 2100.43 454.806   1
   9  -1  13 2952.65 461.726   1
   9  -1  16 325.791 395.658   1
  -9   1 -16 449.999 310.436   1
   8  -9 -16 193.811 468.716   1
  -9   1 -19 41.1020 320.115   1
   9  -1  19 279.732 450.254   1
   9  -1  22 310.744 499.806   1
   8  -9 -22 778.587 510.395   1
   9  -1  25 1735.33 584.281   1
   9  -1  28 913.789 616.667   1
   9  -1  31 5178.06 772.676   1
   9  -1  34 3146.67 713.751   1
   9  -1  37-325.351 641.122   1
   9  -1  40 85.0246 683.440   1
   9  -9  39 111.935 562.916   1
   0   9  39 483.425 789.334   1
   9  -9  36 2382.69 604.197   1
   0   9  36 3111.07 896.949   1
   9   0 -33 2587.72 412.052   1
   9  -9  33 1861.07 573.706   1
   0   9  33 1221.46 788.683   1
   9   0 -30 632.173 358.677   1
   0   9  30 935.272 771.850   1
   9  -9  30 688.372 460.579   1
   9   0 -27 729.292 396.439   1
   9  -9  27 1273.20 473.310   1
   9  -9  24 2017.99 462.931   1
   9   0 -24 1601.42 412.670   1
   0   9  24 2380.74 742.604   1
   9   0 -21 1125.73 360.791   1
   9  -9  21 1056.13 371.554   1
   0   9  21 987.256 703.442   1
   0  -9 -18 15116.5 765.044   1
   9  -9  18 14945.1 710.880   1
   0   9  18 14673.6 891.909   1
   9  -9  15 16226.6 722.823   1
   0  -9 -15 16587.9 791.888   1
   0   9  15 16403.0 895.442   1
   0  -9 -12 458.244 316.422   1
   0   9  12 753.939 557.244   1
   9  -9  12 280.128 331.082   1
   0   9   9 1973.12 565.657   1
   0   9   6 871.426 541.669   1
   0  -9  -6 953.823 358.937   1
   9   0  -3 13356.2 616.992   1
   0   9   3 14808.0 758.226   1
   0  -9  -3 14605.4 651.237   1
   9   0   0 22987.7 870.495   1
   0  -9   0 22946.5 840.259   1
   9   0   3 15304.6 693.808   1
   0  -9   3 16221.0 609.289   1
   0  -9   6 2301.67 263.778   1
   9   0   6 2610.57 436.919   1
   9   0   9 2234.93 458.161   1
   0  -9   9 2483.36 188.242   1
   9   0  12 22390.9 943.203   1
   9   0  15 15409.0 770.155   1
   9  -9 -18 13287.6 762.415   1
  -9   0 -18 13776.6 695.924   1
   9   0  18 13317.5 744.981   1
   9   0  21 10728.1 734.966   1
   9  -9 -21 10373.0 714.819   1
   9   0  24-89.8879 556.458   1
   9   0  27-369.970 625.464   1
   9   0  30 1054.65 620.722   1
   9   0  33 2074.89 692.182   1
   9   0  36 837.833 687.940   1
   9   0  39 7.82901 670.527   1
   9   1  38 460.195 698.658   1
   9   1  35-541.018 686.150   1
   9   1  32-238.062 694.503   1
   9   1  29 2303.66 701.017   1
   1 -10  26 1849.76 163.740   1
   9   1  26 2064.30 648.906   1
   9   1  23-263.186 562.247   1
  10  -9 -20 2293.08 546.193   1
   9   1  20 2077.41 512.780   1
  -9  -1 -17 3930.37 419.385   1
   9   1  17 3378.75 515.772   1
   1 -10  14 23.0244 108.344   1
   9   1  14 270.216 426.666   1
   1 -10  14 15.1123 77.8814   1
  -9  -1 -14-114.828 297.509   1
   9   1  11 77.3798 425.525   1
  -9  -1 -11 354.040 304.015   1
   1 -10  11 376.119 175.567   1
   1 -10   8 6205.48 358.469   1
   9   1   8 5981.37 527.908   1
   1 -10   5 14839.9 600.984   1
   9   1   5 13998.6 687.517   1
   9   1   2 6424.77 471.757   1
   1 -10   2 5443.85 436.453   1
   1 -10  -1 1418.15 331.180   1
   9   1  -1 569.125 305.751   1
   9   1  -4 6663.58 438.897   1
   1 -10  -4 7414.17 499.952   1
  -1  10   7 11538.2 741.588   1
   9   1  -7 11753.0 528.157   1
  10  -9  10 10357.3 589.317   1
  -1  10  10 9862.23 731.055   1
  -1  10  13 17552.7 929.296   1
  10  -9  13 18268.4 809.505   1
   1 -10 -13 19457.0 834.908   1
   1 -10 -16 2318.89 421.017   1
  -1  10  16 1270.01 594.778   1
  10  -9  16 1729.87 390.153   1
  -1  10  19 324.480 620.825   1
  10  -9  19 112.615 382.661   1
   1 -10 -19-41.3045 414.106   1
   9   1 -22 1199.18 362.279   1
  10  -9  22 563.619 414.371   1
  -1  10  22 1520.33 703.078   1
   9   1 -25 56.6372 380.297   1
  10  -9  25 14.4372 433.064   1
  -1  10  25-113.757 737.700   1
   9   1 -28 2250.95 368.082   1
  -1  10  28 1527.69 768.697   1
  10  -9  28 2331.18 485.769   1
   9   1 -31 6271.09 480.349   1
  10  -9  31 6102.90 625.656   1
  -1  10  31 7110.17 931.679   1
  -1  10  34 2526.61 846.100   1
  10  -9  34 2373.03 591.167   1
  10  -9  37-211.229 537.059   1
  -1  10  37 299.894 790.357   1
   8   2  39 1572.15 673.238   1
   8   2  36 1561.60 703.130   1
   8   2  33 5497.66 829.860   1
   2 -10  33 4736.39 410.985   1
   8   2  30 9927.85 919.538   1
   2 -10  30 10543.3 516.937   1
   2 -10  27 1089.42 290.106   1
   8   2  27 1007.15 644.978   1
   2 -10  24 775.657 217.964   1
   8   2  24-120.008 610.990   1
  10  -8 -21 584.448 504.395   1
   2 -10  21-56.6760 173.836   1
   8   2  21-152.962 559.282   1
  -8  -2 -18 7940.14 525.090   1
   8   2  18 7847.61 658.582   1
   2 -10  18 7565.00 312.909   1
  -8  -2 -15 141.508 313.198   1
   2 -10  15 124.374 130.835   1
   8   2  15-78.3816 396.973   1
  -8  -2 -12 148.405 294.981   1
   8   2  12 102.250 426.180   1
   8   2   9 1282.24 438.200   1
   2 -10   6 22771.0 811.346   1
   8   2   6 21967.2 903.560   1
  -8  -2  -6 22212.6 865.235   1
  -8  -2  -3 310.565 275.851   1
   8   2   3 194.413 363.381   1
   2 -10   3 514.988 372.389   1
   8   2   0 7868.84 485.089   1
   2 -10   0 8870.62 550.663   1
   2 -10  -3 23455.2 946.631   1
   8   2  -3 24789.7 869.125   1
   8   2  -6 9969.45 476.997   1
   2 -10  -6 11116.1 661.748   1
   8   2  -9 3674.83 296.978   1
  10  -8   9 2859.18 448.345   1
  10  -8  12 4898.92 466.659   1
   2 -10 -12 6164.97 484.610   1
  -2  10  12 4959.67 640.986   1
   2 -10 -15 639.879 385.468   1
  -2  10  15-444.644 554.844   1
  10  -8  15 67.0219 342.616   1
  10  -8  18 94.0351 369.441   1
   2 -10 -18 559.128 400.749   1
  -2  10  18 57.1965 593.428   1
  -2  10  21 1261.29 643.259   1
  10  -8  21 1292.25 420.995   1
   8   2 -21 1239.74 310.838   1
   8   2 -24 2951.68 337.885   1
  10  -8  24 2314.75 462.200   1
  -2  10  24 2222.76 724.467   1
  10  -8  27 13.8370 495.020   1
   8   2 -27 365.333 298.221   1
  -2  10  27 389.099 770.569   1
   8   2 -30 1047.98 304.013   1
  -2  10  30 770.711 771.262   1
  10  -8  30 620.912 499.528   1
  -2  10  33 1033.79 793.467   1
  10  -8  33 3098.70 597.836   1
  10  -8  36 6220.89 703.978   1
  -2  10  36 4896.78 918.773   1
  10  -8  39 1908.81 645.482   1
   7   3  40 3.31638 772.465   1
   7   3  37 141.587 699.242   1
   7   3  34 1681.12 693.824   1
   3 -10  34 1951.46 437.604   1
   3 -10  31 12178.7 581.803   1
   7   3  31 8855.00 914.413   1
   7   3  28 5779.09 726.275   1
   3 -10  28 4866.59 411.743   1
   3 -10  25 18007.7 687.941   1
  10  -7 -25 17115.7 916.151   1
   7   3  22 1474.00 588.429   1
   3 -10  22 1142.61 252.530   1
  10  -7 -22 632.345 514.273   1
   3 -10  19 855.847 212.968   1
  -7  -3 -19 769.623 342.161   1
   7   3  19 268.936 521.146   1
  -7  -3 -16 4203.39 400.173   1
   3 -10  16 3390.16 253.589   1
   7   3  16 3271.74 543.674   1
  -7  -3 -13 28281.5 1030.72   1
   7   3  13 25709.6 1072.66   1
   3 -10  13 26808.9 869.638   1
   7   3  10 12610.0 667.284   1
  -7  -3  -7 10136.4 526.120   1
   7   3   7 10097.1 598.330   1
   7   3   4 1064.44 382.380   1
  -7  -3  -4 838.672 302.901   1
   7   3   1 559.064 334.436   1
  -7  -3  -1 292.626 277.914   1
   3 -10   1 320.650 412.547   1
   3 -10  -2 17460.4 785.307   1
   7   3  -2 16962.2 671.516   1
   7   3  -5 18113.0 663.457   1
   3 -10  -5 17939.3 831.589   1
  10  -7   8 26131.3 993.713   1
   7   3  -8 24612.3 834.948   1
  10  -7  11 13572.9 708.144   1
   7   3 -11 14849.5 533.138   1
  10  -7  14 7400.17 538.533   1
   3 -10 -14 7951.06 561.072   1
  10  -7  17 2819.39 425.517   1
   3 -10 -17 2599.92 436.577   1
   7   3 -17 2671.67 265.438   1
   3 -10 -20 3358.08 491.378   1
  10  -7  20 2840.07 466.008   1
   7   3 -20 2575.78 286.387   1
  -3  10  23 13903.3 968.016   1
  10  -7  23 15891.1 790.287   1
   7   3 -23 14096.1 568.251   1
   7   3 -26 4740.36 349.390   1
  -3  10  26 4211.60 800.196   1
  10  -7  26 6113.62 620.770   1
   7   3 -29 626.864 256.722   1
  10  -7  29 1287.53 518.371   1
  10  -7  32-515.531 502.182   1
   7   3 -32 464.160 237.283   1
  10  -7  35 427.544 611.827   1
  10  -7  38 1522.75 589.368   1
   6   4  38 382.928 798.021   1
   4 -10  38 951.068 481.589   1
   4 -10  35 4.07862 416.450   1
   6   4  35 1459.37 666.796   1
   4 -10  32 321.824 376.282   1
   6   4  32 986.223 701.908   1
   6   4  29 734.617 621.445   1
   4 -10  29 117.687 365.069   1
   4 -10  26 9257.16 520.640   1
  10  -6 -26 9403.99 710.465   1
   6   4  26 9674.66 847.221   1
  10  -6 -23 3207.72 524.275   1
   6   4  23 2791.93 614.321   1
   4 -10  23 2582.23 316.892   1
   6   4  20 2691.85 590.868   1
  -6  -4 -20 3646.79 416.957   1
  10  -6 -20 3157.58 514.190   1
   4 -10  20 3567.84 307.899   1
   4 -10  17 4512.78 314.653   1
   6   4  17 4095.65 563.334   1
  -6  -4 -17 4449.44 425.604   1
   6   4  14-176.611 485.574   1
  -6  -4 -14 75.1722 311.138   1
   4 -10  14 326.343 218.752   1
   6   4  11 3039.86 500.907   1
  -6  -4  -8 23298.0 879.452   1
   6   4   8 22712.4 933.227   1
  -6  -4  -5 34325.9 1159.16   1
   6   4   5 34061.7 1185.63   1
  -6  -4  -2 3051.85 323.619   1
   6   4   2 3183.74 384.297   1
  -6  -4   1 5110.34 344.300   1
   6   4  -1 5161.23 375.835   1
   6   4  -4 69.6770 245.188   1
   4 -10  -4 87.6248 502.010   1
  10  -6   7 16458.2 757.568   1
   6   4  -7 16140.8 580.317   1
   4 -10  -7 16841.2 802.464   1
   6   4 -10 17716.2 585.255   1
  10  -6  10 16315.4 782.868   1
  10  -6  13 4923.02 482.757   1
   6   4 -13 4652.98 227.883   1
   4 -10 -16 16805.2 818.978   1
   6   4 -16 16413.7 532.874   1
  10  -6  16 18586.9 787.977   1
   6   4 -16 16108.5 547.736   1
  10  -6  19 4304.20 486.577   1
   6   4 -19 3535.67 212.129   1
  10  -6  22 670.391 449.191   1
   6   4 -22 284.902 162.721   1
  10  -6  25 102.110 477.686   1
   6   4 -25 15.7835 173.808   1
   6   4 -28 1150.40 212.741   1
  10  -6  28 1294.75 492.193   1
   6   4 -31 258.914 204.880   1
  10  -6  31 252.012 512.121   1
  10  -6  34 168.853 584.850   1
  10  -6  37-127.682 644.365   1
  10  -6  40-236.949 659.786   1
   5 -10  39 361.262 475.087   1
   5   5  39 26.1589 783.750   1
   5   5  36 1227.06 871.837   1
   5 -10  36 1148.38 450.936   1
   5   5  33 3700.86 804.520   1
   5 -10  33 2587.40 474.862   1
   5   5  30 2307.52 692.442   1
   5 -10  30 725.760 410.373   1
   5   5  27 1134.88 629.543   1
   5 -10  27 844.247 371.387   1
  10  -5 -27 409.367 519.703   1
   5   5  24 3285.18 638.362   1
   5 -10  24 2332.55 358.170   1
  10  -5 -24 2506.04 547.614   1
  10  -5 -21 8164.07 605.884   1
   5 -10  21 8498.63 463.163   1
   5   5  21 6802.93 697.779   1
   5   5  18 30430.3 1314.94   1
   5 -10  18 34668.4 1113.46   1
  -5  -5 -18 32696.6 1234.12   1
   5   5  15 20065.5 971.000   1
  -5  -5 -15 21503.8 880.281   1
   5 -10  15 21397.3 768.140   1
   5   5  12 14256.4 769.853   1
   5   5   9 1897.31 472.926   1
   5   5   6 61264.0 1998.91   1
  -5  -5  -6 64402.6 1969.00   1
  -5  -5  -3 268.567 266.851   1
   5   5   3-203.828 396.514   1
  -5  -5   0 3556.31 302.275   1
   5   5   0 2954.63 359.069   1
   5   5  -3 5493.67 348.226   1
  -5  -5   3 5328.22 315.353   1
  10  -5   6 435.042 391.009   1
   5 -10  -6 829.998 500.124   1
   5   5  -6 1191.27 216.930   1
   5   5  -9 9608.04 349.489   1
  10  -5   9 8555.34 575.946   1
   5   5 -12 3861.41 163.405   1
  10  -5  12 6008.62 498.977   1
  10  -5  15 21565.9 915.501   1
   5 -10 -18 17510.1 871.026   1
 -10   5 -18 17941.4 789.745   1
  10  -5  18 18020.8 846.422   1
   5 -10 -21 3562.02 515.791   1
  10  -5  21 2712.09 480.669   1
 -10   5 -21 2803.53 418.610   1
  10  -5  24 3070.31 540.810   1
   5   5 -24 2006.90 143.249   1
   5   5 -27 535.271 141.276   1
  10  -5  27 1270.19 511.603   1
  10  -5  30 2824.33 565.190   1
   5   5 -30 2025.83 201.640   1
  10  -5  33 2123.72 614.441   1
  10  -5  36 692.142 596.305   1
  10  -5  39-163.442 622.849   1
   6 -10  40 506.973 465.244   1
   4   6  40-115.555 809.138   1
   6 -10  37 75.9375 469.092   1
   4   6  37 431.639 797.557   1
   6 -10  34 256.054 470.350   1
   4   6  34 526.993 769.566   1
   4   6  31 771.165 768.450   1
  10  -4 -31 1728.17 490.464   1
   6 -10  31 456.725 433.614   1
   4   6  28 3211.21 742.878   1
   6 -10  28 3858.82 452.239   1
  10  -4 -28 3101.75 559.630   1
  10  -4 -25 679.773 494.752   1
   4   6  25 1380.77 637.062   1
   6 -10  25 280.973 338.758   1
   4   6  22 731.736 614.220   1
   6 -10  22 526.738 319.356   1
  10  -4 -22 280.841 450.705   1
   6 -10  19 9863.21 515.307   1
  -4  -6 -19 10446.2 602.340   1
   4   6  19 10354.9 740.496   1
   4   6  16 8666.24 670.271   1
  -4  -6 -16 9581.48 552.187   1
   6 -10  16 9159.66 477.881   1
  -4  -6 -13 16093.4 696.327   1
   6 -10  13 15371.6 633.782   1
   4   6  13 13685.8 807.362   1
   4   6  10 21754.6 933.560   1
  -4  -6  -7-37.9067 308.037   1
   4   6   7 78.1797 462.762   1
   4   6   4 57215.0 1832.73   1
  -4  -6  -4 57304.9 1789.98   1
   4   6   1 1526.03 375.430   1
  -4  -6  -1 1564.99 279.893   1
   4   6  -2 104.478 295.687   1
  -4  -6   2 204.050 225.680   1
  10  -4   5 17950.1 830.455   1
  -4  -6   5 19891.4 664.234   1
   4   6  -5 21107.1 697.399   1
   4   6  -8 4676.85 233.876   1
  10  -4   8 4012.54 464.418   1
  10  -4  11 170.058 375.389   1
  10  -4  14 9078.54 586.151   1
  10  -4  17 4923.69 503.762   1
   6 -10 -17 5544.73 564.724   1
 -10   4 -17 5599.63 453.238   1
 -10   4 -20 20779.0 890.281   1
   6 -10 -20 19479.0 974.421   1
  10  -4  20 19605.7 929.598   1
  10  -4  23 29956.4 1214.15   1
  10  -4  26 3535.59 574.267   1
  10  -4  29 2940.23 560.260   1
   4   6 -29 1388.70 132.731   1
  10  -4  32-662.005 565.386   1
  10  -4  35-275.703 620.249   1
  10  -4  38-356.794 713.135   1
   7 -10  38 1255.62 526.316   1
   3   7  38 1380.94 864.699   1
   7 -10  35-150.203 479.621   1
   3   7  35 560.163 788.162   1
  10  -3 -32 492.292 422.091   1
   7 -10  32-468.993 470.508   1
   3   7  32 76.0805 781.112   1
  10  -3 -29 4887.56 580.710   1
   7 -10  29 4772.73 509.757   1
   3   7  29 4656.32 842.188   1
   7 -10  26 2987.35 435.497   1
   3   7  26 2559.64 799.409   1
  10  -3 -26 3180.68 516.688   1
   3   7  23 1183.07 705.991   1
   7 -10  23 1109.07 377.783   1
  10  -3 -23 1355.26 448.538   1
   7 -10  20 2082.31 367.211   1
  -3  -7 -20 2585.68 401.304   1
   3   7  17 915.200 537.729   1
  -3  -7 -17 164.932 316.006   1
   7 -10  17 311.852 296.023   1
   7 -10  14 395.820 279.656   1
   3   7  14 1185.94 498.036   1
  -3  -7 -14 660.772 315.447   1
   3   7  11 13462.6 764.978   1
  -3  -7  -8 4628.21 398.930   1
   3   7   8 5812.28 536.643   1
   3   7   5 2998.27 460.737   1
  -3  -7  -5 2306.15 323.117   1
  -3  -7  -2 14598.0 609.999   1
   3   7   2 16468.9 695.290   1
  -3  -7   1 13227.3 540.054   1
   3   7  -1 14774.9 608.055   1
  10  -3   1 12969.4 670.145   1
   3   7  -4 4574.85 394.359   1
  -3  -7   4 3876.21 261.872   1
  10  -3   4 3257.69 445.377   1
  10  -3   7-63.4514 402.022   1
  -3  -7   7 193.942 124.303   1
   3   7  -7 96.2146 209.426   1
  10  -3  10 1337.19 400.282   1
  10  -3  13 1779.26 425.218   1
  10  -3  16 4215.39 503.993   1
 -10   3 -16 4734.07 425.784   1
   7 -10 -16 4625.29 548.463   1
 -10   3 -19 939.635 356.477   1
  10  -3  19 1223.58 452.082   1
   7 -10 -19 983.549 508.448   1
  10  -3  22 2980.89 515.871   1
  10  -3  25 1278.23 503.561   1
  10  -3  28 3905.08 610.089   1
  10  -3  31 678.202 579.520   1
  10  -3  34 247.050 614.940   1
  10  -3  37 719.078 663.773   1
  10  -3  40-212.590 636.828   1
   2   8  39 2528.27 822.632   1
   8 -10  39 2147.53 585.265   1
   8 -10  36 6084.35 671.065   1
   2   8  36 7404.35 1004.61   1
   8 -10  33 2799.73 539.038   1
   2   8  33 3291.29 853.335   1
  10  -2 -33 3195.35 484.547   1
  10  -2 -30 1424.79 429.542   1
   2   8  30 319.980 757.715   1
   8 -10  30 684.650 431.471   1
   8 -10  27 976.205 421.670   1
  10  -2 -27 1876.75 477.976   1
   2   8  27 1458.33 767.049   1
   2   8  24 1109.66 739.221   1
   8 -10  24 915.117 392.903   1
  10  -2 -24 837.194 455.542   1
  10  -2 -21 1393.61 436.994   1
   2   8  21 2564.59 738.942   1
   8 -10  21 1253.50 373.126   1
   2   8  18 201.433 632.796   1
   8 -10  18 66.6901 300.756   1
  -2  -8 -18-218.793 362.260   1
   2   8  15 226.182 547.233   1
   8 -10  15 230.929 313.917   1
  -2  -8 -15 282.778 347.662   1
   2   8  12 3498.63 617.435   1
  -2  -8 -12 2265.19 357.781   1
   8 -10  12 2976.28 358.337   1
   2   8   9 9884.64 737.068   1
   2   8   6 5110.64 622.008   1
  -2  -8  -6 4247.77 396.921   1
  -2  -8  -3 18747.5 739.146   1
   2   8   3 18792.8 838.411   1
  -2  -8   0 18755.9 703.896   1
  10  -2   0 19184.4 800.701   1
   2   8   0 19230.5 796.383   1
  10  -2   3 2222.39 416.047   1
  -2  -8   3 2340.99 255.361   1
   2   8  -3 2277.89 386.095   1
  10  -2   6 17345.5 777.038   1
  -2  -8   6 17615.8 587.538   1
  10  -2   9 13262.5 679.779   1
  10  -2  12 709.139 388.701   1
 -10   2 -15 787.941 320.805   1
  10  -2  15 336.423 395.436   1
   8 -10 -15 232.925 484.456   1
 -10   2 -18 5758.07 488.542   1
   8 -10 -18 6088.13 603.858   1
  10  -2  18 6178.65 574.908   1
  10  -2  21 646.005 473.241   1
  10  -2  24 756.812 497.258   1
  10  -2  27-132.616 587.879   1
  10  -2  30 4353.12 706.173   1
  10  -2  33 1217.16 646.620   1
  10  -2  36 1412.60 684.627   1
  10  -2  39 583.681 655.950   1
   1   9  37 1551.70 804.243   1
   9 -10  37 358.688 541.777   1
   9 -10  34-197.710 532.322   1
   1   9  34 585.530 803.294   1
  10  -1 -31 852.546 397.216   1
   1   9  31-70.3649 798.493   1
   9 -10  31 276.471 427.643   1
  10  -1 -28 1412.28 442.730   1
   1   9  28 1873.76 787.596   1
   9 -10  28 1717.36 441.879   1
   9 -10  25 6617.85 539.986   1
  10  -1 -25 5833.23 541.680   1
   1   9  25 6317.85 848.812   1
   9 -10  22 4701.99 489.875   1
  10  -1 -22 4915.48 474.172   1
   1   9  22 5208.23 779.706   1
   9 -10  19 314.636 350.702   1
  -1  -9 -19 198.308 393.068   1
   1   9  19 590.023 641.190   1
  -1  -9 -16 11061.8 642.900   1
   1   9  16 10281.0 772.172   1
   9 -10  16 9825.62 581.844   1
  -1  -9 -13 384.529 350.012   1
   9 -10  13 131.366 312.201   1
   1   9  13 229.448 530.809   1
   1   9  10 991.581 573.959   1
  -1  -9  -7 3140.39 384.572   1
   1   9   7 4236.25 582.355   1
  10  -1  -4-51.1692 308.299   1
  -1  -9  -4-44.3207 330.919   1
   1   9   4 207.045 493.988   1
  -1  -9  -1 8003.88 448.911   1
   1   9   1 7284.42 561.741   1
  10  -1  -1 6756.43 492.330   1
  -1  -9   2 11502.2 507.727   1
  10  -1   2 11749.2 606.176   1
  10  -1   5 30968.5 1169.24   1
  -1  -9   5 32739.9 1025.52   1
  10  -1   8 18495.8 800.870   1
  -1  -9   8 17311.8 565.424   1
  10  -1  11 3447.17 456.770   1
  10  -1  14 2386.07 475.565   1
 -10   1 -14 2311.99 365.399   1
  10  -1  17 30.1796 414.743   1
   9 -10 -17 63.8250 490.407   1
 -10   1 -17 21.7126 346.078   1
   9 -10 -20 2868.44 585.632   1
  10  -1  20 2396.71 512.898   1
  10  -1  23-249.047 504.772   1
  10  -1  26 1439.91 611.387   1
  10  -1  29-718.232 595.479   1
  10  -1  32-129.231 669.731   1
  10  -1  35 118.349 700.929   1
  10  -1  38-472.886 664.331   1
   0  10  38 103.333 806.562   1
  10 -10  38-400.641 540.364   1
  10 -10  35-404.532 543.633   1
   0  10  35 1752.75 812.379   1
   0  10  32 71.3373 778.321   1
  10 -10  32 173.764 454.903   1
  10 -10  29 1482.88 500.290   1
  10   0 -29 1861.09 362.549   1
   0  10  29 1871.92 791.894   1
  10   0 -26 8206.74 571.514   1
  10 -10  26 9296.18 650.697   1
   0  10  26 7511.10 884.114   1
  10   0 -23 12348.9 652.580   1
   0  10  23 12256.2 972.432   1
  10 -10  23 13147.0 734.479   1
  10 -10  20 5381.08 489.578   1
   0  10  20 4409.70 741.010   1
   0  10  17 4908.31 683.602   1
   0 -10 -17 3805.63 463.420   1
  10 -10  17 3512.45 439.364   1
   0 -10 -14 2667.57 430.417   1
  10 -10  14 2489.79 407.828   1
   0  10  14 1854.13 597.213   1
   0 -10 -11 688.014 344.581   1
   0  10  11 1131.93 529.106   1
   0  10   8 21269.1 983.712   1
   0 -10  -5 1695.80 352.246   1
  10   0  -5 1999.84 338.457   1
   0  10   5 1852.45 491.261   1
  10   0  -2 2146.73 351.771   1
   0 -10  -2 2008.57 344.725   1
  10   0   1 3155.12 367.113   1
   0 -10   1 3338.28 348.410   1
   0 -10   4 22814.7 778.360   1
  10   0   4 20326.0 874.673   1
  10   0   7 25523.1 1029.05   1
   0 -10   7 26720.0 859.585   1
 -10   0 -10 26019.8 927.977   1
  10   0  10 25060.1 961.890   1
 -10   0 -13 22027.5 886.977   1
  10   0  13 19979.0 914.587   1
  10   0  16 5055.40 557.890   1
 -10   0 -16 5572.29 473.740   1
  10 -10 -19 2108.25 530.587   1
  10   0  19 2055.84 484.481   1
  10   0  22 883.587 484.707   1
  10   0  25 7731.89 738.288   1
  10   0  28-373.478 661.191   1
  10   0  31 5147.01 744.854   1
  10   0  34 3568.61 730.748   1
  10   0  37 281.842 662.323   1
  10   1  36 3945.83 822.425   1
  10   1  33 2375.01 730.776   1
  10   1  30 3874.31 756.087   1
  10   1  27 300.961 651.740   1
  10   1  24 26.7526 578.799   1
  10   1  21 3115.51 573.904   1
  10   1  18 4401.33 554.972   1
  10   1  15 10018.0 665.835   1
 -10  -1 -15 10461.3 597.390   1
 -10  -1 -12 9173.40 551.175   1
  10   1  12 9234.28 615.360   1
   1 -11  12 8512.79 344.652   1
 -10  -1  -9 1098.45 326.362   1
  10   1   9 961.910 430.331   1
   1 -11   9 975.694 239.297   1
   1 -11   6 1704.68 285.277   1
  10   1   6 2031.43 380.056   1
  10   1   3 17446.5 755.306   1
   1 -11   3 17024.2 674.725   1
   1 -11   0 21964.9 840.329   1
  10   1   0 22872.6 868.428   1
  10   1  -3 12815.7 590.915   1
   1 -11  -3 11931.2 605.954   1
  10   1  -6 4889.11 373.315   1
   1 -11  -9 540.652 327.130   1
  -1  11   9-93.7438 545.686   1
  10   1  -9-13.0862 264.645   1
  -1  11  12 12644.0 803.775   1
  11 -10  12 12727.3 692.863   1
   1 -11 -12 13878.1 709.546   1
  11 -10  15 12564.4 687.209   1
  -1  11  15 10811.5 853.737   1
   1 -11 -15 12408.9 695.284   1
  -1  11  18 6931.05 775.403   1
  11 -10  18 6873.17 518.310   1
  11 -10  21 8735.47 632.317   1
  10   1 -21 8594.13 519.373   1
  -1  11  21 8472.10 864.261   1
  -1  11  24 8827.61 912.595   1
  10   1 -24 10425.3 574.231   1
  11 -10  24 9845.78 697.402   1
  10   1 -27-22.9432 365.585   1
  11 -10  27 25.1091 460.383   1
  -1  11  27-364.012 792.936   1
  10   1 -30 3235.12 416.298   1
  -1  11  30 3951.77 904.975   1
  11 -10  30 4197.93 551.761   1
  -1  11  33 447.144 808.943   1
  11 -10  33 322.837 432.538   1
  -1  11  36-246.714 825.535   1
  11 -10  36 414.165 530.110   1
   9   2  37 1404.97 699.906   1
   9   2  34 2197.75 720.231   1
   9   2  31 5069.83 765.534   1
   2 -11  31 3762.64 287.210   1
   9   2  28 4932.25 750.991   1
   2 -11  28 3625.67 261.189   1
   9   2  25 3209.28 670.781   1
   2 -11  25 3211.00 226.821   1
   2 -11  22 128.097 132.140   1
   9   2  22-252.637 588.375   1
   2 -11  19 158.723 117.835   1
   9   2  19-518.430 551.814   1
   9   2  16 1054.31 449.782   1
  -9  -2 -16 986.709 327.967   1
   2 -11  16 773.082 137.355   1
  -9  -2 -13 3769.82 393.304   1
   9   2  13 3950.42 494.097   1
   9   2  10 1829.91 423.602   1
  -9  -2 -10 2059.39 343.929   1
   2 -11  10 1758.61 277.369   1
   9   2   7 285.775 358.000   1
   2 -11   7 459.611 295.481   1
   2 -11   4 10387.3 522.546   1
   9   2   4 10113.3 568.217   1
   9   2   1 15473.9 680.037   1
   2 -11   1 14684.7 684.445   1
   9   2  -2 55488.2 1731.75   1
   2 -11  -2 53441.2 1769.38   1
   9   2  -5 12585.6 560.064   1
   9   2  -8 8143.72 426.386   1
   9   2 -11 762.906 233.114   1
  11  -9  11 807.609 383.118   1
   2 -11 -14 695.094 374.668   1
  11  -9  14 456.004 388.665   1
  -2  11  14-53.8107 607.511   1
   2 -11 -17-143.865 408.735   1
  11  -9  17-97.9951 381.708   1
  -2  11  17-335.236 648.422   1
  11  -9  20 5280.40 538.681   1
   9   2 -20 5134.67 394.745   1
  -2  11  20 5027.54 769.720   1
   9   2 -23 13889.0 613.776   1
  -2  11  23 11946.5 985.006   1
  11  -9  23 14741.9 794.027   1
  11  -9  26 2894.55 508.634   1
  -2  11  26 3285.28 812.357   1
   9   2 -26 3932.58 366.249   1
  11  -9  29 63.4889 493.748   1
  -2  11  29-549.714 810.173   1
   9   2 -29-14.7319 285.496   1
  -2  11  32 451.923 785.001   1
  11  -9  32 809.275 525.856   1
  -2  11  35-744.003 791.101   1
  11  -9  35-752.093 547.184   1
  11  -9  38 16.9364 550.445   1
   8   3  38 1448.69 682.533   1
   8   3  35 303.064 684.040   1
   8   3  32-26.7172 672.984   1
   3 -11  32 100.144 350.538   1
   8   3  29 2360.42 704.477   1
   3 -11  29 3407.12 323.408   1
   8   3  26 5323.97 748.716   1
   3 -11  26 5320.64 362.205   1
   3 -11  23 4159.77 306.077   1
   8   3  23 4171.17 659.984   1
   3 -11  20 3987.01 264.766   1
   8   3  20 2676.33 596.129   1
  11  -8 -20 3691.47 571.969   1
  -8  -3 -17 2951.25 390.929   1
   3 -11  17 2659.58 223.658   1
   3 -11  14 6323.88 317.975   1
   8   3  14 6252.97 565.851   1
  -8  -3 -14 6375.82 475.363   1
   8   3  11 6639.85 528.958   1
  -8  -3 -11 6108.22 451.124   1
   8   3   8 5819.97 498.374   1
   8   3   5 8243.39 522.090   1
   3 -11   5 8235.46 505.741   1
  -8  -3  -2 10195.9 510.938   1
   3 -11   2 10612.5 574.026   1
   8   3   2 9429.38 528.101   1
   8   3  -1 2746.80 358.489   1
   3 -11  -1 3321.23 446.879   1
   8   3  -4 494.071 271.880   1
   3 -11  -4 1156.16 433.194   1
   8   3  -7 3476.74 296.086   1
   3 -11 -10 3376.54 494.843   1
   8   3 -10 3386.99 268.210   1
  11  -8  10 3202.06 453.259   1
   3 -11 -13 3128.18 443.692   1
   8   3 -13 2896.17 248.812   1
  11  -8  13 1953.87 405.277   1
   3 -11 -16 2424.61 447.147   1
  11  -8  16 2030.81 438.730   1
   8   3 -19 10.3689 250.619   1
  11  -8  19-101.025 418.581   1
   8   3 -22 4908.16 351.332   1
  11  -8  22 4664.13 559.893   1
  11  -8  25 4799.16 553.365   1
   8   3 -25 4653.04 340.041   1
  11  -8  28 232.841 455.406   1
   8   3 -28 414.653 247.369   1
  11  -8  31 6006.76 612.899   1
  11  -8  34 2315.15 605.126   1
  11  -8  37-139.916 555.302   1
   7   4  39 1590.31 828.827   1
   7   4  36 1117.04 665.571   1
   4 -11  36 439.395 410.646   1
   4 -11  33 808.568 365.807   1
   7   4  33 458.308 682.466   1
   7   4  30-214.487 667.210   1
   4 -11  30 140.801 319.466   1
   7   4  27 3025.83 673.131   1
   4 -11  27 2537.38 366.914   1
  11  -7 -24 186.993 525.317   1
   7   4  24 657.273 614.583   1
   4 -11  24 370.015 268.478   1
   7   4  21 10024.8 786.490   1
   4 -11  21 11836.6 508.105   1
  11  -7 -21 11945.5 743.136   1
  -7  -4 -18 10749.3 624.465   1
   4 -11  18 10389.6 456.079   1
   7   4  18 9151.13 724.034   1
   4 -11  15 2681.59 268.633   1
   7   4  15 2365.29 524.861   1
  -7  -4 -15 2740.34 357.438   1
  -7  -4 -12 7675.70 488.800   1
   7   4  12 7650.76 593.555   1
   7   4   9 123.022 385.377   1
   7   4   6 1150.98 362.506   1
   7   4   3 26677.2 989.374   1
  -7  -4  -3 27705.6 970.235   1
  -7  -4   0 49990.2 1551.22   1
   7   4   0 47766.1 1557.33   1
   4 -11   0 48537.6 1611.90   1
   4 -11  -3 39989.0 1430.44   1
   7   4  -3 42598.1 1335.78   1
   7   4  -6 701.043 233.956   1
  11  -7   9 2141.20 414.359   1
   7   4  -9 2603.07 237.044   1
   7   4 -12 297.033 163.182   1
  11  -7  12 380.949 396.506   1
   4 -11 -12 425.552 440.255   1
  11  -7  15 13647.5 693.584   1
   4 -11 -15 13591.7 751.120   1
   7   4 -15 12734.8 460.221   1
  11  -7  18 14620.9 731.352   1
   7   4 -18 13285.3 466.294   1
   4 -11 -18 14730.1 768.339   1
   7   4 -18 13324.6 486.338   1
   7   4 -21 5334.47 275.276   1
  11  -7  21 6001.98 565.791   1
  11  -7  24 3965.67 519.905   1
   7   4 -24 2334.53 227.789   1
  11  -7  27 612.363 466.491   1
   7   4 -27 172.474 168.208   1
  11  -7  30 1.02194 529.432   1
   7   4 -30-4.95923 184.242   1
  11  -7  33 239.205 549.235   1
  11  -7  36 713.645 620.759   1
  11  -7  39-87.9268 611.796   1
   6   5  37-207.733 798.873   1
   5 -11  37 1439.92 422.252   1
   5 -11  34 864.591 408.427   1
   6   5  34 1457.75 733.713   1
   6   5  31 2099.42 682.252   1
   5 -11  31 995.900 402.680   1
   6   5  28 351.067 614.773   1
   5 -11  28-319.631 350.087   1
   6   5  25 2514.83 687.225   1
   5 -11  25 3761.55 380.290   1
  11  -6 -25 2378.86 576.642   1
   5 -11  22 2078.35 315.769   1
   6   5  22 2524.41 642.383   1
  11  -6 -22 2236.87 511.959   1
   5 -11  19 8143.98 432.424   1
  -6  -5 -19 7804.06 549.700   1
   6   5  19 7684.02 695.282   1
   6   5  16 6901.69 643.127   1
   5 -11  16 8070.46 419.109   1
  -6  -5 -16 8173.36 532.940   1
   6   5  13 18373.0 883.127   1
  -6  -5 -13 19260.7 801.927   1
   6   5  10 19308.3 884.906   1
   6   5   7 1143.95 424.850   1
  -6  -5  -4 11889.4 551.459   1
   6   5   4 10862.3 602.487   1
   6   5   1 45732.6 1479.95   1
  -6  -5  -1 45825.1 1461.42   1
   6   5  -2 17690.8 695.662   1
  -6  -5   2 18708.5 678.806   1
   6   5  -5 3395.02 290.282   1
  11  -6   8 9193.38 595.650   1
   6   5  -8 9711.82 397.161   1
   6   5 -11 1095.30 149.451   1
  11  -6  11 874.968 383.139   1
   5 -11 -11 1292.26 456.041   1
   6   5 -14 79.1636 84.4555   1
  11  -6  14-78.0050 372.355   1
   5 -11 -14 381.914 451.353   1
   5 -11 -17 3625.76 540.672   1
  11  -6  17 3202.60 486.231   1
  11  -6  20 721.080 440.159   1
   6   5 -23 322.061 79.5635   1
  11  -6  23 1007.71 476.575   1
  11  -6  26 1094.31 487.368   1
   6   5 -26 530.100 110.083   1
   6   5 -29 12.9642 119.262   1
  11  -6  29 386.043 511.913   1
  11  -6  32-198.856 546.044   1
  11  -6  35 697.063 602.126   1
  11  -6  38 1128.51 625.172   1
   6 -11  38 1017.78 433.496   1
   5   6  38 4.91677 774.014   1
   6 -11  35 715.713 446.961   1
   5   6  35 159.874 802.699   1
   6 -11  32 595.529 421.320   1
   5   6  32-360.710 782.307   1
   5   6  29 1280.62 668.379   1
   6 -11  29-363.072 380.878   1
   5   6  26 1092.98 646.360   1
  11  -5 -26 508.686 475.188   1
   6 -11  26 157.767 343.949   1
   5   6  23 6501.77 708.536   1
  11  -5 -23 5378.52 603.508   1
   6 -11  23 6032.38 435.450   1
   5   6  20 1393.04 567.962   1
   6 -11  20 888.540 302.838   1
  -5  -6 -17 2421.61 389.060   1
   5   6  17 2019.91 557.690   1
   6 -11  17 1808.10 308.827   1
   6 -11  14 3.29197 259.538   1
  -5  -6 -14 189.196 307.698   1
   5   6  14 120.021 507.843   1
  -5  -6 -11 216.917 245.416   1
   5   6  11 89.4827 439.124   1
   5   6   8 3338.81 480.127   1
   5   6   5 26471.3 1007.96   1
  -5  -6  -5 25751.8 940.532   1
   5   6   2 1133.08 396.359   1
  -5  -6  -2 1570.89 280.820   1
  -5  -6   1-3.01666 236.765   1
   5   6  -1 36.7261 317.468   1
  11  -5   4 2716.23 451.742   1
   5   6  -4 2915.34 312.286   1
  -5  -6   4 2874.60 258.818   1
   5   6  -7 2338.61 243.240   1
  11  -5   7 1866.85 419.224   1
   5   6 -10 6514.85 270.731   1
   6 -11 -10 7999.89 595.037   1
  11  -5  10 7350.50 528.812   1
  11  -5  13 4679.51 470.644   1
   6 -11 -13 4326.94 524.878   1
   6 -11 -16 4467.70 548.361   1
  11  -5  16 3666.08 501.477   1
   6 -11 -19 40.2323 497.819   1
  11  -5  19-72.9104 457.431   1
  11  -5  22 749.819 477.946   1
  11  -5  25 67.8577 505.637   1
  11  -5  28 6543.34 649.101   1
  11  -5  31 6120.79 675.146   1
  11  -5  34 2340.19 622.164   1
  11  -5  37 80.1625 641.448   1
   7 -11  39 342.977 473.423   1
   4   7  39 640.584 809.765   1
   7 -11  36-97.4226 465.936   1
   4   7  36 1212.65 824.775   1
   7 -11  33 2058.07 479.539   1
   4   7  33 2209.76 815.543   1
   4   7  30 2231.85 818.741   1
   7 -11  30 1325.10 416.446   1
  11  -4 -30 1180.70 538.951   1
  11  -4 -27 203.684 475.097   1
   4   7  27 655.140 756.372   1
   7 -11  27 136.947 381.881   1
   7 -11  24 841.574 353.432   1
  11  -4 -24 1144.22 507.409   1
   4   7  24 1986.49 655.383   1
   7 -11  21 8396.34 521.385   1
   4   7  21 9725.54 770.661   1
  -4  -7 -18 24448.6 1002.80   1
   7 -11  18 24653.8 912.036   1
   4   7  18 23033.4 1104.93   1
   7 -11  15 21648.0 825.657   1
  -4  -7 -15 21796.9 892.700   1
   4   7  15 21192.9 988.847   1
   4   7  12 3196.85 517.602   1
  -4  -7 -12 3253.68 367.290   1
   4   7   9 6123.89 535.501   1
   4   7   6 175.101 433.912   1
  -4  -7  -6 247.103 288.684   1
  -4  -7  -3 1678.35 291.418   1
   4   7   3 1856.55 418.416   1
  -4  -7   0 11597.3 505.100   1
   4   7   0 11578.5 571.380   1
  -4  -7   3 19729.8 684.100   1
   4   7  -3 20414.9 726.709   1
  11  -4   3 17498.1 834.456   1
  11  -4   6 14787.4 750.050   1
   4   7  -6 16621.9 584.220   1
  -4  -7   6 15337.8 542.544   1
   4   7  -9 9.65474 142.266   1
  11  -4   9-24.6663 377.008   1
  11  -4  12 3878.22 456.245   1
  11  -4  15 15951.6 791.994   1
   7 -11 -15 15923.0 826.866   1
   7 -11 -18 4294.39 575.126   1
 -11   4 -18 5284.48 470.565   1
  11  -4  21 16957.9 883.584   1
  11  -4  24 5613.66 610.502   1
  11  -4  27 1035.21 508.030   1
  11  -4  30-386.885 538.322   1
  11  -4  33 2919.18 642.190   1
  11  -4  36 727.359 646.964   1
  11  -4  39 1017.05 664.858   1
   8 -11  37-451.709 494.729   1
   3   8  37 452.328 799.563   1
   8 -11  34 1655.34 513.711   1
   3   8  34 1643.20 852.038   1
   8 -11  31 9037.31 625.139   1
  11  -3 -31 7161.64 640.426   1
   3   8  31 9002.36 1000.71   1
  11  -3 -28 10971.3 721.237   1
   8 -11  28 11051.1 663.203   1
   3   8  28 11777.3 988.231   1
   3   8  25 4168.07 816.354   1
   8 -11  25 3987.33 469.565   1
  11  -3 -25 3340.20 525.490   1
   3   8  22 366.923 724.488   1
   8 -11  22 82.5927 353.068   1
  11  -3 -22 243.691 455.704   1
   8 -11  19-28.5261 327.131   1
   3   8  19 207.270 643.247   1
   3   8  16 6357.63 687.700   1
  -3  -8 -16 6327.40 484.503   1
   8 -11  16 5882.91 440.416   1
   3   8  13 4917.76 597.555   1
  -3  -8 -13 4750.09 428.143   1
   8 -11  13 3595.99 391.319   1
   3   8  10 3317.70 494.254   1
   3   8   7 12204.5 668.921   1
  -3  -8  -4 9879.69 489.176   1
   3   8   4 9491.86 612.342   1
   3   8   1 15515.5 724.573   1
  -3  -8  -1 15171.9 615.588   1
  11  -3   2 12442.7 670.100   1
  -3  -8   2 13627.2 531.823   1
   3   8  -2 13209.9 621.131   1
   3   8  -5 38891.2 1224.26   1
  11  -3   5 37300.3 1360.84   1
  -3  -8   5 38708.4 1187.68   1
  11  -3   8 25739.1 987.167   1
  -3  -8   8 23471.0 733.268   1
  11  -3  11 5086.79 495.447   1
   8 -11 -14 441.868 454.457   1
  11  -3  14 833.714 404.709   1
 -11   3 -14 427.594 304.024   1
  11  -3  17 1663.08 470.751   1
   8 -11 -17 1924.90 544.126   1
 -11   3 -17 1818.07 376.855   1
  11  -3  20 11959.2 736.977   1
  11  -3  23 21145.5 1029.17   1
  11  -3  26 4435.12 635.094   1
  11  -3  29 901.205 584.670   1
  11  -3  32-645.684 616.972   1
  11  -3  35 827.582 652.940   1
  11  -3  38 118.140 645.416   1
   9 -11  38 1696.82 558.712   1
   2   9  38 2687.64 893.880   1
   2   9  35 230.442 777.004   1
   9 -11  35-110.256 516.441   1
  11  -2 -32 1300.36 418.951   1
   9 -11  32-77.2581 445.979   1
   2   9  32 889.391 834.044   1
   2   9  29 1025.95 761.092   1
  11  -2 -29 1003.74 478.738   1
   9 -11  29 395.842 423.382   1
   9 -11  26 559.677 399.205   1
  11  -2 -26 315.340 440.509   1
   2   9  26 1201.11 765.493   1
  11  -2 -23 13536.7 745.928   1
   2   9  23 14830.7 1032.56   1
   9 -11  23 13703.5 704.078   1
   9 -11  20 5034.19 474.358   1
   2   9  20 4636.09 755.071   1
   9 -11  17 1860.00 393.452   1
  -2  -9 -17 1611.04 384.111   1
   2   9  17 1880.07 658.105   1
   9 -11  14 1222.82 359.360   1
  -2  -9 -14 1431.51 359.693   1
   2   9  14 2168.51 600.946   1
   2   9  11 1606.47 545.364   1
  -2  -9 -11 1100.41 353.069   1
   2   9   8 19471.5 931.442   1
  -2  -9  -5 11241.7 556.819   1
   2   9   5 10208.0 686.175   1
  -2  -9  -2 1173.32 292.259   1
  11  -2  -2 1130.34 368.379   1
   2   9   2 1665.95 460.743   1
  11  -2   1 7088.05 524.451   1
  -2  -9   1 7373.87 393.769   1
   2   9  -1 8206.83 515.739   1
  11  -2   4 1468.50 393.835   1
   2   9  -4 1040.74 329.979   1
  -2  -9   4 957.020 216.834   1
  11  -2   7 1942.90 424.649   1
  -2  -9   7 1921.37 180.920   1
  11  -2  10 4222.04 476.210   1
  11  -2  13 16145.5 813.810   1
 -11   2 -13 17718.6 775.903   1
 -11   2 -16 16498.0 766.629   1
   9 -11 -16 16943.0 879.291   1
  11  -2  16 14857.7 799.200   1
  11  -2  19 445.022 479.421   1
  11  -2  22 34.4091 517.645   1
  11  -2  25 1813.35 538.024   1
  11  -2  28 10527.8 824.816   1
  11  -2  31 8697.85 852.349   1
  11  -2  34 896.515 644.705   1
  11  -2  37 1087.41 695.352   1
  10 -11  36 1139.57 541.376   1
   1  10  36 1860.30 873.447   1
  10 -11  33 212.460 444.956   1
   1  10  33-66.2290 773.237   1
  11  -1 -30 185.229 404.543   1
   1  10  30 837.754 800.822   1
  10 -11  30-304.568 465.853   1
  10 -11  27 96.0148 443.318   1
   1  10  27 380.922 740.604   1
  11  -1 -27 161.028 423.506   1
  10 -11  24 396.984 396.459   1
  11  -1 -24 898.473 438.085   1
   1  10  24 1003.89 733.220   1
  10 -11  21 3612.45 472.088   1
   1  10  21 4797.93 804.972   1
  10 -11  18 4201.60 450.289   1
   1  10  18 3979.19 710.209   1
   1  10  15 8223.60 746.936   1
  -1 -10 -15 8544.20 591.470   1
  10 -11  15 7752.47 549.575   1
   1  10  12 8799.56 735.833   1
  -1 -10 -12 10445.3 599.986   1
   1  10   9 529.356 511.647   1
   1  10   6 114.479 461.903   1
  -1 -10  -3 5069.45 408.292   1
  11  -1  -3 5208.45 423.810   1
   1  10   3 4792.84 529.862   1
  -1 -10   0 22809.0 842.535   1
   1  10   0 22140.6 900.493   1
  11  -1   0 24217.2 920.017   1
  -1 -10   3 11388.8 491.531   1
  11  -1   3 10850.8 604.263   1
  11  -1   6 2893.66 425.004   1
  -1 -10   6 3001.68 251.288   1
 -11   1  -9 29.8713 286.776   1
  11  -1   9 18.2756 381.844   1
  -1 -10   9 53.2263 109.079   1
  11  -1  12 2755.92 471.408   1
 -11   1 -12 3003.28 377.957   1
 -11   1 -15 14199.5 694.604   1
  11  -1  15 12126.7 746.703   1
  11  -1  18 2142.53 514.487   1
  11  -1  21 1294.85 514.073   1
  11  -1  24-183.203 521.574   1
  11  -1  27 1096.97 624.482   1
  11  -1  30 1150.37 640.435   1
  11  -1  33 2589.60 734.342   1
  11  -1  36 236.372 714.588   1
   0  11  37 53.8682 804.455   1
  11 -11  37-685.420 524.679   1
   0  11  34-322.855 823.426   1
  11 -11  34 343.487 445.777   1
   0  11  31 1655.63 850.047   1
  11 -11  31 2457.33 527.681   1
  11   0 -28 8028.72 575.976   1
   0  11  28 7111.36 948.386   1
  11 -11  28 7908.91 626.327   1
  11 -11  25 1012.49 467.004   1
   0  11  25 1191.91 761.955   1
  11   0 -25 1665.47 445.047   1
  11   0 -22 792.165 407.079   1
   0  11  22 1242.99 763.721   1
  11 -11  22 1477.24 424.226   1
  11 -11  19 3.63906 397.254   1
   0  11  19 218.301 699.920   1
  11 -11  16 347.351 393.736   1
   0 -11 -16-49.4755 413.542   1
   0  11  16 158.955 654.826   1
   0  11  13 2093.67 600.257   1
   0 -11 -13 2478.16 434.717   1
  11 -11  13 2591.73 441.507   1
   0 -11 -10 4529.46 459.677   1
   0  11  10 4912.66 634.130   1
   0  11   7 4204.39 591.477   1
  11   0  -7 4270.14 386.766   1
   0 -11  -4 87.5703 314.244   1
  11   0  -4 254.563 304.937   1
   0  11   4-473.946 489.010   1
  11   0  -1 2448.57 362.870   1
   0 -11  -1 2767.17 348.282   1
   0 -11   2 10575.3 499.568   1
  11   0   2 8806.84 539.659   1
  11   0   5 28833.7 1125.88   1
   0 -11   5 31149.0 1008.94   1
   0 -11   8 24265.8 817.693   1
  11   0   8 26226.3 1011.99   1
 -11   0  -8 25603.1 973.652   1
 -11   0 -11 10727.5 566.005   1
  11   0  11 10341.5 635.723   1
  11   0  14 989.302 453.068   1
 -11   0 -14 1263.70 355.005   1
  11   0  17 241.545 454.149   1
  11   0  20 568.989 508.042   1
  11   0  23 9333.64 737.289   1
  11   0  26 194.244 632.226   1
  11   0  29 301.767 649.674   1
  11   0  32 441.359 634.894   1
  11   0  35 296.725 664.003   1
  11   1  37 559.391 732.555   1
  11   1  34 2154.55 738.524   1
  11   1  31 7541.39 867.063   1
  11   1  28 8978.07 869.312   1
  11   1  25 1564.88 641.429   1
  11   1  22 1842.93 591.603   1
  11   1  19 2153.31 526.113   1
  11   1  16 1446.14 478.968   1
  11   1  13 4363.26 531.148   1
 -11  -1 -13 5258.19 456.820   1
   1 -12  10 8679.12 396.851   1
  11   1  10 10704.6 657.043   1
 -11  -1 -10 10327.3 566.230   1
   1 -12   7 402.122 239.767   1
  11   1   7-84.5630 387.727   1
 -11  -1  -7 17.7941 280.139   1
   1 -12   4 573.319 273.510   1
  11   1   4 219.918 362.473   1
  11   1   1 5841.11 464.441   1
   1 -12   1 5635.76 411.505   1
  11   1  -2 14992.6 665.890   1
   1 -12  -2 13479.1 646.641   1
  11   1  -5 18428.6 759.333   1
  11   1  -8 28222.8 1009.97   1
   1 -12  -8 27630.0 1076.23   1
   1 -12 -11 14367.8 735.000   1
  12 -11  11 14512.1 734.445   1
  -1  12  11 13204.9 849.723   1
  11   1 -11 14543.1 621.363   1
  12 -11  14-59.8835 400.194   1
   1 -12 -14 25.5389 414.008   1
  -1  12  14-221.587 636.904   1
  12 -11  17 1010.83 422.582   1
  -1  12  17 1245.72 665.604   1
  12 -11  20 4581.41 537.607   1
  -1  12  20 4615.74 812.637   1
  -1  12  23 4158.94 845.078   1
  11   1 -23 4182.27 456.426   1
  12 -11  23 4526.07 577.065   1
  11   1 -26 3818.61 440.987   1
  12 -11  26 3505.35 549.107   1
  -1  12  26 3792.56 817.143   1
  12 -11  29 909.610 481.604   1
  -1  12  29 588.149 789.352   1
  -1  12  32-692.924 783.621   1
  12 -11  32 165.572 451.472   1
  -1  12  35-173.169 802.045   1
  12 -11  35-574.804 519.603   1
  10   2  35-591.038 682.036   1
  10   2  32 3125.10 742.741   1
  10   2  29 4842.85 764.793   1
  10   2  26 6640.17 770.765   1
  10   2  23 5135.69 714.190   1
   2 -12  20 103.156 80.8829   1
  10   2  20 90.7802 584.384   1
   2 -12  17 151.024 105.010   1
   2 -12  17 30.3504 141.773   1
  10   2  17 192.339 473.512   1
 -10  -2 -14 4.56057 322.552   1
   2 -12  14 142.555 191.136   1
   2 -12  14-61.3013 136.032   1
  10   2  14-167.048 439.895   1
  10   2  11 997.198 433.062   1
   2 -12  11 1481.42 266.418   1
 -10  -2 -11 992.422 337.814   1
  10   2   8 743.865 375.190   1
 -10  -2  -8 718.036 310.532   1
   2 -12   8 1139.12 285.172   1
  10   2   5-150.514 353.770   1
   2 -12   5-263.302 297.821   1
  10   2   2-16.4916 337.992   1
   2 -12   2 51.6381 346.661   1
   2 -12  -1-45.5394 376.966   1
  10   2  -1 57.4725 301.749   1
  10   2  -4 10468.2 521.651   1
  10   2  -7 14146.1 604.684   1
  10   2 -10 35030.8 1156.38   1
  12 -10  10 34097.3 1281.27   1
   2 -12 -10 33662.9 1267.34   1
  12 -10  13 21490.3 933.303   1
  10   2 -13 21526.3 788.344   1
   2 -12 -13 21562.0 954.673   1
   2 -12 -16 10319.0 675.788   1
  12 -10  16 11613.4 676.286   1
  -2  12  16 10224.8 842.493   1
  12 -10  19 934.829 434.081   1
  -2  12  19 97.5341 706.689   1
  -2  12  22-675.940 726.289   1
  10   2 -22 542.026 349.223   1
  12 -10  22-144.145 475.692   1
  12 -10  25 967.332 492.563   1
  -2  12  25 88.1846 752.058   1
  10   2 -25 1417.25 360.314   1
  10   2 -28 2077.79 323.407   1
  12 -10  28 1300.30 511.360   1
  -2  12  31-35.9001 794.139   1
  12 -10  31 1384.53 526.501   1
  12 -10  34-442.686 499.961   1
  12 -10  37-630.458 539.084   1
   9   3  36 473.942 689.055   1
   9   3  33-147.775 703.432   1
   9   3  30 487.996 671.728   1
   3 -12  30 361.295 252.369   1
   3 -12  27 528.624 208.755   1
   9   3  27-233.681 652.559   1
   3 -12  24-94.6595 188.868   1
   9   3  24-143.167 622.442   1
   9   3  21-455.526 559.956   1
   3 -12  21 214.664 164.806   1
   9   3  18 1695.76 535.484   1
   3 -12  18 2154.13 209.290   1
   3 -12  15 4054.94 257.238   1
  -9  -3 -15 4389.96 419.191   1
   9   3  15 3741.53 531.602   1
  -9  -3 -12 3364.97 379.513   1
   9   3  12 2562.53 462.945   1
   9   3   9 1208.94 398.169   1
  -9  -3  -9 1717.33 326.994   1
   9   3   6 3088.37 421.790   1
   3 -12   6 3233.81 365.370   1
   3 -12   3 21292.7 835.933   1
   9   3   3 21019.4 854.238   1
   3 -12   0 18906.9 795.479   1
   9   3   0 18504.6 751.661   1
   9   3  -3 14314.7 616.425   1
   9   3  -6 1478.41 277.662   1
   3 -12  -9 1780.16 456.660   1
  12  -9   9 1444.27 417.112   1
   9   3  -9 1957.69 264.133   1
   9   3 -12 394.398 215.963   1
   3 -12 -12 694.998 383.164   1
  12  -9  12 236.230 392.085   1
   9   3 -15 11492.7 472.519   1
  12  -9  15 10030.2 667.724   1
   3 -12 -15 11029.2 672.183   1
  12  -9  18 9357.30 650.815   1
   9   3 -21 936.684 301.418   1
  12  -9  21 469.825 456.864   1
   9   3 -24 370.288 266.944   1
  12  -9  24-346.593 477.186   1
  12  -9  27-139.739 452.758   1
   9   3 -27-57.1899 251.626   1
  12  -9  30-749.957 473.237   1
  12  -9  33 558.951 500.755   1
  12  -9  36 1002.90 595.729   1
   8   4  37 785.535 704.498   1
   8   4  34 1010.67 694.119   1
   4 -12  31 1650.75 338.577   1
   8   4  31 773.976 674.035   1
   8   4  28 1716.83 692.985   1
   4 -12  28 2832.51 332.825   1
   8   4  25 2519.70 657.160   1
   4 -12  25 2153.93 318.201   1
   8   4  22 9287.75 785.475   1
   4 -12  22 10350.0 467.360   1
   8   4  19 277.591 570.225   1
   4 -12  19 416.473 227.716   1
   4 -12  16 2781.73 267.703   1
   8   4  16 2823.38 561.828   1
  -8  -4 -16 3711.17 408.780   1
   8   4  13 13740.2 800.753   1
  -8  -4 -13 16832.8 735.991   1
   8   4  10 27101.1 1108.97   1
  -8  -4 -10 29795.4 1072.97   1
   8   4   7 4271.02 446.028   1
   8   4   4 15439.7 706.428   1
   8   4   1 2387.62 357.875   1
  -8  -4  -1 2001.53 291.316   1
   4 -12   1 2464.27 428.659   1
   8   4  -2 11145.9 539.298   1
   4 -12  -2 11734.8 654.348   1
   8   4  -5 17899.4 682.831   1
   8   4  -8 8825.92 416.664   1
   4 -12  -8 8386.65 585.780   1
  12  -8   8 8854.31 596.724   1
  12  -8  11 1566.67 423.281   1
   8   4 -11 1849.90 216.847   1
   4 -12 -11 1728.32 486.606   1
  12  -8  14 806.358 399.194   1
   4 -12 -14 878.166 455.009   1
   8   4 -14 814.945 183.324   1
  12  -8  17 12740.0 724.366   1
   4 -12 -17 13516.6 763.253   1
   8   4 -17 12918.1 473.078   1
  12  -8  20 13007.8 761.043   1
   8   4 -20 12045.2 437.663   1
   8   4 -20 11528.8 464.671   1
  12  -8  23 10346.5 721.843   1
   8   4 -23 8911.32 383.191   1
   8   4 -26 4318.62 269.186   1
  12  -8  26 6106.14 598.301   1
   8   4 -29 6159.31 315.212   1
  12  -8  29 9761.85 711.068   1
  12  -8  32 3166.81 590.963   1
  12  -8  35 136.995 565.685   1
  12  -8  38-449.413 606.063   1
   7   5  38-866.321 765.198   1
   7   5  35 1015.90 679.758   1
   5 -12  35 112.745 355.935   1
   7   5  32 1134.23 716.596   1
   5 -12  32 1670.86 390.022   1
   7   5  29 2579.65 687.538   1
   5 -12  29 2174.36 384.716   1
   7   5  26 5094.55 739.910   1
   5 -12  26 5352.69 406.494   1
   5 -12  23 2510.03 321.440   1
   7   5  23 1795.67 669.339   1
  12  -7 -23 1475.26 572.750   1
   7   5  20 2212.51 631.553   1
   5 -12  20 3592.08 327.257   1
   7   5  17 695.917 543.054   1
  -7  -5 -17 1123.03 373.453   1
   5 -12  17 1525.66 268.206   1
   7   5  14-333.943 494.715   1
  -7  -5 -14 84.7154 327.555   1
  -7  -5 -11 10928.4 574.233   1
   7   5  11 10074.5 674.473   1
   7   5   8 1117.60 406.782   1
   7   5   5 13822.7 684.747   1
   7   5   2 6670.85 460.017   1
  -7  -5  -2 6821.46 417.993   1
  -7  -5   1 11698.7 521.947   1
   7   5  -1 11160.2 537.753   1
   7   5  -4 1453.88 275.593   1
   7   5  -7 6209.32 332.377   1
  12  -7   7 5396.11 509.271   1
  12  -7  10 4606.52 498.001   1
   7   5 -10 5188.64 282.026   1
   5 -12 -10 5004.25 543.025   1
  12  -7  13 17865.3 845.321   1
   5 -12 -13 16418.0 853.515   1
   7   5 -13 17689.2 582.367   1
  12  -7  16 149.124 417.903   1
   7   5 -16 368.647 105.470   1
   5 -12 -16 867.330 480.485   1
   7   5 -16 231.245 133.043   1
   7   5 -19 101.035 81.9739   1
  12  -7  19 59.9040 438.264   1
   7   5 -19 119.684 71.9306   1
  12  -7  22-210.078 441.679   1
   7   5 -25 442.153 84.4718   1
   7   5 -25 494.233 77.3302   1
  12  -7  28 2948.07 575.316   1
   7   5 -28 1135.35 110.237   1
  12  -7  31 4631.82 628.770   1
  12  -7  34 64.0866 604.171   1
  12  -7  37-528.405 638.376   1
   6   6  36 1242.47 805.307   1
   6 -12  36 1303.53 414.209   1
   6   6  33 1428.50 746.013   1
   6 -12  33 1151.62 411.359   1
   6   6  30 2791.38 715.133   1
   6 -12  30 877.883 398.814   1
   6   6  27 1998.50 688.900   1
   6 -12  27 341.351 331.000   1
   6 -12  24 3261.95 392.910   1
   6   6  24 3228.67 680.576   1
  12  -6 -24 2426.51 570.255   1
   6 -12  21 9604.60 510.316   1
   6   6  21 9015.86 777.629   1
   6   6  18 5653.02 653.044   1
   6 -12  18 7022.22 435.351   1
   6   6  15 11508.7 741.565   1
   6 -12  15 10776.9 519.258   1
  -6  -6 -15 10722.0 601.700   1
   6   6  12 9360.14 677.029   1
  -6  -6 -12 11116.3 583.032   1
   6   6   9 1863.20 465.484   1
   6   6   6 1661.13 428.748   1
  -6  -6  -3 34891.5 1175.82   1
   6   6   3 34175.6 1219.41   1
   6   6   0 44520.1 1481.98   1
  -6  -6   0 46543.9 1458.18   1
  -6  -6   3 7732.17 381.561   1
   6   6  -3 7227.00 422.251   1
   6   6  -6-57.0069 238.222   1
  12  -6   6-176.106 380.272   1
  12  -6   9 396.469 389.793   1
   6   6  -9 142.043 183.408   1
   6 -12  -9 259.527 471.398   1
   6   6 -12 6587.37 264.115   1
  12  -6  12 6962.25 547.762   1
  12  -6  15 3286.14 480.069   1
   6 -12 -15 4532.00 563.665   1
  12  -6  18 43.5202 470.043   1
  12  -6  21-158.983 483.843   1
  12  -6  24 615.900 476.198   1
  12  -6  27 231.960 493.443   1
  12  -6  30 8734.31 721.678   1
  12  -6  33 3184.26 644.045   1
  12  -6  36 6954.60 809.019   1
   7 -12  37 191.636 424.823   1
   5   7  37 214.408 803.529   1
   5   7  34 648.693 786.655   1
   7 -12  34 1421.38 461.574   1
   5   7  31 3370.86 848.579   1
   7 -12  31 2432.83 456.262   1
   5   7  28 2486.34 742.324   1
   7 -12  28 2054.17 385.598   1
   5   7  25 1506.15 659.913   1
   7 -12  25 366.399 353.230   1
  12  -5 -25 888.364 517.137   1
   5   7  22 1337.09 651.487   1
   7 -12  22 989.277 339.128   1
   5   7  19 1416.73 589.299   1
   7 -12  19 755.154 308.475   1
   7 -12  16 8795.44 505.050   1
  -5  -7 -16 9214.15 571.616   1
   5   7  16 9827.15 726.567   1
   5   7  13 13539.2 777.349   1
  -5  -7 -13 14788.2 704.136   1
  -5  -7 -10 289.268 291.634   1
   5   7  10 380.394 458.571   1
   5   7   7 11110.5 662.167   1
   5   7   4 1017.52 412.118   1
  -5  -7  -4 1260.91 297.022   1
  -5  -7  -1 11229.9 506.189   1
   5   7   1 10341.0 577.067   1
  -5  -7   2 787.493 218.803   1
   5   7  -2 748.766 313.248   1
  12  -5   5 6895.02 551.222   1
   5   7  -5 7587.14 393.852   1
  -5  -7   5 7194.21 348.313   1
   7 -12  -8 33031.7 1263.91   1
   5   7  -8 32596.3 1011.72   1
  12  -5   8 31029.1 1205.53   1
   5   7 -11 2816.66 147.676   1
   7 -12 -11 2723.56 500.576   1
  12  -5  11 2977.72 450.767   1
  12  -5  14 114.324 406.788   1
   7 -12 -14 81.9267 479.167   1
   7 -12 -17 354.964 514.587   1
  12  -5  17 235.593 438.717   1
  12  -5  20 4570.08 564.906   1
  12  -5  23 1946.19 553.203   1
  12  -5  26 469.813 500.011   1
  12  -5  29 1856.19 580.181   1
  12  -5  32-666.549 586.586   1
  12  -5  35 240.879 614.541   1
  12  -5  38 496.370 603.411   1
   8 -12  38 52.4986 499.323   1
   4   8  38 275.904 784.643   1
   8 -12  35-700.798 454.532   1
   4   8  35 1148.99 829.970   1
   8 -12  32 996.067 439.014   1
   4   8  32 814.918 829.907   1
   4   8  29 4191.40 845.773   1
   8 -12  29 5147.46 500.280   1
  12  -4 -29 4195.69 592.523   1
  12  -4 -26 8065.17 681.039   1
   8 -12  26 8124.40 570.183   1
   4   8  26 8621.61 903.357   1
   4   8  23 3166.69 764.251   1
  12  -4 -23 3250.83 542.098   1
   8 -12  23 3703.28 432.279   1
   8 -12  20 17100.1 772.697   1
   4   8  20 19404.5 1015.01   1
  -4  -8 -17 6600.49 521.748   1
   4   8  17 6314.88 667.839   1
   8 -12  17 6452.00 464.817   1
  -4  -8 -14 1342.71 336.473   1
   4   8  14 1814.56 518.826   1
   8 -12  14 696.412 312.293   1
  -4  -8 -11 204.277 281.239   1
   4   8  11 921.385 502.031   1
   4   8   8 14951.2 744.448   1
  -4  -8  -5 8384.70 480.824   1
   4   8   5 8547.75 559.258   1
   4   8   2 5960.38 475.735   1
  -4  -8  -2 5096.34 369.748   1
   4   8  -1 8953.39 493.477   1
  -4  -8   1 9010.02 433.801   1
  12  -4   1 9053.77 589.108   1
   4   8  -4 3243.44 375.739   1
  -4  -8   4 3847.74 267.673   1
  12  -4   4 3527.08 454.748   1
   4   8  -7 35640.1 1102.39   1
  12  -4   7 33166.5 1269.94   1
  -4  -8   7 34934.9 1073.61   1
  12  -4  10 13595.4 718.513   1
   8 -12 -13 10536.9 702.794   1
  12  -4  13 10671.1 655.198   1
  12  -4  16 5126.00 561.561   1
   8 -12 -16 5287.76 613.901   1
  12  -4  19-5.06113 457.875   1
  12  -4  22-29.3726 499.799   1
  12  -4  25 678.100 532.903   1
  12  -4  28 506.438 508.581   1
  12  -4  31-239.387 609.166   1
  12  -4  34 124.047 630.176   1
  12  -4  37 254.825 617.399   1
   3   9  36 853.583 819.387   1
   9 -12  36 8.07658 484.557   1
   9 -12  33 792.788 459.215   1
   3   9  33 908.916 778.851   1
   3   9  30 2014.55 815.910   1
   9 -12  30 1856.83 459.000   1
  12  -3 -30 2079.08 553.494   1
   9 -12  27 1057.62 425.466   1
  12  -3 -27 1497.58 496.542   1
   3   9  27 2310.73 777.343   1
   9 -12  24 564.322 397.553   1
  12  -3 -24 165.427 469.429   1
   9 -12  21 11825.6 641.229   1
   3   9  21 10533.4 913.081   1
   3   9  18 3100.65 699.042   1
   9 -12  18 1968.71 399.732   1
  -3  -9 -15 9073.44 577.735   1
   9 -12  15 8944.18 544.797   1
   3   9  15 8587.80 774.349   1
  -3  -9 -12 12729.3 626.009   1
   3   9  12 9541.38 753.459   1
   3   9   9 401.052 491.653   1
  -3  -9  -9 501.832 282.623   1
   3   9   6 5165.02 579.206   1
  -3  -9  -3 17591.1 697.690   1
   3   9   3 16842.8 795.510   1
  -3  -9   0 48287.7 1484.78   1
  12  -3   0 44084.1 1567.96   1
   3   9   0 46558.0 1533.14   1
  12  -3   3 17504.9 831.891   1
  -3  -9   3 19012.8 674.895   1
   3   9  -3 18463.5 735.792   1
  -3  -9   6 148.431 173.511   1
  12  -3   6 112.529 370.246   1
   3   9  -6 86.2010 266.988   1
  -3  -9   9 6164.50 244.602   1
  12  -3   9 7997.58 549.551   1
  12  -3  12 6371.97 552.323   1
 -12   3 -15 7648.20 540.885   1
   9 -12 -15 7971.88 659.137   1
  12  -3  15 7423.57 611.523   1
  12  -3  18 8220.11 648.359   1
  12  -3  21 22354.5 1054.19   1
  12  -3  24 3492.80 595.077   1
  12  -3  27 1101.17 538.269   1
  12  -3  30 308.941 619.734   1
  12  -3  33 304.495 673.786   1
  12  -3  36 1772.87 673.494   1
  10 -12  37-266.252 497.824   1
   2  10  37 533.211 784.531   1
  10 -12  34-6.99765 475.049   1
   2  10  34-199.761 826.380   1
  12  -2 -31 429.520 482.748   1
   2  10  31 794.757 798.136   1
  10 -12  31 971.569 446.971   1
  10 -12  28 488.125 420.693   1
  12  -2 -28 1246.59 479.087   1
   2  10  28 1460.59 802.974   1
  10 -12  25 156.250 385.132   1
  12  -2 -25 151.798 447.911   1
   2  10  25 682.162 750.050   1
   2  10  22 1714.33 731.308   1
  10 -12  22 2041.56 412.057   1
  10 -12  19 1819.39 422.307   1
   2  10  19 1889.79 734.321   1
  10 -12  16 11126.7 631.554   1
  -2 -10 -16 12012.1 673.247   1
   2  10  16 10770.7 844.790   1
  10 -12  13 33702.7 1206.55   1
  -2 -10 -13 33244.8 1236.85   1
   2  10  13 32162.2 1338.35   1
  -2 -10 -10 23477.5 947.512   1
   2  10  10 23075.5 1055.20   1
   2  10   7 18114.7 885.542   1
  12  -2  -4 3047.78 395.844   1
   2  10   4 3298.52 511.893   1
  -2 -10  -4 2512.94 340.006   1
  -2 -10  -1 5374.30 385.921   1
  12  -2  -1 5884.44 473.885   1
   2  10   1 6533.46 520.816   1
  12  -2   2 1626.91 386.669   1
   2  10  -2 1484.21 381.658   1
  -2 -10   2 1928.13 249.542   1
  -2 -10   5 2675.95 242.325   1
  12  -2   5 2644.27 427.590   1
  12  -2   8 4986.50 488.388   1
  -2 -10   8 5213.16 254.358   1
  12  -2  11-50.8529 420.066   1
 -12   2 -14 252.983 323.869   1
  12  -2  14 36.6458 452.629   1
  12  -2  17 81.4929 457.307   1
  12  -2  20 5645.49 615.382   1
  12  -2  23 3031.10 574.845   1
  12  -2  26 2311.42 560.057   1
  12  -2  29 3332.32 698.716   1
  12  -2  32-884.556 642.075   1
  12  -2  35 460.638 673.101   1
  11 -12  35 668.433 468.255   1
   1  11  35 208.611 812.073   1
   1  11  32 1287.27 783.531   1
  11 -12  32-108.916 457.091   1
  12  -1 -29 2663.68 472.804   1
  11 -12  29 2901.21 507.176   1
   1  11  29 2634.11 823.692   1
  11 -12  26 146.830 446.660   1
  12  -1 -26 86.5502 434.369   1
   1  11  26 287.187 747.797   1
   1  11  23 948.261 739.370   1
  11 -12  23 545.960 440.988   1
  11 -12  20 5708.25 519.054   1
   1  11  20 5490.02 798.426   1
  11 -12  17 687.161 396.955   1
   1  11  17 551.350 655.575   1
  -1 -11 -14 1317.65 410.417   1
  11 -12  14 1753.65 421.329   1
   1  11  14 2282.57 616.230   1
  -1 -11 -11 5324.82 502.119   1
   1  11  11 5183.09 676.642   1
  -1 -11  -8 14217.5 690.096   1
   1  11   8 13370.0 801.712   1
   1  11   5 21670.0 981.975   1
  12  -1  -5 24200.5 922.231   1
  12  -1  -2 7050.88 496.479   1
  -1 -11  -2 6725.12 454.054   1
   1  11   2 6982.82 569.631   1
  -1 -11   1 9340.95 478.307   1
  12  -1   1 9707.14 568.426   1
  12  -1   4 1250.60 399.713   1
  -1 -11   4 1418.23 252.208   1
  12  -1   7 6928.09 544.555   1
  -1 -11   7 7419.02 340.496   1
  -1 -11  10 3139.57 178.154   1
  12  -1  10 4905.74 534.558   1
 -12   1 -13 2886.68 395.965   1
  12  -1  13 2117.48 479.501   1
  12  -1  16 1758.18 506.132   1
  12  -1  19 618.031 528.438   1
  12  -1  22 5990.46 649.534   1
  12  -1  25 1517.82 579.562   1
  12  -1  28 3753.14 684.991   1
  12  -1  31-507.279 645.845   1
  12  -1  34-315.936 676.312   1
  12  -1  37-940.265 706.510   1
   0  12  36 1177.97 859.435   1
  12 -12  36 1622.17 533.221   1
   0  12  33 3399.07 879.373   1
  12 -12  33 2922.42 530.482   1
  12 -12  30 445.901 493.191   1
   0  12  30 560.003 769.085   1
  12 -12  27 1452.27 468.082   1
   0  12  27 1740.39 824.005   1
  12   0 -27 1537.50 422.411   1
  12   0 -24-68.4441 415.042   1
  12 -12  24-20.7771 410.498   1
   0  12  24 389.046 738.592   1
  12 -12  21 8782.22 620.999   1
   0  12  21 7422.76 866.797   1
  12 -12  18 3076.30 494.266   1
   0  12  18 3274.22 739.726   1
  12 -12  15 486.055 396.023   1
   0  12  15 194.787 651.991   1
   0  12  12 4586.77 662.520   1
   0 -12 -12 4350.12 468.606   1
  12 -12  12 3434.28 457.057   1
   0 -12  -9 12096.5 643.140   1
  12   0  -9 12435.2 605.381   1
   0  12   9 11183.6 761.302   1
   0  12   6 9464.06 690.570   1
  12   0  -6 9332.97 544.178   1
  12   0  -3 14104.0 676.919   1
   0 -12   0 23425.5 876.728   1
  12   0   0 22291.7 914.670   1
   0 -12   3 10803.9 516.870   1
  12   0   3 10725.6 635.503   1
  12   0   6 13154.2 695.723   1
   0 -12   6 12614.1 532.105   1
   0 -12   9 8753.06 391.218   1
 -12   0  -9 10151.2 578.354   1
  12   0   9 10016.8 650.496   1
  12   0  12 4702.24 537.973   1
 -12   0 -12 4191.56 441.334   1
  12   0  15 667.172 469.089   1
  12   0  18 242.425 491.565   1
  12   0  21 180.209 524.194   1
  12   0  24 767.004 574.117   1
  12   0  27-275.443 627.209   1
  12   0  30-318.007 652.061   1
  12   0  33 1271.26 669.036   1
  12   0  36 2943.55 742.501   1
  12   1  35 1349.76 687.957   1
  12   1  32 438.195 656.312   1
  12   1  29 184.036 650.896   1
  12   1  26 4201.46 711.971   1
  12   1  23 6062.60 732.727   1
  12   1  20 4060.53 612.610   1
  12   1  17 375.856 522.677   1
   1 -13  14 1249.05 123.192   1
   1 -13  14 1150.49 110.336   1
  12   1  11 12807.1 728.292   1
 -12  -1 -11 12292.1 668.607   1
   1 -13  11 10409.0 444.555   1
   1 -13   8 10605.4 488.951   1
 -12  -1  -8 11983.9 623.102   1
  12   1   8 10760.4 676.898   1
   1 -13   5 1954.45 305.737   1
  12   1   5 2042.63 444.433   1
  12   1   2 3295.04 454.836   1
   1 -13   2 3898.84 373.548   1
  12   1  -1 50.4717 342.560   1
  12   1  -4 234.365 316.525   1
  12   1  -7 3046.09 376.262   1
   1 -13  -7 2805.70 417.741   1
   1 -13 -10 3950.66 488.154   1
  12   1 -10 2863.90 356.796   1
   1 -13 -13 2171.53 443.830   1
  12   1 -13 2214.40 336.051   1
  -1  13  13 2243.75 691.771   1
  13 -12  13 1863.74 481.378   1
  13 -12  16 2382.66 495.460   1
  -1  13  16 1555.38 733.692   1
  13 -12  19 37.4181 424.217   1
  -1  13  19 552.375 723.236   1
  13 -12  22 1029.46 473.008   1
  -1  13  22 765.296 749.346   1
  -1  13  25 3224.53 813.461   1
  13 -12  25 3569.74 568.808   1
  12   1 -25 3634.98 443.195   1
  13 -12  28 1097.39 466.335   1
  -1  13  28 331.214 803.371   1
  13 -12  31 2125.95 544.030   1
  -1  13  31 934.485 802.327   1
  -1  13  34 2912.07 893.024   1
  13 -12  34 3857.16 602.298   1
  11   2  36 1232.12 693.725   1
  11   2  33 2461.49 715.953   1
  11   2  30 1899.33 711.698   1
  11   2  27-92.4377 685.156   1
  11   2  24-191.807 669.726   1
  11   2  21 321.094 622.594   1
   2 -13  18 2355.57 130.154   1
   2 -13  18 3808.50 157.420   1
  11   2  15 6386.71 619.166   1
   2 -13  15 5333.29 281.015   1
   2 -13  15 4976.27 241.648   1
 -11  -2 -12 755.794 365.089   1
   2 -13  12 435.639 252.904   1
  11   2  12 511.544 470.736   1
 -11  -2  -9 82.4775 337.199   1
  11   2   9-466.682 426.807   1
   2 -13   9 329.709 296.284   1
 -11  -2  -6 2207.46 353.963   1
  11   2   6 2578.47 450.881   1
   2 -13   6 2162.01 361.220   1
   2 -13   3 2010.35 364.791   1
  11   2   3 1802.57 391.647   1
  11   2   0 4281.30 406.502   1
   2 -13   0 4286.47 418.104   1
  11   2  -3 6200.74 449.334   1
  11   2  -6 9177.47 505.347   1
   2 -13  -6 8907.47 552.791   1
   2 -13  -9 240.819 362.546   1
  11   2  -9 67.1053 283.795   1
   2 -13 -12 2228.75 443.521   1
  11   2 -12 2362.96 312.232   1
  13 -11  12 2377.12 480.869   1
  13 -11  15 6378.83 597.474   1
  11   2 -15 6588.27 405.009   1
  13 -11  18 6909.52 599.958   1
  13 -11  21 2483.40 503.440   1
  13 -11  24 193.041 443.672   1
  11   2 -24 246.050 298.075   1
  11   2 -27 359.503 329.625   1
  13 -11  27 292.571 507.832   1
  13 -11  30-15.1828 513.488   1
  13 -11  33 381.828 499.358   1
  13 -11  36 66.4363 526.255   1
  10   3  34 1453.02 725.435   1
  10   3  31 6148.51 829.245   1
  10   3  28 2905.20 708.604   1
   3 -13  28 2213.10 182.380   1
  10   3  25 6560.85 802.219   1
   3 -13  25 5358.43 248.599   1
   3 -13  22 2256.26 187.925   1
  10   3  22 2127.28 646.461   1
   3 -13  19 126.776 145.863   1
  10   3  19-432.026 568.494   1
  10   3  16 1759.06 515.361   1
   3 -13  16 1578.90 199.241   1
   3 -13  13 4117.11 350.631   1
  10   3  13 3829.48 517.427   1
 -10  -3 -13 3441.97 428.339   1
  10   3  10 13824.4 739.854   1
   3 -13  10 14174.1 604.721   1
 -10  -3 -10 13752.0 685.775   1
 -10  -3  -7 7756.37 490.961   1
  10   3   7 7371.72 542.884   1
   3 -13   7 7665.94 466.022   1
 -10  -3  -4 941.012 243.147   1
  10   3   4 1499.41 393.050   1
   3 -13   4 1805.39 371.055   1
  10   3   1 929.199 332.511   1
   3 -13   1 972.190 385.566   1
  10   3  -2 7869.28 484.394   1
  10   3  -5 27983.8 994.992   1
  10   3  -8 3502.13 347.697   1
   3 -13  -8 3708.93 479.673   1
  10   3 -11 8026.93 430.783   1
  13 -10  11 7855.86 590.033   1
   3 -13 -11 8303.13 593.416   1
  10   3 -14 1533.04 264.759   1
   3 -13 -14 2006.26 464.098   1
  13 -10  14 1599.78 460.803   1
  10   3 -17 647.647 227.463   1
  13 -10  17 440.476 432.762   1
  13 -10  20 201.927 448.814   1
  10   3 -20 351.393 215.986   1
  10   3 -23 682.504 287.853   1
  13 -10  23 123.459 441.231   1
  10   3 -26 2571.66 292.575   1
  13 -10  26 2258.55 532.252   1
  13 -10  29 4654.16 604.084   1
  13 -10  32 291.242 491.741   1
  13 -10  35 67.8337 550.131   1
   9   4  35 679.291 677.868   1
   9   4  32 355.016 712.638   1
   4 -13  29 1249.95 267.946   1
   9   4  29 2272.87 690.833   1
   9   4  26 3041.89 737.653   1
   4 -13  26 2198.02 274.702   1
   9   4  23 19823.2 1100.92   1
   4 -13  23 19882.3 703.288   1
   9   4  20 3616.46 671.458   1
   4 -13  20 3202.29 276.874   1
   9   4  17-274.172 531.256   1
   4 -13  17 471.467 216.328   1
  -9  -4 -14-195.412 335.786   1
   9   4  14-27.9046 482.194   1
  -9  -4 -11 5061.53 438.501   1
   9   4  11 4827.83 543.766   1
  -9  -4  -8 8568.27 507.488   1
   9   4   8 7328.93 563.895   1
   9   4   5 29888.1 1110.57   1
   4 -13   5 29377.3 1075.15   1
   9   4   2 14439.9 685.225   1
   4 -13   2 16137.7 719.749   1
   9   4  -1 4221.45 386.434   1
   9   4  -4 439.172 274.571   1
   4 -13  -7 5031.62 513.156   1
   9   4  -7 4311.19 332.697   1
   9   4 -10 6878.12 378.266   1
  13  -9  10 6829.29 586.779   1
   4 -13 -10 7444.87 613.554   1
  13  -9  13 8321.78 622.196   1
   9   4 -13 9149.46 410.625   1
   4 -13 -13 8088.34 636.723   1
   9   4 -16 3097.01 254.444   1
  13  -9  16 3601.94 494.238   1
  13  -9  19 382.613 455.368   1
   9   4 -19 594.736 177.334   1
   9   4 -19 187.170 235.341   1
  13  -9  22 329.450 456.919   1
   9   4 -22 488.119 158.672   1
   9   4 -22 736.526 222.164   1
   9   4 -25 1146.23 199.228   1
  13  -9  25 1512.87 476.923   1
  13  -9  28 9499.57 725.414   1
  13  -9  31 2349.15 568.841   1
  13  -9  34 251.108 517.581   1
  13  -9  37 20.5909 608.569   1
   8   5  36 2446.07 766.539   1
   5 -13  33 1150.32 341.850   1
   8   5  33 1255.44 714.540   1
   8   5  30 190.745 675.776   1
   5 -13  30-334.366 329.333   1
   8   5  27 474.709 687.331   1
   5 -13  27 85.6872 292.783   1
   8   5  24 7501.35 805.602   1
   5 -13  24 8809.13 457.681   1
   8   5  21 1974.39 632.231   1
   5 -13  21 2507.81 307.020   1
   8   5  18 6889.29 741.306   1
   5 -13  18 8464.05 427.134   1
  -8  -5 -15 13861.6 707.357   1
   8   5  15 12772.4 802.873   1
   5 -13  15 13673.4 569.272   1
  -8  -5 -12 1249.28 335.951   1
   8   5  12 704.977 476.714   1
  -8  -5  -9 119.703 292.459   1
   8   5   9-239.602 452.008   1
   8   5   6 2541.47 406.854   1
   8   5   3 231.841 344.948   1
  -8  -5   0 10653.9 513.073   1
   8   5   0 9803.60 522.772   1
   8   5  -3 11598.2 536.693   1
   8   5  -6 4430.58 335.513   1
   5 -13  -6 4682.09 516.386   1
   8   5  -9 112.282 205.383   1
  13  -8   9 193.750 394.951   1
   5 -13  -9 437.272 470.810   1
  13  -8  12 4305.65 517.302   1
   8   5 -12 4036.52 271.916   1
   5 -13 -12 4954.54 563.050   1
  13  -8  15 12350.9 722.495   1
   5 -13 -15 11967.0 767.368   1
   8   5 -15 11583.4 434.011   1
  13  -8  18 5796.28 546.807   1
   8   5 -18 4860.44 236.396   1
   8   5 -21 4542.83 195.830   1
   8   5 -21 5404.96 214.301   1
  13  -8  24 3334.94 538.362   1
  13  -8  27 1711.49 511.026   1
  13  -8  30 151.168 528.909   1
  13  -8  33 299.878 507.174   1
  13  -8  36-72.0246 598.713   1
   7   6  37 326.508 825.757   1
   7   6  34 2753.73 748.112   1
   6 -13  34 1195.44 389.448   1
   7   6  31 4063.74 751.090   1
   6 -13  31 3493.97 426.121   1
   7   6  28 4238.96 730.171   1
   6 -13  28 3223.66 379.963   1
   6 -13  25 609.237 299.490   1
   7   6  25 1291.30 646.346   1
   7   6  22 2080.37 650.066   1
   6 -13  22 1658.14 334.568   1
   7   6  19-314.853 575.952   1
   6 -13  19 122.876 262.439   1
   6 -13  16 3300.79 344.962   1
   7   6  16 2757.95 580.795   1
  -7  -6 -16 3898.80 443.321   1
  -7  -6 -13 4544.28 434.409   1
   7   6  13 3606.64 550.757   1
  -7  -6 -10 5626.84 439.618   1
   7   6  10 5681.30 561.046   1
   7   6   7 8393.21 602.655   1
   7   6   4 1317.89 405.575   1
   7   6   1 8589.26 537.951   1
  -7  -6  -1 9956.16 488.264   1
  -7  -6   2 2666.12 288.113   1
   7   6  -2 2629.15 343.678   1
   7   6  -5 22553.3 791.917   1
   6 -13  -5 21657.2 952.202   1
  13  -7   5 20256.9 938.408   1
   7   6  -8 12576.0 505.948   1
  13  -7   8 12595.8 706.794   1
   6 -13  -8 12845.5 739.250   1
   7   6 -11 4124.65 245.613   1
  13  -7  11 3553.34 509.740   1
   6 -13 -11 4229.02 560.183   1
   7   6 -14 279.323 111.204   1
  13  -7  14 375.568 427.438   1
   6 -13 -14 965.583 494.497   1
  13  -7  17 238.991 473.080   1
  13  -7  20 634.486 504.489   1
  13  -7  23 7931.29 665.289   1
  13  -7  26 2489.58 547.141   1
  13  -7  29 245.221 560.582   1
  13  -7  32 113.301 519.424   1
  13  -7  35 1.32878 596.268   1
   6   7  35 1041.85 809.787   1
   7 -13  35 688.537 416.364   1
   6   7  32-271.603 761.616   1
   7 -13  32 38.5251 380.909   1
   6   7  29 2211.67 705.547   1
   7 -13  29 379.194 338.865   1
   7 -13  26 1688.97 376.747   1
   6   7  26 3172.81 699.663   1
   6   7  23 10150.8 866.126   1
   7 -13  23 11745.9 595.750   1
   7 -13  20 18751.8 760.000   1
   6   7  20 17280.1 1023.17   1
   6   7  17 2937.60 605.499   1
   7 -13  17 2792.96 361.301   1
   6   7  14 7.52801 522.157   1
  -6  -7 -14 106.117 342.825   1
   6   7  11 328.860 448.199   1
  -6  -7 -11 373.608 311.488   1
   6   7   8 20317.1 918.897   1
  -6  -7  -8 20191.6 822.716   1
   6   7   5 14634.5 735.574   1
   6   7   2 35844.7 1259.95   1
  -6  -7  -2 35628.4 1207.63   1
   6   7  -1 5352.73 424.826   1
  -6  -7   1 5665.79 356.021   1
  -6  -7   4 10764.0 460.702   1
   6   7  -4 10718.3 505.022   1
  13  -6   4 10115.7 633.834   1
   6   7  -7 12891.4 518.425   1
  13  -6   7 11665.5 707.056   1
   7 -13  -7 12512.8 730.492   1
  13  -6  10 2855.01 453.033   1
   7 -13 -10 3007.88 518.398   1
   6   7 -10 2943.35 219.026   1
  13  -6  13 6474.76 584.164   1
   7 -13 -13 7086.35 632.626   1
  13  -6  16 12464.4 757.214   1
  13  -6  19 1749.04 504.891   1
  13  -6  22 88.1966 504.996   1
  13  -6  25 1664.82 525.525   1
  13  -6  28 2495.15 589.640   1
  13  -6  31 2672.06 587.042   1
  13  -6  34 281.424 595.585   1
  13  -6  37 891.470 648.524   1
   8 -13  36 1865.56 480.839   1
   5   8  36 3952.77 879.590   1
   8 -13  33-218.380 434.840   1
   5   8  33 677.359 833.323   1
   5   8  30 850.777 783.738   1
   8 -13  30 259.005 375.261   1
   5   8  27 340.254 769.404   1
   8 -13  27 1171.17 381.341   1
   5   8  24 4279.69 749.695   1
   8 -13  24 3199.26 423.440   1
  13  -5 -24 3101.35 563.567   1
   8 -13  21 7757.02 515.898   1
   5   8  21 7884.27 766.077   1
   5   8  18 16221.6 934.911   1
   8 -13  18 14527.5 695.480   1
   5   8  15 10538.6 780.103   1
  -5  -8 -15 9719.06 595.190   1
   8 -13  15 10295.0 558.367   1
  -5  -8 -12 8343.75 548.364   1
   5   8  12 8909.61 690.204   1
   5   8   9 62.2614 466.733   1
  -5  -8  -9 459.550 307.776   1
   5   8   6 829.171 404.427   1
  -5  -8  -3 4905.28 368.343   1
   5   8   3 4278.49 461.389   1
  -5  -8   0 34513.2 1139.13   1
   5   8   0 33252.8 1177.13   1
  13  -5   3 3.42042 406.379   1
   5   8  -3 241.172 294.696   1
  -5  -8   3 89.8587 205.997   1
  -5  -8   6 4519.59 281.185   1
  13  -5   6 4673.06 497.761   1
   5   8  -6 5007.79 341.443   1
   8 -13  -9-406.563 494.263   1
   5   8  -9 83.3471 200.333   1
  13  -5   9 135.770 405.205   1
  13  -5  12 1677.82 454.783   1
   8 -13 -12 2435.99 525.656   1
  13  -5  15 9786.95 678.016   1
  13  -5  18 2511.15 512.479   1
  13  -5  21 1522.10 553.533   1
  13  -5  24 577.957 509.926   1
  13  -5  27 289.099 488.474   1
  13  -5  30 598.599 515.262   1
  13  -5  33 1220.37 612.984   1
  13  -5  36 958.285 655.318   1
   9 -13  37 571.566 494.191   1
   4   9  37 1956.57 873.409   1
   9 -13  34 949.463 454.508   1
   4   9  34 1209.34 823.546   1
   4   9  31 1196.57 816.868   1
   9 -13  31 489.054 418.499   1
   9 -13  28 3009.12 458.592   1
  13  -4 -28 2865.10 594.119   1
   4   9  28 3014.48 839.384   1
   4   9  25 2203.43 805.518   1
   9 -13  25 1698.83 421.281   1
  13  -4 -25 1063.72 505.523   1
   9 -13  22 837.086 383.249   1
   4   9  22 860.645 745.207   1
   4   9  19 180.899 693.687   1
   9 -13  19-84.8457 354.272   1
   4   9  16 4167.79 693.231   1
   9 -13  16 3827.31 432.324   1
  -4  -9 -13 10830.5 613.878   1
   4   9  13 11366.4 795.113   1
  -4  -9 -10 1497.53 326.353   1
   4   9  10 2938.78 502.884   1
   4   9   7 9884.44 636.209   1
   4   9   4 1462.56 434.429   1
  13  -4  -1 11756.6 651.163   1
  -4  -9  -1 12616.6 552.475   1
   4   9   1 11798.8 652.486   1
  13  -4   2 1700.55 440.934   1
  -4  -9   2 2302.02 266.249   1
   4   9  -2 1696.94 388.919   1
   4   9  -5 3551.25 357.471   1
  -4  -9   5 3544.54 257.814   1
  13  -4   5 3797.05 475.613   1
  -4  -9   8 24473.8 771.213   1
   4   9  -8 23521.1 797.499   1
  13  -4   8 25388.2 1021.13   1
  13  -4  11 981.690 446.258   1
   9 -13 -11 485.059 494.271   1
  13  -4  14 368.663 475.307   1
  13  -4  17-66.9683 455.336   1
  13  -4  20 7768.01 689.702   1
  13  -4  23 706.020 537.313   1
  13  -4  26 640.776 559.095   1
  13  -4  29-230.117 545.484   1
  13  -4  32-892.406 615.984   1
  13  -4  35-63.1494 667.155   1
   3  10  35 392.280 824.580   1
  10 -13  35 710.192 479.066   1
  10 -13  32 1253.74 448.062   1
   3  10  32 580.358 786.769   1
  10 -13  29-368.575 408.964   1
  13  -3 -29 501.740 497.687   1
   3  10  29 119.911 807.991   1
  10 -13  26 394.151 396.881   1
  13  -3 -26 81.4954 468.547   1
   3  10  26 780.580 794.169   1
  10 -13  23 1704.33 417.547   1
   3  10  23 1736.03 779.727   1
  10 -13  20 222.515 380.775   1
   3  10  20 1060.22 763.629   1
  10 -13  17 3175.59 450.004   1
   3  10  17 3663.93 706.284   1
  10 -13  14 3148.96 446.353   1
  -3 -10 -14 3378.66 430.167   1
   3  10  14 3924.50 701.548   1
  -3 -10 -11 4525.92 443.470   1
   3  10  11 4783.57 681.781   1
  -3 -10  -8 26736.9 1000.22   1
   3  10   8 24766.0 1095.93   1
   3  10   5 8889.53 651.327   1
  -3 -10  -2 5038.00 376.315   1
   3  10   2 5343.50 521.604   1
  13  -3  -2 4722.36 481.245   1
  13  -3   1 15924.1 769.940   1
  -3 -10   1 16098.7 643.682   1
   3  10  -1 16941.7 733.360   1
  13  -3   4 1562.95 409.723   1
  -3 -10   4 1786.11 241.409   1
   3  10  -4 1781.55 346.211   1
  13  -3   7 277.692 424.964   1
  -3 -10   7 5.56346 163.571   1
  13  -3  10 29.6466 435.224   1
  13  -3  13 11908.0 728.650   1
  13  -3  16 2509.72 504.648   1
  13  -3  19 682.139 509.868   1
  13  -3  22 2037.88 560.242   1
  13  -3  25 4.33593 519.653   1
  13  -3  28 614.145 553.276   1
  13  -3  31 683.862 666.654   1
  13  -3  34-780.915 628.401   1
  11 -13  36 909.989 490.872   1
   2  11  36 1393.29 862.562   1
   2  11  33 2616.26 878.255   1
  11 -13  33 4130.15 523.161   1
  11 -13  30 587.621 431.976   1
   2  11  30 1904.07 825.931   1
  11 -13  27 288.147 423.590   1
  13  -2 -27-597.998 454.480   1
   2  11  27-354.653 768.601   1
  13  -2 -24-305.649 455.065   1
  11 -13  24 56.3990 420.499   1
   2  11  24 679.803 788.254   1
  11 -13  21 448.430 399.781   1
   2  11  21-102.823 752.110   1
  11 -13  18 263.189 400.445   1
   2  11  18 528.822 693.004   1
  11 -13  15 3902.93 461.658   1
   2  11  15 4042.25 680.986   1
  -2 -11 -12 2565.41 421.961   1
   2  11  12 3038.08 668.947   1
   2  11   9 1408.60 581.756   1
  -2 -11  -9 1206.56 350.432   1
  13  -2  -6 5644.58 472.620   1
   2  11   6 5400.40 613.313   1
  13  -2  -3 4539.10 473.410   1
   2  11   3 4556.63 533.619   1
  13  -2   0 32088.4 1185.95   1
   2  11   0 30228.5 1143.25   1
  -2 -11   0 30998.8 1067.62   1
  -2 -11   3 488.643 232.255   1
  13  -2   3 293.124 385.656   1
  -2 -11   6 1473.33 219.423   1
  13  -2   6 1729.08 434.917   1
  -2 -11   9 395.550 133.804   1
  13  -2   9 304.721 431.045   1
  13  -2  12 3330.63 536.188   1
  13  -2  15 2462.83 545.544   1
  13  -2  18 2040.73 554.016   1
  13  -2  21 1177.99 551.557   1
  13  -2  24-21.5721 539.516   1
  13  -2  27 163.460 555.260   1
  13  -2  30-581.038 609.605   1
  13  -2  33-431.187 644.482   1
  13  -2  36 741.040 702.835   1
   1  12  34 3695.89 885.514   1
  12 -13  34 3290.08 554.549   1
  12 -13  31 3162.22 550.035   1
   1  12  31 2969.11 857.000   1
  13  -1 -28 2743.54 474.522   1
  12 -13  28 3077.09 507.999   1
   1  12  28 3503.28 832.929   1
  13  -1 -25 950.100 445.512   1
  12 -13  25 703.628 465.207   1
   1  12  25 921.459 756.360   1
  12 -13  22 384.293 439.447   1
   1  12  22 1343.89 782.141   1
   1  12  19 1028.26 764.981   1
  12 -13  19 350.678 395.754   1
   1  12  16 2006.09 731.816   1
  12 -13  16 1679.62 447.682   1
  -1 -12 -13 1772.48 412.728   1
  12 -13  13 1525.15 426.745   1
   1  12  13 1310.26 635.157   1
  -1 -12 -10-425.751 361.065   1
   1  12  10-158.240 580.584   1
  -1 -12  -7 656.151 353.371   1
  13  -1  -7 583.866 338.644   1
   1  12   7 413.078 550.049   1
  13  -1  -4 3559.82 428.169   1
   1  12   4 3341.22 542.864   1
  -1 -12  -1 5473.34 420.464   1
  13  -1  -1 5596.97 496.817   1
  -1 -12   2 5164.26 369.399   1
  13  -1   2 4743.22 493.497   1
  -1 -12   5 22228.8 786.313   1
  13  -1   5 21477.4 946.009   1
  13  -1   8 34454.5 1268.89   1
  -1 -12   8 31500.1 1019.26   1
  13  -1  11 4317.66 524.202   1
  -1 -12  11 2695.54 154.089   1
  13  -1  14 158.331 465.750   1
  13  -1  17 546.484 488.755   1
  13  -1  20 4229.26 625.177   1
  13  -1  23 1801.01 575.193   1
  13  -1  26 2689.56 615.542   1
  13  -1  29 379.731 670.068   1
  13  -1  32-152.291 638.500   1
  13  -1  35 329.953 650.750   1
   0  13  35-441.293 822.438   1
  13 -13  35 268.014 497.157   1
   0  13  32 679.262 828.215   1
  13 -13  32-552.523 475.885   1
  13 -13  29 360.516 440.925   1
   0  13  29 134.122 826.350   1
  13 -13  26 309.279 456.098   1
   0  13  26 54.4486 787.423   1
  13   0 -26 1163.15 418.685   1
  13 -13  23 1822.64 479.948   1
   0  13  23 1661.93 814.482   1
   0  13  20 4294.17 828.886   1
  13 -13  20 4770.32 551.925   1
  13 -13  17-9.30577 416.575   1
   0  13  17 651.017 739.978   1
   0  13  14 453.973 687.870   1
  13 -13  14 928.004 464.439   1
   0  13  11 799.699 658.976   1
   0 -13 -11 812.317 400.989   1
  13   0 -11 958.098 339.210   1
   0 -13  -8 6777.44 540.355   1
  13   0  -8 6578.37 482.657   1
   0  13   8 5689.29 697.465   1
   0 -13  -5 17805.3 787.544   1
  13   0  -5 17490.6 791.833   1
  13   0  -2 7100.44 520.911   1
   0 -13   1 4431.27 398.165   1
  13   0   1 4876.83 476.885   1
   0 -13   4 3849.45 353.996   1
  13   0   4 3551.58 490.658   1
   0 -13   7 2095.65 282.208   1
  13   0   7 2425.65 483.821   1
   0 -13  10 2464.56 229.350   1
  13   0  10 3153.69 526.312   1
   0 -13  13 3401.84 147.411   1
  13   0  13 9832.40 657.306   1
  13   0  16 3737.88 596.992   1
  13   0  19 996.070 534.156   1
  13   0  22 1936.15 568.334   1
  13   0  25 3957.79 667.061   1
  13   0  28 1769.72 671.840   1
  13   0  31 3012.60 728.392   1
  13   0  34 429.689 677.586   1
  13   1  33 2338.39 732.157   1
  13   1  30 2785.12 677.786   1
  13   1  27 479.368 661.361   1
  13   1  24 4595.63 707.014   1
  13   1  21 10527.7 818.755   1
  13   1  18 13228.6 853.593   1
  13   1  15 11393.0 763.273   1
  13   1  12 1057.92 477.552   1
   1 -14  12 778.495 191.881   1
  13   1   9 849.098 473.065   1
   1 -14   9 961.778 261.818   1
   1 -14   6 220.736 276.731   1
  13   1   6 4.65841 431.892   1
  13   1   3 16644.6 816.659   1
   1 -14   3 17009.7 710.849   1
  13   1   0 9786.98 593.174   1
  13   1  -3 3278.88 427.556   1
   1 -14  -3 3022.04 410.298   1
   1 -14  -6 6144.18 540.764   1
  13   1  -6 7379.16 498.414   1
  13   1  -9-16.5465 326.857   1
   1 -14  -9 269.561 407.776   1
  13   1 -12 5244.73 424.985   1
  14 -13  12 4807.85 544.795   1
  14 -13  15 785.147 454.002   1
  13   1 -15 1236.95 327.541   1
  14 -13  18 6715.15 632.555   1
  -1  14  18 5848.86 878.559   1
  13   1 -18 7255.77 456.194   1
  14 -13  21 2730.96 525.542   1
  -1  14  21 3148.87 816.818   1
  -1  14  24-107.023 766.819   1
  13   1 -24 43.7730 375.810   1
  14 -13  24 185.810 431.554   1
  14 -13  27-68.3486 502.327   1
  -1  14  27-587.432 810.501   1
  14 -13  30 2792.60 527.549   1
  -1  14  30 2065.57 833.910   1
  14 -13  33 2055.91 532.182   1
  12   2  34-109.775 682.791   1
  12   2  31-47.3666 677.371   1
  12   2  28-110.688 663.076   1
  12   2  25-619.008 624.277   1
  12   2  22-130.357 583.043   1
  12   2  19 2071.17 567.640   1
   2 -14  16 4850.48 230.715   1
   2 -14  16 6282.49 254.127   1
   2 -14  13 4359.21 287.133   1
  12   2  13 4017.69 550.651   1
 -12  -2 -10 9603.62 603.259   1
  12   2  10 10630.6 687.890   1
   2 -14  10 10643.1 487.305   1
   2 -14   7 21035.8 822.546   1
 -12  -2  -7 21888.9 932.385   1
   2 -14   4 3189.61 358.560   1
  12   2   4 2619.35 464.955   1
  12   2   1 525.029 341.569   1
  12   2  -2 5929.95 486.613   1
  12   2  -5 19741.2 817.771   1
   2 -14  -5 19459.0 869.273   1
  12   2  -8 8989.71 516.444   1
   2 -14  -8 9180.04 614.893   1
   2 -14 -11 1246.85 409.488   1
  12   2 -11 850.383 308.952   1
  14 -12  11 310.362 451.644   1
  14 -12  14 474.199 471.058   1
  12   2 -14 719.362 284.322   1
  12   2 -17 1357.26 294.702   1
  14 -12  17 1834.16 507.423   1
  14 -12  20 4300.95 538.021   1
  12   2 -20 4135.67 346.448   1
  12   2 -23 4074.17 414.177   1
  14 -12  23 5151.07 614.976   1
  14 -12  26 5187.75 578.887   1
  14 -12  29-493.826 454.672   1
  14 -12  32 1006.37 517.974   1
  11   3  35-359.590 711.814   1
  11   3  32 309.725 657.727   1
  11   3  29-126.568 674.650   1
  11   3  26 470.875 647.442   1
  11   3  23 168.192 594.777   1
  11   3  20 1478.83 604.800   1
   3 -14  20 1438.26 188.316   1
   3 -14  20 1277.96 139.898   1
   3 -14  17 1093.11 177.788   1
  11   3  17 1036.69 581.403   1
   3 -14  17 1816.65 247.614   1
  11   3  14 1632.23 522.943   1
   3 -14  14 1606.44 298.195   1
 -11  -3 -11 2781.94 413.227   1
   3 -14  11 2077.67 345.818   1
  11   3  11 2537.92 495.845   1
   3 -14   8 19821.6 800.979   1
 -11  -3  -8 22379.2 897.579   1
  11   3   8 19999.4 920.293   1
   3 -14   5 6960.30 484.709   1
 -11  -3  -5 6545.49 467.508   1
  11   3   5 6457.61 556.221   1
   3 -14   2 5174.39 486.227   1
  11   3   2 5896.86 499.485   1
  11   3  -1 506.392 324.596   1
   3 -14  -4 4530.36 493.044   1
  11   3  -4 4572.27 408.060   1
   3 -14  -7 4695.69 497.328   1
  11   3  -7 4122.42 387.780   1
   3 -14 -10 3341.37 474.955   1
  11   3 -10 3167.64 339.183   1
  14 -11  10 3283.78 501.469   1
  14 -11  13 9851.64 688.113   1
  11   3 -13 10181.9 494.710   1
  11   3 -16 431.521 253.498   1
  14 -11  16 372.033 461.912   1
  14 -11  19 820.246 442.530   1
  11   3 -19 669.529 237.924   1
  11   3 -22-148.262 207.718   1
  11   3 -22-384.127 310.452   1
  14 -11  22-460.547 474.683   1
  14 -11  25 3324.87 573.832   1
  11   3 -25 3057.30 347.719   1
  14 -11  28 207.880 517.084   1
  14 -11  31 506.719 516.340   1
  14 -11  34 1195.14 568.045   1
  10   4  33 3961.00 765.129   1
  10   4  30 8896.28 877.782   1
  10   4  27 2280.58 719.189   1
   4 -14  27 2896.71 242.676   1
  10   4  24-136.906 603.265   1
   4 -14  24-200.311 180.230   1
   4 -14  21 1669.72 231.637   1
  10   4  21 1007.75 625.616   1
   4 -14  18 4467.28 290.116   1
  10   4  18 3967.88 661.591   1
  10   4  15 4183.23 602.921   1
   4 -14  15 5189.04 323.372   1
  10   4  12 181.634 489.396   1
 -10  -4 -12 639.276 347.151   1
   4 -14   9-289.141 351.524   1
 -10  -4  -9-387.785 350.780   1
  10   4   9-138.164 420.978   1
 -10  -4  -6 11313.3 596.657   1
  10   4   6 11166.7 651.500   1
   4 -14   6 11303.5 611.129   1
  10   4   3 26014.5 1023.42   1
 -10  -4  -3 25851.3 988.484   1
   4 -14   3 27033.5 1020.57   1
  10   4   0 11113.1 588.944   1
  10   4  -3 2335.02 348.437   1
   4 -14  -3 1908.53 446.569   1
  10   4  -6 5073.12 386.683   1
   4 -14  -6 4109.21 551.544   1
   4 -14  -9 62.9335 484.415   1
  14 -10   9 768.655 465.978   1
  10   4  -9 592.713 263.463   1
   4 -14 -12 768.613 437.772   1
  10   4 -12-82.5811 240.473   1
  14 -10  12-157.075 434.132   1
  10   4 -15 139.805 213.316   1
  14 -10  15-83.0797 463.085   1
  10   4 -18 1757.93 232.166   1
  14 -10  18 2481.15 496.553   1
  10   4 -21 133.322 242.330   1
  14 -10  21 335.725 476.394   1
  10   4 -21 413.056 177.328   1
  10   4 -24 866.088 212.173   1
  10   4 -24 370.039 159.169   1
  14 -10  24 55.1705 516.796   1
  10   4 -27 37.0675 135.418   1
  14 -10  27 7.55225 543.596   1
  14 -10  30 2060.84 554.590   1
  14 -10  33 5471.62 668.047   1
   9   5  34 1086.09 734.724   1
   9   5  31 4070.77 786.505   1
   5 -14  28 5122.01 366.226   1
   9   5  28 5182.86 793.734   1
   9   5  25 1390.96 662.239   1
   5 -14  25 753.221 251.293   1
   5 -14  22 600.334 263.418   1
   9   5  22 850.247 650.741   1
   9   5  19 8948.90 769.039   1
   5 -14  19 7469.01 408.421   1
   9   5  16 13410.4 836.489   1
   5 -14  16 12754.2 546.804   1
  -9  -5 -13 3957.74 433.899   1
   9   5  13 3787.39 594.486   1
   9   5  10 10069.1 686.544   1
  -9  -5 -10 10061.2 584.238   1
   9   5   7 594.431 419.763   1
  -9  -5  -7 916.435 325.603   1
   5 -14   4 165.469 406.700   1
   9   5   4 218.481 367.333   1
   9   5   1 1893.62 351.332   1
   9   5  -2 2607.92 342.594   1
   9   5  -5 10094.4 510.908   1
   5 -14  -5 10183.7 681.050   1
   9   5  -8 8528.66 435.726   1
   5 -14  -8 8131.51 662.113   1
  14  -9   8 7688.70 613.885   1
  14  -9  11 6052.20 620.529   1
   5 -14 -11 7170.72 633.657   1
   9   5 -11 6594.49 366.418   1
   9   5 -14 6273.20 335.788   1
  14  -9  14 6571.93 597.209   1
  14  -9  17 34.2938 449.310   1
   9   5 -17-205.423 159.443   1
   9   5 -20 2995.24 210.477   1
  14  -9  20 3734.83 568.539   1
   9   5 -23 1615.62 128.504   1
   9   5 -23 1348.42 111.451   1
  14  -9  26 2079.74 563.929   1
  14  -9  29 275.044 498.926   1
  14  -9  32 1107.65 580.810   1
  14  -9  35 184.725 517.465   1
   8   6  35 3448.83 741.838   1
   8   6  32 474.422 690.542   1
   6 -14  32 1000.87 350.345   1
   8   6  29 6385.53 822.599   1
   6 -14  29 6313.91 464.045   1
   6 -14  26 9951.71 511.830   1
   8   6  26 9156.63 893.134   1
   8   6  23 2357.42 695.986   1
   6 -14  23 2610.83 335.349   1
   6 -14  20-145.008 286.185   1
   8   6  20-144.431 638.982   1
   8   6  17 123.230 603.964   1
   6 -14  17 252.045 270.244   1
   8   6  14-205.225 554.454   1
  -8  -6 -14 325.117 341.534   1
  -8  -6 -11 888.631 326.849   1
   8   6  11 527.448 523.617   1
  -8  -6  -8 5307.35 433.659   1
   8   6   8 4924.74 557.602   1
   8   6   5 21.1196 413.934   1
   8   6   2 1216.73 374.816   1
   8   6  -1-3.01325 309.083   1
  -8  -6   1 39.5530 240.851   1
   8   6  -4 502.852 271.865   1
   6 -14  -4 1239.14 450.017   1
   8   6  -7 10358.0 479.853   1
  14  -8   7 10166.1 673.710   1
   6 -14  -7 10823.1 686.822   1
  14  -8  10 28855.1 1215.31   1
   8   6 -10 30674.7 985.315   1
   6 -14 -10 29746.8 1234.25   1
   8   6 -13 21991.3 729.938   1
   6 -14 -13 21243.5 1040.05   1
  14  -8  13 23985.4 1028.04   1
   8   6 -16 12667.2 434.281   1
  14  -8  16 16674.2 815.995   1
  14  -8  19 2162.34 508.246   1
  14  -8  22 117.840 496.543   1
  14  -8  25 5350.67 640.653   1
  14  -8  28 1468.18 542.605   1
  14  -8  31 198.878 552.343   1
  14  -8  34-63.5378 570.354   1
   7   7  36 27.2740 811.240   1
   7   7  33 787.114 768.856   1
   7 -14  33 589.686 384.567   1
   7   7  30 1249.78 696.007   1
   7 -14  30 81.8469 341.234   1
   7   7  27 1848.72 750.607   1
   7 -14  27 196.807 330.047   1
   7   7  24 1871.46 701.860   1
   7 -14  24 1790.78 342.662   1
   7 -14  21 9506.68 507.715   1
   7   7  21 8798.87 837.882   1
   7 -14  18 869.851 332.091   1
   7   7  18 823.600 613.612   1
   7   7  15 5226.29 647.390   1
   7   7  12 7759.43 673.974   1
  -7  -7 -12 7900.54 532.684   1
   7   7   9 392.088 469.134   1
  -7  -7  -9 307.151 317.649   1
   7   7   6 2367.68 455.827   1
  -7  -7  -6 1904.65 315.961   1
   7   7   3 1356.18 407.434   1
   7   7   0-53.7324 336.126   1
  -7  -7   0 171.806 243.026   1
   7   7  -3 1958.78 328.604   1
  -7  -7   3 2288.35 271.617   1
   7   7  -6 3262.58 323.999   1
  14  -7   6 2983.39 488.033   1
   7   7  -9 1109.14 253.041   1
  14  -7   9 1637.72 476.245   1
   7 -14  -9 1337.61 508.813   1
   7   7 -12 1289.52 174.076   1
   7 -14 -12 1716.17 530.085   1
  14  -7  12 1162.14 490.185   1
  14  -7  15 6333.15 621.042   1
  14  -7  18 8623.73 694.928   1
  14  -7  21 6409.53 642.465   1
  14  -7  24 744.822 505.707   1
  14  -7  27 76.1763 517.904   1
  14  -7  30-108.541 544.541   1
  14  -7  33 1869.42 594.749   1
  14  -7  36 829.669 626.278   1
   6   8  34-84.4166 825.052   1
   8 -14  34-108.068 392.014   1
   6   8  31-112.778 770.357   1
   8 -14  31 128.733 369.020   1
   8 -14  28 252.229 328.286   1
   6   8  28 527.799 726.973   1
   6   8  25 1022.25 696.954   1
   8 -14  25-96.7223 331.784   1
   6   8  22 4827.30 715.808   1
   8 -14  22 3232.42 417.116   1
   6   8  19 711.804 645.245   1
   8 -14  19-71.9205 328.597   1
   6   8  16 8819.19 731.974   1
   8 -14  16 7764.51 516.358   1
  -6  -8 -13 13211.1 691.580   1
   6   8  13 12905.9 818.227   1
  -6  -8 -10 11302.2 605.407   1
   6   8  10 9574.07 698.728   1
  -6  -8  -7 12020.7 620.612   1
   6   8   7 13480.5 715.980   1
   6   8   4 8619.35 596.651   1
   6   8   1 111.010 364.209   1
  -6  -8  -1 334.264 245.078   1
  14  -6   2-48.7616 435.425   1
   6   8  -2-22.6259 321.025   1
  -6  -8   2 8.80649 216.544   1
  -6  -8   5 3822.28 293.693   1
  14  -6   5 3526.59 532.538   1
   6   8  -5 4214.19 357.986   1
  14  -6   8 4033.90 534.115   1
   8 -14  -8 4361.85 610.718   1
   6   8  -8 4926.40 323.951   1
   8 -14 -11 31.3625 522.692   1
  14  -6  11-145.057 458.808   1
   6   8 -11 184.393 155.406   1
  14  -6  14 267.064 478.273   1
  14  -6  17-32.3160 490.800   1
  14  -6  20 4409.05 588.820   1
  14  -6  23 684.944 500.293   1
  14  -6  26 1142.22 565.146   1
  14  -6  29 7740.49 726.472   1
  14  -6  32 325.161 566.791   1
  14  -6  35-444.998 646.268   1
   9 -14  35 393.068 440.885   1
   5   9  35 293.932 819.508   1
   9 -14  32-372.442 382.493   1
   5   9  32 487.619 819.661   1
   5   9  29 2074.84 806.287   1
   9 -14  29 1996.82 435.437   1
   5   9  26 880.503 789.637   1
   9 -14  26 451.899 379.876   1
   5   9  23 415.074 735.176   1
   9 -14  23 1403.08 406.356   1
   5   9  20 765.710 697.377   1
   9 -14  20 299.143 350.591   1
   5   9  17 718.533 602.869   1
   9 -14  17 255.333 351.215   1
   5   9  14 670.860 560.608   1
  -5  -9 -14 192.856 328.416   1
   5   9  11 1454.71 518.068   1
  -5  -9 -11 993.546 361.976   1
  -5  -9  -8 9913.63 569.669   1
   5   9   8 10299.0 682.536   1
   5   9   5 7343.13 569.230   1
   5   9   2 1614.09 409.593   1
  -5  -9  -2 792.479 284.567   1
   5   9  -1 2128.38 383.820   1
  14  -5   1 2177.24 447.021   1
  -5  -9   1 1951.58 290.152   1
   5   9  -4 6056.83 447.599   1
  14  -5   4 6419.57 556.143   1
  -5  -9   4 6273.05 355.744   1
  -5  -9   7 10442.7 427.384   1
   5   9  -7 10540.1 492.043   1
  14  -5   7 9872.38 663.775   1
  14  -5  10 3686.30 523.645   1
   9 -14 -10 3960.07 598.011   1
  14  -5  13 14533.1 823.147   1
  14  -5  16 5110.79 581.480   1
  14  -5  19 2441.98 568.464   1
  14  -5  22 273.590 501.372   1
  14  -5  25 2222.58 562.070   1
  14  -5  28 4757.10 626.230   1
  14  -5  31 1314.11 583.615   1
  14  -5  34 696.051 663.724   1
  10 -14  33 1508.78 428.997   1
   4  10  33 1540.11 825.202   1
  10 -14  30 1532.46 460.520   1
   4  10  30 2841.63 891.158   1
  10 -14  27 3193.03 479.145   1
  14  -4 -27 2404.68 563.987   1
   4  10  27 3842.30 841.988   1
  10 -14  24 727.519 406.417   1
   4  10  24 1597.54 780.357   1
  10 -14  21 1572.25 402.324   1
   4  10  21 1587.54 755.469   1
   4  10  18 548.157 661.667   1
  10 -14  18 935.551 403.025   1
   4  10  15 1922.73 720.843   1
  10 -14  15 1688.89 413.583   1
  -4 -10 -12 1126.75 344.755   1
   4  10  12 1463.42 606.394   1
   4  10   9 3951.33 618.813   1
  -4 -10  -9 5786.21 461.531   1
   4  10   6 252.617 524.693   1
  -4 -10  -6 653.382 292.294   1
   4  10   3 3891.60 528.563   1
  14  -4   0 30499.7 1192.07   1
   4  10   0 28317.5 1139.14   1
  14  -4   3 22549.9 986.377   1
   4  10  -3 22943.1 880.620   1
  -4 -10   3 22695.6 812.961   1
  -4 -10   6 15139.8 556.677   1
  14  -4   6 14503.0 779.654   1
   4  10  -6 14208.7 612.700   1
  14  -4   9 4567.47 557.619   1
  -4 -10   9 4574.80 230.898   1
  14  -4  12 13142.0 759.799   1
  14  -4  15 7017.58 628.344   1
  14  -4  18 395.969 526.101   1
  14  -4  21 482.100 537.086   1
  14  -4  24 804.639 558.054   1
  14  -4  27 2911.82 609.553   1
  14  -4  30 1060.45 550.463   1
  14  -4  33 1213.64 649.058   1
  11 -14  34 476.494 444.197   1
   3  11  34 1517.26 833.749   1
  11 -14  31 1715.76 481.420   1
   3  11  31 1966.46 806.472   1
  11 -14  28 7231.84 597.992   1
   3  11  28 6211.32 936.815   1
  11 -14  25 5246.61 535.738   1
  14  -3 -25 4433.08 575.171   1
   3  11  25 4602.29 847.061   1
  11 -14  22-261.410 372.949   1
   3  11  22 1116.81 756.217   1
  11 -14  19 689.778 383.495   1
   3  11  19 1012.53 765.470   1
  11 -14  16 5103.96 506.045   1
   3  11  16 5862.59 763.306   1
  -3 -11 -13 14352.5 734.935   1
   3  11  13 15861.6 942.093   1
  -3 -11 -10 6803.15 496.360   1
   3  11  10 6068.73 721.911   1
  -3 -11  -7 9747.39 560.840   1
   3  11   7 9423.02 716.836   1
  14  -3  -4 8.41793 360.177   1
   3  11   4 649.590 500.113   1
  14  -3  -1 5691.13 532.129   1
  -3 -11  -1 6897.10 426.849   1
   3  11   1 6879.56 566.594   1
  14  -3   2 4850.19 514.164   1
  -3 -11   2 5043.94 355.843   1
   3  11  -2 4717.43 475.733   1
  14  -3   5 12437.1 698.252   1
  -3 -11   5 11755.4 499.354   1
  -3 -11   8 15792.4 556.172   1
  14  -3   8 15807.3 821.883   1
  14  -3  11 233.697 479.242   1
  14  -3  14 456.269 475.238   1
  14  -3  17 137.609 501.257   1
  14  -3  20 297.184 539.383   1
  14  -3  23 2683.05 615.698   1
  14  -3  26 954.379 541.946   1
  14  -3  29 706.610 622.268   1
  14  -3  32-1.39732 619.687   1
  14  -3  35-117.183 675.166   1
  12 -14  32-73.5408 436.282   1
   2  12  32-104.466 814.817   1
   2  12  29 3265.02 861.723   1
  12 -14  29 3338.79 514.212   1
  14  -2 -26 6066.94 595.331   1
   2  12  26 6905.58 945.756   1
  12 -14  26 5562.66 578.874   1
  12 -14  23 5681.52 543.498   1
   2  12  23 4606.48 853.575   1
   2  12  20 4994.18 855.198   1
  12 -14  20 4704.65 539.429   1
  12 -14  17 858.713 433.490   1
   2  12  17 1701.18 730.997   1
  12 -14  14-44.0827 409.431   1
   2  12  14 100.397 701.435   1
  -2 -12 -11 256.860 348.719   1
   2  12  11 520.788 603.169   1
  -2 -12  -8 12624.7 660.549   1
   2  12   8 12818.9 820.546   1
  14  -2  -8 13132.8 685.193   1
  -2 -12  -5 11100.0 584.108   1
  14  -2  -5 10818.2 625.694   1
   2  12   5 11140.5 748.639   1
  14  -2  -2 1556.23 428.977   1
   2  12   2 1423.36 490.101   1
  -2 -12   1 7265.40 423.353   1
  14  -2   1 6973.75 565.586   1
  -2 -12   4 6854.96 386.645   1
  14  -2   4 6552.88 563.289   1
  14  -2   7 25593.8 1088.29   1
  -2 -12   7 25560.2 855.049   1
  14  -2  10 9980.32 662.489   1
  -2 -12  10 6648.81 277.190   1
  14  -2  13 3836.67 547.274   1
  14  -2  16 4822.61 595.628   1
  14  -2  19 510.645 519.606   1
  14  -2  22 140.570 557.073   1
  14  -2  25 1536.58 562.169   1
  14  -2  28 679.539 554.871   1
  14  -2  31-141.900 650.839   1
  14  -2  34 395.901 647.051   1
  13 -14  33 859.782 478.527   1
   1  13  33 1256.34 847.945   1
  13 -14  30 243.883 454.296   1
   1  13  30 382.837 792.773   1
  13 -14  27 194.793 435.119   1
   1  13  27 143.812 807.759   1
   1  13  24 284.290 805.849   1
  13 -14  24 117.914 411.837   1
  13 -14  21 1604.54 478.013   1
   1  13  21 1829.86 792.845   1
  13 -14  18 2323.51 496.965   1
   1  13  18 1236.28 759.458   1
   1  13  15 2985.10 753.868   1
  13 -14  15 2321.33 453.665   1
   1  13  12 3322.52 728.592   1
  -1 -13 -12 2661.50 472.392   1
  -1 -13  -9 683.198 375.799   1
  14  -1  -9 860.320 350.599   1
   1  13   9 495.914 616.138   1
  -1 -13  -6 3408.41 427.124   1
  14  -1  -6 3208.43 423.588   1
   1  13   6 3252.71 581.200   1
  14  -1  -3 6956.71 554.189   1
  14  -1   0 13594.2 728.783   1
  -1 -13   3 7768.52 447.212   1
  14  -1   3 8193.19 617.103   1
  -1 -13   6 1894.61 260.832   1
  14  -1   6 2172.25 495.216   1
  14  -1   9 1486.66 486.787   1
  -1 -13   9 1063.65 193.204   1
  -1 -13  12 878.854 82.8029   1
  14  -1  12 2426.54 524.154   1
  14  -1  15 4586.49 616.353   1
  14  -1  18-122.508 516.752   1
  14  -1  21 2212.31 613.122   1
  14  -1  24 116.718 538.811   1
  14  -1  27-1057.08 588.805   1
  14  -1  30-500.671 633.189   1
  14  -1  33 467.972 642.856   1
  14 -14  31 2083.16 564.836   1
   0  14  31 1449.64 835.619   1
  14 -14  28 761.531 462.710   1
   0  14  28 1115.30 853.064   1
   0  14  25 294.488 765.444   1
  14 -14  25 523.775 481.555   1
  14 -14  22 610.521 424.053   1
   0  14  22 309.206 749.305   1
  14 -14  19 2770.30 485.277   1
   0  14  19 1861.45 771.177   1
  14   0 -16 2071.98 376.320   1
   0  14  16 2863.69 782.970   1
  14 -14  16 2294.43 499.959   1
  14 -14  13 6653.05 586.659   1
  14   0 -13 6386.40 491.012   1
   0  14  13 6523.55 819.203   1
   0 -14 -10 1316.62 449.521   1
   0  14  10 814.061 632.724   1
  14   0 -10 1341.97 371.952   1
  14   0  -7-18.0838 363.937   1
   0 -14  -7 356.552 372.308   1
   0 -14  -4 67.6005 384.955   1
  14   0  -4 198.534 362.047   1
  14   0  -1 2678.34 444.757   1
   0 -14   2 5373.82 432.700   1
  14   0   2 5971.63 540.592   1
  14   0   5 598.292 424.084   1
   0 -14   5 575.959 281.704   1
  14   0   8 835.179 470.763   1
   0 -14   8 1114.80 255.896   1
  14   0  11-168.332 465.800   1
   0 -14  11 465.002 153.976   1
  14   0  14 0.97017 516.593   1
  14   0  17 4081.37 628.280   1
  14   0  20 9140.50 765.381   1
  14   0  23 12215.9 868.252   1
  14   0  26 1208.37 639.853   1
  14   0  29-260.976 630.728   1
  14   0  32-955.646 664.623   1
  14   1  31 474.067 675.794   1
  14   1  28 1561.68 675.527   1
  14   1  25-669.475 609.018   1
  14   1  22-591.077 549.424   1
  14   1  19 5483.78 665.373   1
  14   1  16 3749.31 605.352   1
  14   1  13 3033.12 562.401   1
   1 -15  13 1489.65 176.789   1
   1 -15  10 7441.51 403.663   1
  14   1  10 8674.97 663.866   1
   1 -15   7 5462.86 402.293   1
  14   1   7 5460.92 569.315   1
   1 -15   4 297.466 312.078   1
  14   1   4 317.541 441.851   1
  14   1   1 5295.99 529.630   1
   1 -15  -2 331.476 346.349   1
  14   1  -2 404.605 372.293   1
   1 -15  -5 6400.65 540.035   1
  14   1  -5 6642.94 525.979   1
   1 -15  -8 930.319 421.280   1
  14   1  -8 805.140 358.458   1
  14   1 -11 3776.12 439.177   1
  14   1 -14-155.663 339.455   1
  15 -14  14-29.6709 448.978   1
  15 -14  17 5712.16 605.038   1
  14   1 -17 4591.70 424.921   1
  14   1 -20 1911.14 333.331   1
  15 -14  20 1602.70 512.145   1
  15 -14  23 1227.17 477.381   1
  15 -14  26 1657.40 520.344   1
  15 -14  29-83.7660 506.651   1
  15 -14  32-29.9466 503.422   1
  13   2  32-7.95836 666.805   1
  13   2  29-924.306 656.228   1
  13   2  26-426.378 645.429   1
  13   2  23 1442.50 640.751   1
  13   2  20 156.404 553.540   1
  13   2  17 166.867 513.593   1
   2 -15  14 1882.11 223.013   1
  13   2  14 3030.98 555.987   1
  13   2  11 1367.50 499.498   1
   2 -15  11 1271.57 275.300   1
   2 -15   8 7964.71 468.305   1
  13   2   8 9645.09 658.062   1
  13   2   5 10573.9 660.728   1
   2 -15   5 10116.9 540.236   1
  13   2   2 10995.7 673.840   1
   2 -15  -1 955.612 345.178   1
  13   2  -1 633.675 402.704   1
   2 -15  -4 1514.73 408.508   1
  13   2  -4 1138.79 369.678   1
  13   2  -7 1519.59 366.179   1
   2 -15  -7 1562.89 446.370   1
   2 -15 -10 13365.0 776.396   1
  13   2 -10 15051.2 677.438   1
  15 -13  13 8922.95 666.062   1
  13   2 -13 7646.72 495.928   1
  13   2 -16-61.3154 284.738   1
  15 -13  16-88.8242 487.634   1
  13   2 -19-29.9200 268.192   1
  15 -13  19-151.023 462.006   1
  15 -13  22 922.346 490.682   1
  13   2 -22 525.837 265.836   1
  15 -13  25 3172.24 563.806   1
  15 -13  28 3824.19 590.695   1
  15 -13  31 2955.11 575.394   1
  12   3  33-184.950 683.697   1
  12   3  30-268.196 697.933   1
  12   3  27 348.870 629.692   1
  12   3  24 2156.96 667.085   1
  12   3  21-4.60192 624.314   1
   3 -15  18 2068.08 165.998   1
   3 -15  18 2430.22 219.154   1
  12   3  18 2082.06 618.741   1
  12   3  15 13273.5 810.801   1
   3 -15  15 11793.2 513.934   1
  12   3  12 828.243 513.928   1
   3 -15  12 996.832 326.964   1
 -12  -3  -9 228.792 357.308   1
   3 -15   9 341.810 345.657   1
  12   3   9-109.963 466.527   1
  12   3   6 1920.71 477.896   1
 -12  -3  -6 1895.21 389.016   1
   3 -15   6 1875.00 416.682   1
  12   3   3 10241.0 647.863   1
  12   3   0 3130.55 450.378   1
   3 -15  -3 6380.69 501.906   1
  12   3  -3 5332.65 467.933   1
   3 -15  -6 4111.19 477.734   1
  12   3  -6 3039.85 397.635   1
   3 -15  -9 444.797 417.614   1
  12   3  -9 344.286 308.658   1
  12   3 -12 5472.48 395.025   1
  15 -12  12 4705.45 575.354   1
  12   3 -15 466.791 277.244   1
  15 -12  15 744.429 511.178   1
  12   3 -18 4972.96 371.198   1
  15 -12  18 5119.31 580.597   1
  15 -12  21 3267.00 557.459   1
  12   3 -21 3624.94 314.537   1
  12   3 -24 75.8085 217.336   1
  15 -12  24 1263.16 557.025   1
  15 -12  27-225.380 509.864   1
  15 -12  30 1312.29 565.223   1
  15 -12  33 1014.53 509.578   1
  11   4  34 400.005 684.114   1
  11   4  31 1150.82 674.785   1
  11   4  28 727.729 675.264   1
   4 -15  25-8.36954 128.489   1
  11   4  25-266.916 637.090   1
  11   4  22-135.049 630.698   1
   4 -15  22 24.7838 147.355   1
  11   4  19-1063.25 610.458   1
   4 -15  19-45.3276 183.893   1
   4 -15  16 284.123 211.757   1
  11   4  16-220.474 597.827   1
   4 -15  16 460.875 328.871   1
   4 -15  13 408.751 339.170   1
  11   4  13 431.217 497.270   1
 -11  -4 -10 9915.31 611.076   1
  11   4  10 9065.18 656.676   1
   4 -15  10 7780.72 535.595   1
   4 -15   7 674.937 388.986   1
  11   4   7 533.894 446.721   1
 -11  -4  -7 1227.21 360.153   1
 -11  -4  -4 2985.89 371.156   1
  11   4   4 2303.26 425.797   1
  11   4   1 493.237 372.511   1
  11   4  -2 4886.61 453.587   1
   4 -15  -2 4752.47 547.960   1
   4 -15  -5 12234.5 745.470   1
  11   4  -5 14168.5 643.970   1
   4 -15  -8 5473.12 608.517   1
  11   4  -8 5553.29 418.282   1
  11   4 -11 5950.77 397.026   1
  15 -11  11 5671.19 625.072   1
  11   4 -14 3466.82 316.852   1
  15 -11  14 3863.51 586.279   1
  11   4 -17 1341.58 247.253   1
  15 -11  17 1188.11 494.329   1
  15 -11  20 226.624 455.265   1
  11   4 -20 527.264 201.119   1
  11   4 -23 1425.03 198.248   1
  15 -11  23 2236.68 542.416   1
  11   4 -23 2237.08 277.760   1
  11   4 -26 1457.70 180.558   1
  15 -11  26 2392.68 548.030   1
  15 -11  29-132.856 495.390   1
  15 -11  32-331.675 532.742   1
  10   5  32 423.735 669.192   1
  10   5  29 276.372 654.744   1
  10   5  26 501.581 670.716   1
   5 -15  26-396.498 226.188   1
  10   5  23 2873.38 685.624   1
   5 -15  23 3304.32 290.042   1
   5 -15  20 4196.62 310.637   1
  10   5  20 2885.91 670.178   1
   5 -15  17 160.502 246.723   1
  10   5  17-209.897 597.832   1
  10   5  14 138.934 572.060   1
  10   5  11 5575.52 595.406   1
 -10  -5 -11 5951.82 507.621   1
  10   5   8 10000.4 673.439   1
   5 -15   8 10124.2 606.296   1
 -10  -5  -8 11084.6 628.469   1
 -10  -5  -5 3453.07 399.289   1
  10   5   5 3978.20 475.613   1
  10   5   2 13476.2 668.012   1
 -10  -5  -2 11628.4 607.911   1
   5 -15  -1 2455.60 482.385   1
  10   5  -1 1214.02 350.044   1
  10   5  -4 827.238 325.119   1
   5 -15  -4 644.969 455.871   1
  10   5  -7 68.8234 282.920   1
   5 -15  -7 664.033 478.770   1
  15 -10  10 5508.39 618.575   1
   5 -15 -10 7123.33 641.567   1
  10   5 -10 6586.54 406.303   1
  15 -10  13 8227.40 677.183   1
  10   5 -13 7748.78 410.469   1
  10   5 -16 703.829 205.316   1
  15 -10  16 1186.15 492.326   1
  15 -10  19 1959.37 497.756   1
  10   5 -19 1191.21 177.659   1
  10   5 -22 456.900 150.664   1
  10   5 -22 338.091 115.640   1
  15 -10  22-67.7273 513.640   1
  10   5 -25 43.0635 68.3101   1
  15 -10  25 134.472 501.797   1
  15 -10  28-374.504 517.187   1
  15 -10  31 3382.14 619.546   1
  15 -10  34 2051.94 595.982   1
   9   6  33 870.562 722.444   1
   9   6  30 377.906 722.549   1
   9   6  27 203.100 638.161   1
   6 -15  27 286.341 264.965   1
   6 -15  24 839.705 281.479   1
   9   6  24 819.629 639.596   1
   9   6  21 971.467 645.043   1
   6 -15  21 1287.71 300.955   1
   9   6  18 9618.45 815.704   1
   6 -15  18 10688.7 524.290   1
   9   6  15 3437.67 619.080   1
  -9  -6 -12-38.3929 347.722   1
   9   6  12-319.210 496.177   1
  -9  -6  -9 810.741 350.123   1
   9   6   9 612.487 477.067   1
   9   6   6-287.081 446.530   1
  -9  -6  -6 79.7888 324.939   1
   9   6   3 11655.4 682.927   1
  -9  -6  -3 12627.1 610.002   1
   9   6   0 7439.52 498.123   1
   6 -15   0 6543.73 600.260   1
   9   6  -3 493.427 310.958   1
   6 -15  -3 606.468 449.479   1
  15  -9   6-102.213 478.757   1
   9   6  -6 277.362 274.662   1
   6 -15  -6-214.270 499.877   1
   9   6  -9 8192.56 429.896   1
  15  -9   9 7011.41 648.411   1
   6 -15  -9 8245.42 699.837   1
  15  -9  12 14076.2 844.480   1
   9   6 -12 15270.8 576.575   1
   9   6 -15 9139.12 375.985   1
  15  -9  15 9273.07 700.986   1
  15  -9  18 4600.73 595.994   1
   9   6 -18 3951.31 188.624   1
  15  -9  21 2348.34 565.790   1
  15  -9  24 339.526 498.769   1
  15  -9  27-99.3050 528.029   1
  15  -9  30 810.003 521.054   1
  15  -9  33 1835.97 605.258   1
   8   7  34 178.755 720.218   1
   8   7  31 3035.40 743.492   1
   7 -15  31 170.983 332.342   1
   8   7  28 2122.61 691.522   1
   7 -15  28 1732.71 330.867   1
   8   7  25 2733.11 675.540   1
   7 -15  25 2534.62 355.430   1
   8   7  22 821.416 648.307   1
   7 -15  22 633.624 294.965   1
   8   7  19-352.240 641.056   1
   7 -15  19-190.723 296.816   1
   7 -15  16-124.858 302.666   1
   8   7  16 85.9772 618.380   1
   8   7  13 121.347 529.422   1
  -8  -7 -10 3001.95 397.158   1
   8   7  10 2935.12 553.746   1
   8   7   7 18282.0 907.144   1
  -8  -7  -7 19264.5 827.646   1
   8   7   4-288.698 447.161   1
  -8  -7  -4-150.976 271.342   1
   8   7   1 5639.56 498.448   1
   8   7  -2 6446.74 472.880   1
  -8  -7   2 6247.26 410.716   1
   7 -15  -2 7165.49 602.475   1
  15  -8   5 22971.7 1032.24   1
   8   7  -5 21639.9 832.747   1
   7 -15  -5 20812.8 1001.07   1
   8   7  -8 10995.8 504.768   1
  15  -8   8 9313.52 702.766   1
   7 -15  -8 10479.8 745.844   1
  15  -8  11 1691.88 503.870   1
   8   7 -11 1608.99 244.118   1
   8   7 -14 13.8693 135.285   1
  15  -8  14 140.531 475.426   1
  15  -8  17 2296.16 534.210   1
  15  -8  20 2837.49 546.685   1
  15  -8  23 870.735 491.000   1
  15  -8  26 1023.60 531.711   1
  15  -8  29 598.579 518.963   1
  15  -8  32-161.144 543.528   1
  15  -8  35 419.926 533.147   1
   7   8  35-535.212 815.682   1
   7   8  32 310.215 800.463   1
   8 -15  32-539.537 363.968   1
   7   8  29 991.752 704.988   1
   8 -15  29 85.8385 338.597   1
   7   8  26 4408.14 753.167   1
   8 -15  26 3522.09 397.375   1
   8 -15  23 20370.1 829.846   1
   7   8  23 19700.0 1115.81   1
   8 -15  20 25148.6 973.338   1
   7   8  20 24699.9 1253.58   1
   7   8  17 3542.31 677.077   1
   8 -15  17 4003.13 413.005   1
   7   8  14-412.081 572.958   1
   7   8  11 5555.44 643.485   1
  -7  -8 -11 5842.69 474.668   1
   7   8   8 28324.3 1174.44   1
  -7  -8  -8 27625.2 1072.29   1
   7   8   5 11735.0 723.632   1
  -7  -8  -5 12155.1 614.811   1
   7   8   2 114.504 397.539   1
   7   8  -1 1679.50 397.568   1
  -7  -8   1 1667.91 302.250   1
  -7  -8   4 39.8430 240.234   1
  15  -7   4 166.513 467.514   1
   7   8  -4-253.827 337.157   1
   8 -15  -7 955.274 522.069   1
   7   8  -7 1342.75 299.155   1
  15  -7   7 1091.36 494.227   1
   7   8 -10 1069.11 228.638   1
  15  -7  10 261.746 504.689   1
  15  -7  13 7699.48 625.880   1
   7   8 -13 5498.22 230.304   1
  15  -7  16 719.051 485.352   1
  15  -7  19 359.810 527.643   1
  15  -7  22 1805.77 573.488   1
  15  -7  25 413.738 507.358   1
  15  -7  28 7093.74 715.738   1
  15  -7  31 4801.94 675.232   1
  15  -7  34 1001.09 571.606   1
   9 -15  33 1041.40 371.600   1
   6   9  33 1106.78 829.655   1
   6   9  30 473.328 817.982   1
   9 -15  30 102.102 364.131   1
   6   9  27 76.5375 810.945   1
   9 -15  27 78.6228 350.684   1
   9 -15  24 6926.62 515.324   1
   6   9  24 6475.85 831.315   1
   9 -15  21 8204.59 549.526   1
   6   9  21 10454.8 871.262   1
   9 -15  18 8786.79 559.760   1
   6   9  18 9513.57 813.526   1
   6   9  15 6153.99 699.347   1
   6   9  12 4136.05 625.055   1
  -6  -9 -12 4001.10 445.717   1
   6   9   9 1380.10 523.139   1
  -6  -9  -9 1725.89 370.923   1
   6   9   6 4992.32 573.817   1
  -6  -9  -6 5757.40 449.037   1
   6   9   3 1591.88 455.902   1
  -6  -9   0 15288.0 651.793   1
   6   9   0 15110.8 721.968   1
   6   9  -3 2561.31 384.553   1
  -6  -9   3 1952.30 277.074   1
  15  -6   3 1852.92 487.026   1
  -6  -9   6 29.0649 229.066   1
   6   9  -6 259.742 319.364   1
  15  -6   6 82.1771 455.310   1
  15  -6   9 226.267 476.465   1
   6   9  -9 403.922 267.332   1
  15  -6  12 1649.22 501.324   1
  15  -6  15 2927.28 534.218   1
  15  -6  18 1707.05 547.224   1
  15  -6  21 9876.95 763.008   1
  15  -6  24 4691.88 646.163   1
  15  -6  27 92.5788 543.431   1
  15  -6  30 652.994 568.108   1
  15  -6  33 2324.90 610.885   1
  10 -15  34 1648.51 448.036   1
   5  10  34 907.269 809.123   1
   5  10  31 3302.73 890.236   1
  10 -15  31 3199.28 474.754   1
  10 -15  28 8658.37 611.659   1
   5  10  28 8028.83 962.781   1
   5  10  25 1198.23 789.607   1
  10 -15  25 393.703 375.668   1
   5  10  22 407.928 803.432   1
  10 -15  22 854.436 385.461   1
   5  10  19 1226.34 789.603   1
  10 -15  19 1600.20 414.493   1
   5  10  16 6565.58 795.437   1
  10 -15  16 7311.85 534.225   1
   5  10  13 5365.74 710.347   1
   5  10  10 442.275 556.625   1
  -5 -10 -10 24.5918 321.306   1
   5  10   7 1029.58 517.784   1
  -5 -10  -7 104.255 306.049   1
   5  10   4 71.3958 502.427   1
  15  -5  -1 9090.88 647.304   1
   5  10   1 9460.82 642.622   1
  -5 -10   2 4689.45 349.333   1
  15  -5   2 4234.20 534.719   1
   5  10  -2 5126.90 487.681   1
  15  -5   5 19316.6 983.709   1
  -5 -10   5 21918.1 758.391   1
   5  10  -5 20804.0 815.765   1
  -5 -10   8 24461.3 808.307   1
  15  -5   8 24150.7 1074.37   1
   5  10  -8 25098.3 847.867   1
  15  -5  11 738.831 508.364   1
  15  -5  14 168.447 488.488   1
  15  -5  17 321.696 517.636   1
  15  -5  20 2990.58 571.599   1
  15  -5  23 7977.27 718.189   1
  15  -5  26 1965.62 561.710   1
  15  -5  29 1377.61 562.239   1
  15  -5  32 1004.71 592.488   1
   4  11  32 417.344 784.146   1
  11 -15  32 863.947 416.015   1
  11 -15  29 1778.04 458.932   1
   4  11  29 2070.65 851.863   1
  11 -15  26 941.303 402.404   1
   4  11  26 1712.75 848.811   1
  11 -15  23-121.409 386.064   1
   4  11  23 134.922 790.486   1
  11 -15  20 2169.90 440.071   1
   4  11  20 2949.60 808.317   1
  11 -15  17 1776.47 434.710   1
   4  11  17 1661.67 725.515   1
   4  11  14 539.302 675.700   1
  -4 -11 -11 1891.82 404.789   1
   4  11  11 1733.99 637.596   1
  -4 -11  -8 13391.6 670.358   1
   4  11   8 12462.9 847.880   1
  -4 -11  -5 1491.86 334.044   1
   4  11   5 2087.02 559.716   1
  15  -4  -2 2019.27 481.712   1
   4  11   2 2789.26 524.308   1
  -4 -11   1 1580.40 289.412   1
  15  -4   1 1320.41 448.586   1
   4  11  -1 1897.79 462.670   1
  15  -4   4 351.951 464.028   1
  -4 -11   4 10.2945 231.515   1
   4  11  -4 14.8671 372.876   1
  -4 -11   7 3016.12 259.843   1
  15  -4   7 2516.65 514.184   1
  15  -4  10 931.783 479.358   1
  15  -4  13 10485.0 731.790   1
  15  -4  16 7849.41 675.628   1
  15  -4  19 77.2347 515.485   1
  15  -4  22 2437.11 591.741   1
  15  -4  25 6400.10 700.776   1
  15  -4  28 4602.67 678.275   1
  15  -4  31 984.859 578.511   1
  15  -4  34-239.477 674.449   1
   3  12  33 184.680 789.812   1
  12 -15  33-232.621 419.292   1
  12 -15  30-279.718 424.972   1
   3  12  30 21.9717 789.422   1
  12 -15  27 107.039 420.776   1
   3  12  27 603.942 798.722   1
  12 -15  24 151.966 434.768   1
   3  12  24 269.786 759.214   1
  12 -15  21 6210.23 575.270   1
   3  12  21 7202.91 925.172   1
  12 -15  18 8492.35 623.297   1
   3  12  18 7363.18 844.974   1
  12 -15  15 3901.36 511.552   1
   3  12  15 4941.35 767.363   1
   3  12  12 6429.09 784.716   1
   3  12   9 670.638 588.835   1
  -3 -12  -9 523.787 349.657   1
  15  -3  -6 775.818 395.085   1
   3  12   6 1271.05 585.937   1
  -3 -12  -6 1032.29 339.544   1
  15  -3  -3 8584.81 599.479   1
   3  12   3 8851.04 674.012   1
  15  -3   0 23290.7 1023.87   1
  -3 -12   0 23462.5 890.709   1
   3  12   0 23998.7 996.069   1
  -3 -12   3 12957.9 569.491   1
  15  -3   3 12413.6 746.256   1
  15  -3   6 112.013 459.029   1
  -3 -12   6 18.0350 214.255   1
  15  -3   9 683.978 480.605   1
  -3 -12   9 522.933 154.792   1
  15  -3  12-205.855 513.185   1
  15  -3  15 1847.28 526.820   1
  15  -3  18 2852.36 569.068   1
  15  -3  21 10000.1 781.457   1
  15  -3  24 319.516 601.281   1
  15  -3  27 21.6196 542.686   1
  15  -3  30-285.591 589.654   1
  15  -3  33 489.811 636.023   1
  13 -15  31-47.0396 453.773   1
   2  13  31 1248.93 851.688   1
  13 -15  28 2626.67 492.359   1
   2  13  28 2163.38 904.230   1
   2  13  25 3906.86 846.993   1
  13 -15  25 4508.95 528.486   1
  13 -15  22 585.878 450.136   1
   2  13  22-41.5204 766.377   1
  13 -15  19 67.0816 431.260   1
   2  13  19-358.118 742.153   1
  13 -15  16 368.847 435.548   1
   2  13  16 198.527 727.298   1
   2  13  13 8348.93 848.314   1
  -2 -13 -10 7821.44 548.542   1
  15  -2 -10 8703.25 585.216   1
   2  13  10 8175.66 800.667   1
  -2 -13  -7 12183.0 644.124   1
  15  -2  -7 12650.8 694.763   1
   2  13   7 12381.9 831.844   1
  15  -2  -4-83.6780 398.684   1
   2  13   4-493.955 541.229   1
  -2 -13  -4 44.9477 305.916   1
  15  -2  -1 6865.43 571.928   1
  -2 -13   2 10183.3 512.542   1
  15  -2   2 9427.81 666.045   1
  15  -2   5 9773.07 695.043   1
  -2 -13   5 10099.8 476.263   1
  15  -2   8 21986.4 1001.76   1
  -2 -13   8 20135.9 711.337   1
  -2 -13  11 2931.20 158.404   1
  15  -2  11 6358.20 633.123   1
  15  -2  14-503.743 494.991   1
  15  -2  17-10.4640 544.281   1
  15  -2  20 3724.88 615.399   1
  15  -2  23-267.917 582.671   1
  15  -2  26 1859.30 593.373   1
  15  -2  29 1056.83 611.447   1
  15  -2  32-534.953 616.800   1
  14 -15  32-428.084 471.907   1
   1  14  32-728.500 793.706   1
  14 -15  29 322.221 481.718   1
   1  14  29 392.837 791.561   1
   1  14  26 4080.88 876.140   1
  14 -15  26 3110.70 531.385   1
  14 -15  23 485.669 453.775   1
   1  14  23 568.116 757.318   1
  14 -15  20 19.0431 444.081   1
   1  14  20 502.899 746.246   1
   1  14  17 18.6719 718.734   1
  14 -15  17-93.0666 470.607   1
  15  -1 -14 442.868 353.968   1
   1  14  14-114.972 706.550   1
  14 -15  14 43.6557 486.112   1
  15  -1 -11 560.397 385.130   1
   1  14  11-153.491 642.805   1
  -1 -14  -8 5634.30 506.487   1
  15  -1  -8 5523.00 500.835   1
   1  14   8 5579.31 730.124   1
  15  -1  -5 347.958 404.597   1
  -1 -14  -5 423.251 359.048   1
  -1 -14  -2 2078.00 367.024   1
  15  -1  -2 2732.60 465.663   1
  15  -1   1 294.961 410.989   1
  15  -1   4-155.358 421.659   1
  -1 -14   4 121.368 264.911   1
  -1 -14   7 101.550 231.652   1
  15  -1   7-87.7302 486.418   1
  -1 -14  10 725.036 171.463   1
  15  -1  10 98.8746 470.876   1
  15  -1  13 3414.20 583.958   1
  15  -1  16 130.527 518.702   1
  15  -1  19 697.729 560.637   1
  15  -1  22 1565.62 623.235   1
  15  -1  25-80.8706 576.698   1
  15  -1  28 1542.96 648.743   1
  15  -1  31 1395.85 647.292   1
  15 -15  30 790.044 513.208   1
   0  15  30-201.606 790.171   1
  15 -15  27-248.817 441.858   1
   0  15  27-247.807 793.157   1
  15 -15  24 312.633 477.377   1
   0  15  24 428.263 813.220   1
  15 -15  21 3151.57 508.379   1
   0  15  21 2509.66 817.353   1
  15 -15  18 6095.65 640.007   1
   0  15  18 6309.39 841.050   1
  15   0 -18 6476.00 481.490   1
  15   0 -15 6934.03 511.370   1
  15 -15  15 6532.56 651.911   1
   0  15  15 6984.56 855.030   1
  15   0 -12 567.382 363.801   1
  15   0  -9 499.934 375.848   1
   0 -15  -6 1433.41 418.113   1
  15   0  -6 1636.71 423.195   1
  15   0  -3 4106.52 489.119   1
   0 -15  -3 2921.24 424.272   1
  15   0   0 6821.74 571.466   1
  15   0   3 3727.82 536.542   1
   0 -15   6-183.764 289.001   1
  15   0   6 19.4317 458.052   1
  15   0   9 367.318 486.764   1
   0 -15   9 600.331 229.329   1
   0 -15  12 1391.89 153.470   1
  15   0  12 1309.16 553.390   1
  15   0  15 5128.00 649.888   1
  15   0  18 7710.62 715.671   1
  15   0  21 1767.65 570.110   1
  15   0  24 1728.19 573.906   1
  15   0  27-1065.96 640.789   1
  15   0  30-219.285 669.796   1
  15   1  29 926.781 676.523   1
  15   1  26 257.225 625.054   1
  15   1  23-317.681 591.653   1
  15   1  20-89.4249 547.898   1
  15   1  17-214.132 552.127   1
  15   1  14 383.517 546.154   1
   1 -16  14 94.6261 103.961   1
  15   1  11 5103.74 640.276   1
   1 -16  11 4297.47 313.827   1
   1 -16   8 9933.87 509.209   1
  15   1   8 11517.7 755.747   1
   1 -16   5 6762.58 464.555   1
  15   1   5 7359.77 631.711   1
  15   1   2 2774.80 526.407   1
   1 -16  -1 3432.17 446.370   1
  15   1  -1 4354.66 531.626   1
  15   1  -4 1498.57 433.884   1
   1 -16  -4 1867.20 429.441   1
  15   1  -7 267.869 360.275   1
   1 -16  -7-518.911 396.755   1
  15   1 -10 1765.55 394.961   1
  15   1 -13 3770.67 434.837   1
  16 -15  13 4147.62 563.885   1
  15   1 -16 1022.20 350.804   1
  16 -15  16 1346.83 542.786   1
  16 -15  19 303.020 488.769   1
  15   1 -19 536.075 312.066   1
  15   1 -22-154.725 284.798   1
  16 -15  22-51.8447 481.374   1
  15   1 -25 1034.33 308.604   1
  16 -15  25 1447.75 503.505   1
  16 -15  28 898.021 537.934   1
  14   2  30 1050.28 672.726   1
  14   2  27-1441.59 648.698   1
  14   2  24-621.728 649.739   1
  14   2  21-376.999 617.148   1
  14   2  18 1224.47 545.559   1
   2 -16  15 1077.77 148.445   1
   2 -16  15 980.493 163.954   1
   2 -16  12 615.982 244.612   1
  14   2  12 935.452 519.949   1
  14   2   9-189.463 511.597   1
   2 -16   9-73.3473 286.919   1
  14   2   6 4128.12 569.388   1
   2 -16   6 4432.15 422.295   1
  14   2   3 9153.48 665.054   1
  14   2   0 13186.1 735.262   1
   2 -16   0 12567.7 680.525   1
  14   2  -3 5049.94 500.898   1
   2 -16  -3 4551.46 494.391   1
  14   2  -6 4881.14 470.653   1
   2 -16  -6 3298.85 490.259   1
  14   2  -9 2271.15 389.082   1
  14   2 -12 2612.71 382.817   1
  16 -14  12 2160.88 523.326   1
  14   2 -15 4738.85 426.167   1
  16 -14  15 4831.34 605.518   1
  16 -14  18 4829.53 623.300   1
  14   2 -18 4972.68 405.723   1
  14   2 -21-235.615 265.112   1
  16 -14  21 64.8082 508.479   1
  16 -14  24-12.4132 470.347   1
  14   2 -24 50.1776 252.463   1
  16 -14  27 267.907 495.281   1
  16 -14  30 565.379 495.147   1
  13   3  31 3002.21 733.663   1
  13   3  28-178.578 664.427   1
  13   3  25-371.002 664.479   1
  13   3  22 891.814 627.642   1
   3 -16  19-13.6297 77.9542   1
   3 -16  19 93.7678 89.6935   1
  13   3  19-119.240 643.167   1
   3 -16  16 4335.64 259.475   1
   3 -16  16 4965.14 290.659   1
   3 -16  13 2109.85 319.941   1
  13   3  13 3243.46 565.657   1
   3 -16  10 2870.04 376.846   1
  13   3  10 2825.70 566.152   1
   3 -16   7 119.961 348.044   1
  13   3   7 56.5491 453.927   1
  13   3   4-479.625 401.125   1
   3 -16   1 322.139 370.793   1
  13   3   1 59.8211 419.342   1
   3 -16  -2 5961.12 522.188   1
  13   3  -2 5510.32 513.601   1
   3 -16  -5 6395.74 562.890   1
  13   3  -5 5916.93 502.865   1
   3 -16  -8 593.773 415.641   1
  13   3  -8-32.9263 345.575   1
  16 -13  11 526.281 482.728   1
  13   3 -11 68.0457 320.149   1
  13   3 -14-109.053 288.996   1
  16 -13  14-219.557 472.428   1
  16 -13  17 1992.12 537.436   1
  13   3 -17 2123.96 304.180   1
  16 -13  20 1028.85 534.289   1
  13   3 -20 1108.15 278.148   1
  16 -13  23 403.254 519.262   1
  13   3 -23 252.654 235.133   1
  16 -13  26 2031.52 561.372   1
  16 -13  29 1741.61 580.641   1
  16 -13  32 23.8534 494.329   1
  12   4  32 2442.66 729.959   1
  12   4  29 3228.80 759.074   1
  12   4  26 5802.42 803.187   1
   4 -16  23 3759.13 187.179   1
  12   4  23 7419.97 787.899   1
   4 -16  20 1048.64 171.462   1
  12   4  20 743.217 629.852   1
   4 -16  20 1185.20 224.114   1
   4 -16  17 823.026 202.010   1
  12   4  17 381.974 599.672   1
   4 -16  17 1394.56 305.695   1
  12   4  14 87.9025 546.349   1
   4 -16  14 548.839 342.071   1
  12   4  11 5638.92 606.769   1
   4 -16  11 5915.72 470.938   1
  12   4   8 591.617 466.921   1
   4 -16   8 1371.70 409.316   1
 -12  -4  -5 589.502 361.958   1
  12   4   5 578.549 432.521   1
  12   4   2 9283.51 625.090   1
   4 -16  -1 1665.65 482.874   1
  12   4  -1 1041.16 398.080   1
   4 -16  -4 579.250 489.669   1
  12   4  -4 722.934 364.835   1
   4 -16  -7 3847.41 475.244   1
  12   4  -7 2926.73 385.535   1
  12   4 -10 6410.77 449.663   1
  16 -12  10 5821.14 621.415   1
  12   4 -13 9579.81 521.883   1
  16 -12  13 9946.65 741.649   1
  16 -12  16 1430.77 508.458   1
  12   4 -16 1084.28 273.012   1
  12   4 -19 966.794 248.033   1
  16 -12  19 2416.20 543.602   1
  16 -12  22 163.988 513.849   1
  12   4 -22 285.693 190.265   1
  16 -12  25 1724.76 540.490   1
  16 -12  28 665.272 515.698   1
  16 -12  31 415.240 534.740   1
  11   5  33-230.460 694.476   1
  11   5  30 1308.09 682.326   1
  11   5  27 369.430 708.742   1
  11   5  24 2070.15 691.667   1
   5 -16  24 2034.27 218.512   1
  11   5  21 4719.71 730.041   1
   5 -16  21 5058.87 319.242   1
  11   5  18 4439.91 692.415   1
   5 -16  18 5369.34 351.662   1
  11   5  15 4025.97 689.659   1
  11   5  12-110.989 556.622   1
   5 -16  12-140.722 398.461   1
  11   5   9-266.911 462.974   1
   5 -16   9-102.342 404.368   1
  11   5   6 82.0362 431.840   1
 -11  -5  -6-6.12338 338.308   1
  11   5   3 18678.5 855.671   1
 -11  -5  -3 17620.0 801.983   1
  11   5   0 9947.47 613.413   1
   5 -16   0 10811.8 693.615   1
  11   5  -3 6857.49 490.710   1
   5 -16  -3 5893.02 591.610   1
  11   5  -6 12532.1 621.739   1
   5 -16  -6 12838.0 814.371   1
  11   5  -9-45.0529 287.826   1
  16 -11   9-143.877 521.493   1
  11   5 -12 180.185 268.314   1
  16 -11  12-65.7333 519.443   1
  16 -11  15 1650.01 557.246   1
  11   5 -15 2021.56 284.688   1
  16 -11  18 9273.13 713.116   1
  11   5 -18 8812.58 401.321   1
  11   5 -21 6457.07 331.640   1
  11   5 -21 6539.00 307.754   1
  16 -11  24 3519.44 582.231   1
  16 -11  27 450.996 535.395   1
  16 -11  30 1425.49 556.816   1
  16 -11  33 463.581 541.957   1
  10   6  31 1811.21 708.034   1
  10   6  28-80.6805 677.948   1
   6 -16  25-91.3757 240.521   1
  10   6  25-43.1704 654.594   1
  10   6  22 14.9847 619.575   1
   6 -16  22-124.233 261.689   1
  10   6  19 1567.90 645.331   1
   6 -16  19 1022.11 279.876   1
  10   6  16 12666.1 870.278   1
   6 -16  16 11424.2 540.205   1
  10   6  13 8947.73 747.387   1
  10   6  10 8192.12 690.195   1
  10   6   7 12657.4 764.146   1
 -10  -6  -7 13281.2 701.893   1
 -10  -6  -4 6.98050 353.041   1
  10   6   4-277.267 430.376   1
 -10  -6  -1 59.2915 323.180   1
  10   6   1 89.4425 394.192   1
   6 -16   1 326.679 460.540   1
  10   6  -2 261.848 344.831   1
   6 -16  -2 293.001 461.623   1
  10   6  -5 3255.82 384.464   1
   6 -16  -5 3533.90 556.290   1
  16 -10   8 146.870 493.198   1
  10   6  -8 229.283 282.636   1
   6 -16  -8 556.431 543.064   1
  16 -10  11 80.0359 507.373   1
  10   6 -11 381.254 258.914   1
  16 -10  14-145.094 490.430   1
  10   6 -14 279.275 209.406   1
  16 -10  17 48.4758 500.016   1
  10   6 -17 517.653 157.456   1
  16 -10  20 257.453 519.941   1
  10   6 -20-52.6514 84.0423   1
  10   6 -20 99.4995 94.1283   1
  16 -10  23-107.581 504.867   1
  16 -10  26 650.604 542.434   1
  16 -10  29 479.821 519.837   1
  16 -10  32 448.566 566.660   1
   9   7  32 1365.67 753.269   1
   9   7  29 2040.75 726.139   1
   7 -16  29 1148.48 304.912   1
   7 -16  26 1550.37 312.319   1
   9   7  26 1169.28 690.760   1
   9   7  23 2241.83 689.530   1
   7 -16  23 1777.83 331.063   1
   9   7  20 174.534 628.820   1
   7 -16  20 764.292 294.583   1
   9   7  17-595.181 590.807   1
   7 -16  17-223.468 303.715   1
   9   7  14-304.592 580.150   1
   9   7  11 251.993 568.894   1
   9   7   8 6771.79 628.134   1
  -9  -7  -8 7052.60 528.984   1
   9   7   5 17108.5 880.039   1
  -9  -7  -5 18477.6 813.375   1
   9   7   2 16131.4 833.205   1
  -9  -7  -2 18152.5 767.890   1
   9   7  -1 1770.43 440.841   1
   7 -16  -1 2378.12 520.744   1
   7 -16  -4 7841.88 690.192   1
   9   7  -4 7194.94 503.277   1
   9   7  -7 13011.1 606.320   1
   7 -16  -7 13226.4 844.995   1
  16  -9   7 12734.9 803.956   1
   9   7 -10 7160.87 421.159   1
  16  -9  10 6656.71 668.283   1
   9   7 -13 9565.31 423.565   1
  16  -9  13 9560.45 745.938   1
   9   7 -16 868.602 128.301   1
  16  -9  16 1350.34 527.710   1
  16  -9  19 498.985 477.990   1
  16  -9  22-443.281 530.968   1
  16  -9  25 1659.58 555.872   1
  16  -9  28 402.466 516.421   1
  16  -9  31 1121.42 567.529   1
   8   8  33 877.270 764.945   1
   8   8  30 959.746 649.580   1
   8 -16  30 284.127 317.568   1
   8   8  27 2104.02 704.720   1
   8 -16  27 195.630 320.719   1
   8   8  24 567.542 682.564   1
   8 -16  24 62.0100 320.308   1
   8   8  21 3864.71 703.456   1
   8 -16  21 3766.12 392.877   1
   8   8  18 2025.11 625.343   1
   8 -16  18 993.274 362.200   1
   8   8  15 4413.48 667.320   1
   8   8  12 404.003 571.268   1
  -8  -8  -9 102.308 337.625   1
   8   8   9-225.638 521.108   1
   8   8   6 8296.14 677.536   1
  -8  -8  -6 8842.54 554.981   1
   8   8   3 30037.2 1199.33   1
  -8  -8  -3 30699.8 1125.55   1
   8   8   0 47772.3 1642.49   1
   8   8  -3 9189.00 565.151   1
  -8  -8   3 9312.04 492.315   1
   8 -16  -3 8340.06 709.480   1
  16  -8   3 9829.33 702.715   1
   8   8  -6 4220.67 412.327   1
  16  -8   6 4057.11 572.436   1
   8 -16  -6 4938.30 650.229   1
   8   8  -9 2667.75 327.117   1
  16  -8   9 2511.73 573.520   1
   8   8 -12 3376.28 257.185   1
  16  -8  12 2679.85 554.563   1
  16  -8  15 2664.77 557.368   1
  16  -8  18 3213.79 576.103   1
  16  -8  21 1869.48 559.087   1
  16  -8  24-306.520 511.017   1
  16  -8  27 265.318 528.612   1
  16  -8  30 954.419 576.031   1
  16  -8  33 1223.28 573.184   1
   7   9  31 2714.94 861.891   1
   9 -16  31 2149.74 393.264   1
   7   9  28 6502.15 920.397   1
   9 -16  28 6845.92 521.026   1
   7   9  25 5156.65 761.788   1
   9 -16  25 3410.87 427.116   1
   7   9  22 3506.58 750.247   1
   9 -16  22 1750.33 404.941   1
   7   9  19 1994.75 675.532   1
   9 -16  19 71.0054 361.347   1
   9 -16  16 1542.93 383.005   1
   7   9  16 1770.06 624.424   1
   7   9  13 4463.12 627.777   1
   7   9  10 9314.80 736.364   1
  -7  -9 -10 8567.99 579.764   1
   7   9   7 2420.10 567.719   1
  -7  -9  -7 2347.90 387.873   1
  -7  -9  -4 2471.32 378.194   1
   7   9   4 2593.90 530.687   1
   7   9   1 25030.0 1033.51   1
  -7  -9   2 11950.4 562.911   1
   7   9  -2 11519.5 627.788   1
  16  -7   2 10958.0 750.767   1
  16  -7   5 11919.1 777.728   1
  -7  -9   5 11872.5 538.634   1
   7   9  -5 13097.7 609.906   1
   7   9  -8 14561.8 606.196   1
  16  -7   8 12934.8 824.422   1
   7   9 -11 6801.64 344.189   1
  16  -7  11 6994.63 659.084   1
  16  -7  14 412.796 522.277   1
  16  -7  17 683.442 513.912   1
  16  -7  20 3173.60 592.185   1
  16  -7  23 6423.64 705.021   1
  16  -7  26 2560.15 606.591   1
  16  -7  29 1471.92 591.535   1
  16  -7  32 346.804 546.083   1
  10 -16  32 1093.32 370.840   1
   6  10  32 1329.52 821.791   1
  10 -16  29 4581.51 480.549   1
   6  10  29 5078.51 908.702   1
   6  10  26 4612.36 844.699   1
  10 -16  26 4878.66 487.645   1
   6  10  23 7989.40 970.377   1
  10 -16  23 6929.13 542.913   1
   6  10  20 5807.53 839.565   1
  10 -16  20 4537.57 470.793   1
   6  10  17 5331.69 729.714   1
  10 -16  17 2672.48 440.339   1
   6  10  14 1591.63 644.832   1
   6  10  11 1258.42 556.177   1
  -6 -10 -11 226.011 365.815   1
   6  10   8 1066.39 526.077   1
  -6 -10  -8 993.419 335.590   1
   6  10   5 1842.33 498.157   1
  -6 -10  -5 1003.20 340.234   1
   6  10   2 1106.05 468.603   1
   6  10  -1 3808.97 490.308   1
  16  -6   1 3718.82 531.220   1
  -6 -10   1 3559.93 359.809   1
  16  -6   4 1542.54 509.684   1
  -6 -10   4 1475.22 270.137   1
   6  10  -4 2099.77 425.941   1
  -6 -10   7 12962.5 517.008   1
   6  10  -7 13076.1 586.900   1
  16  -6   7 11654.8 777.946   1
   6  10 -10 13174.0 505.350   1
  16  -6  10 13147.6 814.480   1
  16  -6  13 12360.9 820.732   1
  16  -6  16 5829.29 641.555   1
  16  -6  19 4409.93 628.363   1
  16  -6  22 296.889 516.919   1
  16  -6  25-41.4454 555.793   1
  16  -6  28 466.743 576.069   1
  16  -6  31 19.5497 573.049   1
   5  11  33 2288.14 842.487   1
  11 -16  33 1826.97 457.944   1
  11 -16  30-227.893 388.858   1
   5  11  30-419.228 804.007   1
  11 -16  27-158.667 415.041   1
   5  11  27 448.446 803.470   1
  11 -16  24 348.757 381.119   1
   5  11  24 321.976 790.241   1
  11 -16  21 2302.99 442.365   1
   5  11  21 3690.66 831.861   1
   5  11  18 2457.88 809.938   1
  11 -16  18 1718.95 402.686   1
   5  11  15 5229.85 787.002   1
   5  11  12 9325.88 844.450   1
   5  11   9 564.280 612.735   1
  -5 -11  -9 875.892 362.434   1
   5  11   6 395.318 598.579   1
  -5 -11  -6 60.3247 301.935   1
  -5 -11  -3-89.7611 278.378   1
  16  -5  -3-98.9208 448.057   1
   5  11   3 316.554 519.390   1
  16  -5   0 11846.6 738.279   1
   5  11   0 12223.6 718.292   1
  16  -5   3 623.159 461.546   1
   5  11  -3 996.830 418.329   1
  -5 -11   3 587.058 248.782   1
  16  -5   6 1599.49 508.587   1
   5  11  -6 1349.02 368.950   1
  -5 -11   6 1483.50 247.997   1
  16  -5   9 2457.48 537.771   1
  16  -5  12 3063.46 553.909   1
  16  -5  15 4260.30 603.779   1
  16  -5  18 3496.88 603.977   1
  16  -5  21 3925.09 638.926   1
  16  -5  24-163.629 550.153   1
  16  -5  27-66.3294 558.179   1
  16  -5  30 135.718 555.545   1
  16  -5  33 188.391 608.639   1
  12 -16  31 435.323 418.638   1
   4  12  31 1075.41 802.429   1
  12 -16  28-338.332 413.729   1
   4  12  28 485.014 787.190   1
   4  12  25 59.5587 771.745   1
  12 -16  25-383.281 407.825   1
  12 -16  22 342.996 420.943   1
   4  12  22 56.3361 728.997   1
  12 -16  19 2000.67 475.143   1
   4  12  19 2129.45 802.542   1
   4  12  16 17441.8 1113.24   1
  12 -16  16 16809.1 835.012   1
   4  12  13 13194.3 980.160   1
  -4 -12 -10 5463.11 472.238   1
   4  12  10 5995.92 764.866   1
  -4 -12  -7 3185.01 407.582   1
   4  12   7 2955.94 668.513   1
  16  -4  -4 354.667 409.112   1
  -4 -12  -4 340.305 301.423   1
   4  12   4 516.794 524.880   1
   4  12   1 4541.58 560.887   1
  16  -4  -1 4135.40 523.966   1
  16  -4   2 2588.38 500.452   1
  -4 -12   2 2757.39 318.336   1
   4  12  -2 3438.17 470.622   1
  16  -4   5 2161.97 508.656   1
  -4 -12   5 1738.65 270.529   1
  16  -4   8 3131.64 562.199   1
  -4 -12   8 3031.42 248.221   1
  16  -4  11 678.014 509.375   1
  16  -4  14 887.221 524.784   1
  16  -4  17 1605.99 544.773   1
  16  -4  20 15457.2 949.371   1
  16  -4  23 4084.45 650.510   1
  16  -4  26 4571.53 679.239   1
  16  -4  29 2151.14 627.251   1
  16  -4  32-95.8125 566.666   1
  13 -16  32 328.495 445.022   1
   3  13  32-123.022 821.237   1
  13 -16  29-563.962 440.185   1
   3  13  29 1132.80 800.241   1
  13 -16  26-57.7905 429.662   1
   3  13  26-796.872 840.893   1
  13 -16  23 5295.13 573.124   1
   3  13  23 5477.64 861.385   1
  13 -16  20 2377.76 466.461   1
   3  13  20 3557.94 855.053   1
  13 -16  17 358.675 434.888   1
   3  13  17 492.193 745.442   1
   3  13  14 3800.19 788.532   1
   3  13  11 10614.5 837.309   1
  -3 -13  -8 17518.8 836.419   1
   3  13   8 18093.8 1005.70   1
  16  -3  -8 18078.0 855.083   1
  16  -3  -5 8460.87 628.319   1
  -3 -13  -5 8166.37 541.489   1
   3  13   5 8931.53 731.278   1
  16  -3  -2 48.9677 462.170   1
   3  13   2 332.738 525.374   1
  -3 -13  -2 386.080 272.306   1
  16  -3   1 129.286 458.218   1
  -3 -13   4 411.290 245.722   1
  16  -3   4 338.853 466.534   1
  16  -3   7 4413.27 552.391   1
  -3 -13   7 4291.57 300.187   1
  -3 -13  10 863.349 140.852   1
  16  -3  10 1334.98 505.982   1
  16  -3  13 445.126 548.569   1
  16  -3  16 359.347 528.475   1
  16  -3  19 179.611 544.116   1
  16  -3  22 243.709 561.138   1
  16  -3  25-488.335 577.995   1
  16  -3  28 3851.51 657.315   1
  16  -3  31 2440.61 656.249   1
  14 -16  30 732.125 480.319   1
   2  14  30 2090.26 843.707   1
  14 -16  27 431.499 467.908   1
   2  14  27 741.334 776.943   1
  14 -16  24-96.8514 450.308   1
   2  14  24 105.680 826.414   1
   2  14  21-59.0349 743.927   1
  14 -16  21 597.064 447.194   1
  14 -16  18-86.6282 443.693   1
   2  14  18-81.9307 724.568   1
  14 -16  15-99.4046 441.550   1
   2  14  15-18.3328 750.101   1
  16  -2 -12 238.994 414.762   1
   2  14  12 1403.01 686.621   1
  16  -2  -9 1117.79 388.664   1
   2  14   9 574.809 687.344   1
  -2 -14  -9 445.033 374.501   1
  16  -2  -6 26.8034 409.953   1
   2  14   6-346.273 632.198   1
  -2 -14  -6-446.746 330.590   1
  16  -2  -3 1321.80 442.656   1
  -2 -14  -3 1963.68 338.325   1
  16  -2   0 4185.60 507.991   1
  16  -2   3 3461.26 553.956   1
  -2 -14   3 3875.81 350.016   1
  16  -2   6 17803.8 908.181   1
  -2 -14   6 17354.8 674.265   1
  16  -2   9 6371.30 641.465   1
  -2 -14   9 5646.75 300.731   1
  16  -2  12 93.7250 489.906   1
  16  -2  15 2241.28 566.500   1
  16  -2  18 1830.88 561.938   1
  16  -2  21 978.955 578.115   1
  16  -2  24 1439.51 619.892   1
  16  -2  27 17.9992 593.475   1
  16  -2  30-358.338 617.441   1
  15 -16  28 2120.51 518.023   1
   1  15  28 707.212 787.035   1
  15 -16  25 2396.18 520.619   1
   1  15  25 2069.61 802.674   1
  15 -16  22 490.495 471.666   1
   1  15  22 4.22803 780.565   1
  15 -16  19 298.296 444.969   1
   1  15  19 844.396 733.472   1
  16  -1 -16 1715.60 408.571   1
  15 -16  16 1602.27 469.874   1
   1  15  16 1335.89 756.296   1
  16  -1 -13 1340.65 401.511   1
   1  15  13 1176.67 708.171   1
  16  -1 -10 6904.84 564.981   1
   1  15  10 6020.06 805.597   1
  -1 -15  -7 6335.86 539.701   1
  16  -1  -7 6832.05 573.392   1
  -1 -15  -4 2109.25 401.477   1
  16  -1  -4 2620.53 456.268   1
  16  -1  -1-1.68747 432.027   1
  -1 -15  -1-468.603 328.120   1
  16  -1   2 8168.25 614.759   1
  16  -1   5 8297.39 681.046   1
  -1 -15   5 8142.66 450.487   1
  -1 -15   8 4546.23 316.037   1
  16  -1   8 5280.26 602.950   1
  16  -1  11 1085.12 517.434   1
  -1 -15  11 325.691 137.188   1
  16  -1  14-427.136 517.895   1
  16  -1  17 1276.89 577.499   1
  16  -1  20 2183.31 603.256   1
  16  -1  23 3687.98 671.385   1
  16  -1  26 2400.57 645.540   1
  16  -1  29-4.54607 639.457   1
  16 -16  29 328.048 501.064   1
   0  16  26 675.081 786.281   1
  16 -16  26 2171.42 525.502   1
  16 -16  23 4390.26 614.283   1
   0  16  23 3508.70 832.900   1
  16   0 -23 4703.69 417.456   1
  16 -16  20 5824.45 661.638   1
  16   0 -20 5949.12 484.243   1
  16 -16  17 5862.37 628.349   1
  16   0 -17 5253.94 471.398   1
  16 -16  14 1269.42 519.466   1
  16   0 -14 652.262 366.802   1
  16   0 -11 832.644 380.800   1
  16   0  -8 3067.70 469.301   1
  16   0  -5 1302.75 437.271   1
   0 -16  -5 1357.56 413.986   1
  16   0  -2 2827.97 493.752   1
   0 -16  -2 2120.93 408.957   1
   0 -16   1-460.280 343.934   1
  16   0   1-387.390 462.123   1
  16   0   4 1962.80 505.625   1
   0 -16   7 9054.29 465.141   1
  16   0   7 9625.58 728.700   1
   0 -16  10 6628.16 342.524   1
  16   0  10 7121.06 666.755   1
  16   0  13 4177.93 603.687   1
  16   0  16 6049.49 680.975   1
  16   0  19 1437.66 573.859   1
  16   0  22-14.3996 553.052   1
  16   0  25 318.758 576.527   1
  16   0  28 12.2622 663.201   1
  16   1  27 380.888 626.271   1
  16   1  24-458.885 638.365   1
  16   1  21 1067.97 568.452   1
  16   1  18 2542.08 629.647   1
  16   1  15 5482.41 668.092   1
  16   1  12 2942.58 574.235   1
   1 -17  12 1790.45 200.224   1
  16   1   9 1159.03 507.040   1
   1 -17   9 569.872 263.884   1
  16   1   6-115.704 500.069   1
   1 -17   6-312.144 293.265   1
  16   1   3 1997.68 510.488   1
  16   1   0 5948.32 571.534   1
   1 -17   0 4079.69 444.664   1
  16   1  -3 11089.2 683.236   1
   1 -17  -3 10418.6 650.088   1
  16   1  -6 2454.32 424.260   1
  16   1  -9 318.926 371.023   1
  16   1 -12 4058.09 456.736   1
  17 -16  12 4820.18 644.682   1
  17 -16  15 3554.28 592.672   1
  16   1 -15 2580.29 411.999   1
  16   1 -18 6994.23 509.416   1
  17 -16  18 7127.47 694.760   1
  16   1 -21 2347.14 378.225   1
  17 -16  21 3149.03 559.288   1
  17 -16  24 329.381 473.427   1
  17 -16  27 1.25587 479.837   1
  15   2  28 2809.57 694.796   1
  15   2  25 179.380 650.895   1
  15   2  22-757.600 658.916   1
  15   2  19 1766.99 583.247   1
   2 -17  16 1252.26 105.215   1
   2 -17  16 1155.52 104.478   1
   2 -17  13 6085.30 351.417   1
  15   2  13 8721.98 743.059   1
   2 -17  10 9153.80 490.544   1
  15   2  10 11228.0 757.463   1
  15   2   7 4033.07 548.027   1
   2 -17   7 3406.55 380.688   1
  15   2   4-206.582 464.998   1
   2 -17   1-116.722 369.297   1
  15   2   1 34.0811 447.404   1
   2 -17  -2 362.779 364.651   1
  15   2  -2 796.275 431.545   1
   2 -17  -5 3956.80 522.057   1
  15   2  -5 3004.02 432.179   1
  15   2  -8-36.6349 365.839   1
  17 -15  11 8.82334 492.246   1
  15   2 -11-129.699 348.287   1
  15   2 -14 248.887 334.415   1
  17 -15  14-151.261 492.625   1
  17 -15  17-25.0289 494.616   1
  15   2 -17 95.7139 306.236   1
  17 -15  20 808.920 498.679   1
  15   2 -20 876.356 312.964   1
  15   2 -23 2394.89 323.544   1
  17 -15  23 2286.75 546.809   1
  17 -15  26 2561.29 602.523   1
  17 -15  29-355.080 521.704   1
  14   3  29-219.553 654.913   1
  14   3  26-314.720 658.615   1
  14   3  23 2309.74 688.703   1
  14   3  20 84.9956 608.518   1
   3 -17  17 110.318 148.065   1
   3 -17  17 116.092 120.516   1
  14   3  17-187.570 566.487   1
   3 -17  14 1211.33 259.466   1
  14   3  14 1035.76 532.848   1
   3 -17  11 3744.17 370.390   1
  14   3  11 4684.41 631.072   1
  14   3   8 2147.08 502.868   1
   3 -17   8 2873.73 377.158   1
  14   3   5 2557.16 520.688   1
  14   3   2 11568.9 724.553   1
   3 -17   2 11607.7 646.402   1
   3 -17  -1 4301.69 473.192   1
  14   3  -1 3366.63 475.889   1
   3 -17  -4 130.367 399.917   1
  14   3  -4-122.382 385.869   1
  14   3  -7 1037.55 376.984   1
  14   3 -10-165.670 332.043   1
  17 -14  10 25.9747 486.574   1
  17 -14  13 1092.49 515.735   1
  14   3 -13 1040.49 342.087   1
  14   3 -16 3648.81 360.435   1
  17 -14  16 3732.94 582.182   1
  14   3 -19 2358.56 305.363   1
  17 -14  19 1718.52 535.156   1
  17 -14  22 1.16624 482.800   1
  14   3 -22-149.892 251.688   1
  17 -14  25 509.149 533.153   1
  17 -14  28 331.237 518.805   1
  13   4  30-52.3036 674.165   1
  13   4  27-411.789 689.601   1
  13   4  24 1155.40 664.244   1
   4 -17  21 182.178 98.2752   1
  13   4  21 641.051 632.524   1
   4 -17  18 3442.48 238.389   1
  13   4  18 4078.39 687.149   1
   4 -17  18 3591.28 296.499   1
   4 -17  15 6093.58 422.979   1
  13   4  15 5686.21 701.736   1
  13   4  12-330.499 543.108   1
   4 -17  12 284.965 364.190   1
  13   4   9-69.5702 461.510   1
   4 -17   9 796.979 414.735   1
  13   4   6-36.6247 461.114   1
  13   4   3 9625.18 668.921   1
   4 -17   3 8626.08 623.424   1
   4 -17   0 3828.86 537.795   1
  13   4   0 4673.84 497.409   1
  13   4  -3 4588.30 489.298   1
   4 -17  -3 5007.82 528.899   1
   4 -17  -6 3484.29 516.485   1
  13   4  -6 2399.81 407.528   1
  13   4  -9 351.855 342.516   1
  17 -13   9-30.8077 501.803   1
  17 -13  12 381.409 483.031   1
  13   4 -12 387.415 311.194   1
  17 -13  15 3452.63 581.060   1
  13   4 -15 3671.27 343.857   1
  13   4 -18 7870.94 429.131   1
  17 -13  18 8172.95 721.265   1
  17 -13  21 2335.04 570.717   1
  13   4 -21 1699.27 249.912   1
  17 -13  24 318.009 540.986   1
  17 -13  27 171.926 512.967   1
  17 -13  30-63.0279 539.435   1
  12   5  31 3834.35 782.445   1
  12   5  28 6192.59 838.351   1
  12   5  25 1150.28 701.012   1
   5 -17  22-172.393 162.581   1
  12   5  22-830.084 644.239   1
   5 -17  19 2462.99 253.517   1
  12   5  19 1713.41 642.709   1
   5 -17  19 2277.56 342.992   1
  12   5  16 1769.26 626.862   1
   5 -17  16 2134.31 386.068   1
  12   5  13-132.110 595.150   1
   5 -17  13 322.252 385.434   1
  12   5  10 2326.57 582.675   1
  12   5   7 8553.77 674.191   1
 -12  -5  -4 226.300 360.768   1
  12   5   4 33.8029 422.405   1
   5 -17   4-32.6283 464.380   1
  12   5   1 802.595 401.782   1
   5 -17   1 1489.00 500.679   1
  12   5  -2 6085.40 518.727   1
   5 -17  -2 6010.90 602.011   1
  12   5  -5 25311.2 965.286   1
   5 -17  -5 21793.5 1064.44   1
  12   5  -8 19511.1 791.169   1
  17 -12   8 15730.3 964.086   1
  17 -12  11 13550.6 853.575   1
  12   5 -11 14273.7 638.760   1
  12   5 -14 1215.46 270.980   1
  17 -12  14 1469.01 517.577   1
  12   5 -17 4221.09 317.733   1
  17 -12  17 4293.55 593.531   1
  17 -12  20 7249.39 707.504   1
  12   5 -20 5610.72 312.994   1
  17 -12  23 6340.05 672.636   1
  17 -12  26 7457.94 702.866   1
  17 -12  29 730.794 571.237   1
  11   6  29 566.331 679.594   1
  11   6  26 1062.63 667.582   1
  11   6  23 2179.47 690.611   1
   6 -17  23 2341.56 270.405   1
   6 -17  20 1070.58 254.171   1
  11   6  20 635.437 641.436   1
   6 -17  17 29.6942 262.699   1
  11   6  17-375.368 628.009   1
  11   6  14-294.735 582.757   1
  11   6  11 4301.42 634.479   1
  11   6   8 29458.1 1237.71   1
  11   6   5 12691.1 772.014   1
 -11  -6  -5 13356.4 701.328   1
   6 -17   5 14034.4 779.408   1
  11   6   2 13013.6 736.513   1
   6 -17   2 13029.1 789.266   1
 -11  -6  -2 14706.4 701.450   1
  11   6  -1 2843.12 443.673   1
   6 -17  -1 3475.16 558.236   1
  11   6  -4 827.717 365.939   1
   6 -17  -4 506.370 561.696   1
  17 -11   7 1734.65 551.601   1
  11   6  -7 1217.67 353.265   1
  11   6 -10 15199.5 669.137   1
  17 -11  10 17393.1 939.630   1
  17 -11  13 9980.85 780.010   1
  11   6 -13 10848.8 495.103   1
  17 -11  16 2970.49 559.635   1
  11   6 -16 2439.65 247.827   1
  17 -11  19 301.165 518.782   1
  11   6 -19 35.4020 145.360   1
  17 -11  22 12.8075 517.749   1
  17 -11  25 1908.69 569.844   1
  17 -11  28 1626.68 551.702   1
  17 -11  31 565.312 543.475   1
  10   7  30-174.962 674.032   1
  10   7  27 1292.84 727.498   1
  10   7  24 1874.81 719.572   1
   7 -17  24 1256.24 293.633   1
   7 -17  21-18.1332 265.240   1
  10   7  21 212.300 675.464   1
  10   7  18 1169.61 645.022   1
   7 -17  18 1063.74 287.968   1
  10   7  15 7278.91 740.401   1
  10   7  12 1148.54 588.650   1
  10   7   9 271.530 571.994   1
 -10  -7  -6 2439.90 395.675   1
  10   7   6 2483.33 558.582   1
  10   7   3 3573.52 521.256   1
 -10  -7  -3 3810.35 431.807   1
  10   7   0-92.6662 442.368   1
   7 -17   0 348.610 551.732   1
 -10  -7   0 189.458 315.050   1
  10   7  -3 2284.65 427.374   1
   7 -17  -3 2021.66 593.297   1
  10   7  -6-170.048 352.852   1
  17 -10   6-232.554 528.010   1
  17 -10   9 1550.53 553.028   1
  10   7  -9 1711.06 346.410   1
  17 -10  12 1793.05 548.713   1
  10   7 -12 2042.39 296.599   1
  10   7 -15 1476.31 219.461   1
  17 -10  15 1549.92 555.710   1
  17 -10  18 2536.08 547.643   1
  17 -10  21 255.879 540.454   1
  17 -10  24-614.224 512.376   1
  17 -10  27 398.471 539.978   1
  17 -10  30 647.570 570.986   1
   9   8  31 2729.81 752.726   1
   8 -17  28 380.455 318.274   1
   9   8  28 2567.28 714.753   1
   9   8  25 976.526 662.044   1
   8 -17  25 874.089 321.604   1
   8 -17  22 1220.70 325.026   1
   9   8  22 1008.38 667.715   1
   9   8  19 983.598 667.667   1
   8 -17  19 1030.29 337.954   1
   9   8  16-313.951 581.268   1
   9   8  13 1112.47 590.308   1
   9   8  10 1578.87 609.598   1
   9   8   7-133.827 547.492   1
  -9  -8  -7-148.867 361.120   1
   9   8   4 1241.39 517.402   1
  -9  -8  -4 1380.37 353.540   1
   9   8   1 2186.34 487.322   1
  -9  -8  -1 2476.95 371.894   1
   9   8  -2 3786.50 458.624   1
   8 -17  -2 2894.65 596.290   1
   9   8  -5 10311.1 589.754   1
  17  -9   5 9555.54 766.537   1
   9   8  -8 18954.7 743.946   1
  17  -9   8 15223.6 938.049   1
  17  -9  11 6795.20 695.885   1
   9   8 -11 7279.04 401.371   1
  17  -9  14 2591.61 560.056   1
   9   8 -14 3444.90 222.632   1
  17  -9  17 240.283 530.864   1
  17  -9  20-9.05252 518.380   1
  17  -9  23 141.110 513.667   1
  17  -9  26 395.900 540.133   1
  17  -9  29-1.35549 554.047   1
  17  -9  32 71.1037 568.812   1
   8   9  32 1199.74 803.500   1
   9 -17  29 1574.59 373.112   1
   8   9  29 1518.72 756.536   1
   8   9  26 4785.81 799.624   1
   9 -17  26 3812.44 429.582   1
   9 -17  23 2621.56 399.615   1
   8   9  23 3686.47 712.188   1
   9 -17  20 6925.42 525.282   1
   8   9  20 7738.00 834.608   1
   8   9  17 477.842 666.903   1
   9 -17  17-8.42530 362.716   1
   8   9  14 359.423 553.543   1
   8   9  11 1929.58 584.799   1
  -8  -9  -8 6984.66 538.400   1
   8   9   8 5997.93 683.219   1
  -8  -9  -5 2470.98 399.640   1
   8   9   5 2623.58 514.226   1
  -8  -9  -2 6258.40 457.010   1
   8   9   2 5544.94 574.507   1
   8   9  -1-10.9632 406.523   1
  -8  -9   4 7633.57 438.329   1
  17  -8   4 6644.38 670.542   1
   8   9  -4 7244.37 521.174   1
  17  -8   7 4041.26 624.270   1
   8   9  -7 5172.64 422.946   1
  17  -8  10 6177.30 703.591   1
   8   9 -10 6916.50 404.973   1
  17  -8  13 9661.10 735.735   1
   8   9 -13 8031.81 325.014   1
  17  -8  16 3667.59 598.723   1
  17  -8  19 173.781 533.429   1
  17  -8  22 560.379 564.946   1
  17  -8  25 1612.57 570.740   1
  17  -8  28 1511.60 569.299   1
  17  -8  31 627.198 559.521   1
   7  10  30-158.779 823.599   1
  10 -17  30 200.607 328.892   1
   7  10  27-59.6517 794.175   1
  10 -17  27 281.634 346.456   1
   7  10  24 297.296 756.804   1
  10 -17  24 471.659 347.620   1
   7  10  21 4904.53 796.660   1
  10 -17  21 3777.51 463.905   1
   7  10  18 4198.28 744.957   1
  10 -17  18 2703.81 417.190   1
   7  10  15 4712.71 706.314   1
   7  10  12 1362.10 605.932   1
   7  10   9 3276.37 617.388   1
  -7 -10  -9 3359.29 428.910   1
   7  10   6 646.312 500.368   1
  -7 -10  -6-105.384 314.987   1
  -7 -10  -3 4330.55 408.344   1
   7  10   3 4589.43 576.569   1
  17  -7   0 4286.87 586.057   1
   7  10   0 5894.78 527.522   1
   7  10  -3 683.041 403.861   1
  -7 -10   3 69.1015 270.743   1
  17  -7   3-76.8995 501.400   1
  -7 -10   6-150.910 237.865   1
  17  -7   6 166.018 513.623   1
   7  10  -6 250.846 389.380   1
  17  -7   9 2884.72 589.778   1
   7  10  -9 2504.13 348.006   1
  17  -7  12 4017.51 607.367   1
  17  -7  15 6171.75 663.736   1
  17  -7  18 6903.96 702.536   1
  17  -7  21 5029.11 651.859   1
  17  -7  24 1986.80 598.884   1
  17  -7  27 76.9124 540.286   1
  17  -7  30 390.695 581.786   1
  11 -17  31 343.277 396.090   1
   6  11  31 1371.46 812.843   1
  11 -17  28 682.455 385.237   1
   6  11  28 1022.16 832.949   1
  11 -17  25 1325.22 390.457   1
   6  11  25 2789.09 850.507   1
   6  11  22 2518.29 819.298   1
  11 -17  22 2814.89 439.090   1
   6  11  19 1197.06 791.002   1
  11 -17  19 1574.84 426.560   1
   6  11  16 91.3806 719.184   1
  11 -17  16 110.473 367.569   1
   6  11  13 2445.33 718.491   1
   6  11  10 680.533 616.464   1
   6  11   7 12812.3 866.713   1
  -6 -11  -7 13409.9 682.015   1
   6  11   4 7648.19 715.005   1
  -6 -11  -4 8818.11 535.627   1
  17  -6  -1 65.4579 497.917   1
   6  11   1 186.922 507.955   1
  17  -6   2 135.641 495.996   1
  -6 -11   2-10.4814 261.832   1
   6  11  -2 4.85153 455.335   1
   6  11  -5 9546.26 583.663   1
  -6 -11   5 10835.8 495.452   1
  17  -6   5 9922.12 735.096   1
   6  11  -8 19877.7 751.166   1
  17  -6   8 19164.2 989.233   1
  17  -6  11 2942.03 566.866   1
  17  -6  14 599.086 513.131   1
  17  -6  17-193.882 550.621   1
  17  -6  20 646.827 573.502   1
  17  -6  23-90.6156 556.139   1
  17  -6  26-462.781 570.900   1
  17  -6  29 270.305 552.731   1
  12 -17  29 521.060 398.642   1
   5  12  29 929.560 788.358   1
  12 -17  26 558.241 429.044   1
   5  12  26 2054.40 814.464   1
  12 -17  23 1188.74 425.136   1
   5  12  23 2535.03 809.085   1
   5  12  20 4870.39 842.639   1
  12 -17  20 6407.26 557.477   1
  12 -17  17 1425.49 436.866   1
   5  12  17 2021.97 766.765   1
   5  12  14 374.156 740.262   1
   5  12  11 183.279 688.045   1
  -5 -12  -8 3831.03 439.415   1
   5  12   8 2776.68 667.115   1
   5  12   5 10217.6 779.429   1
  -5 -12  -5 10138.9 597.937   1
  17  -5  -5 10245.4 715.728   1
  17  -5  -2 7866.80 674.659   1
   5  12   2 7927.99 668.582   1
  -5 -12  -2 8865.55 519.882   1
   5  12  -1 1458.46 481.960   1
  17  -5   1 1708.53 541.730   1
  -5 -12   4 1819.29 294.347   1
  17  -5   4 1780.16 529.037   1
   5  12  -4 2336.39 437.672   1
  17  -5   7 3696.12 576.177   1
  -5 -12   7 3721.75 297.718   1
  17  -5  10 2806.31 559.723   1
  17  -5  13 4374.73 614.423   1
  17  -5  16 1156.70 545.034   1
  17  -5  19 225.370 548.401   1
  17  -5  22 204.601 559.321   1
  17  -5  25 739.938 562.272   1
  17  -5  28 1333.26 623.055   1
  17  -5  31 1820.77 599.116   1
  13 -17  30 329.897 407.264   1
   4  13  30-208.360 798.604   1
  13 -17  27 136.290 412.275   1
   4  13  27-197.451 785.285   1
  13 -17  24 2101.37 464.920   1
   4  13  24 2272.40 841.707   1
  13 -17  21 6073.23 596.550   1
   4  13  21 6255.62 865.901   1
  13 -17  18 9157.20 663.120   1
   4  13  18 10059.8 960.367   1
   4  13  15 10846.7 957.645   1
   4  13  12 2462.32 725.620   1
   4  13   9 1004.47 679.209   1
  17  -4  -6 890.591 431.756   1
  -4 -13  -6 1367.22 346.978   1
   4  13   6 1389.33 610.968   1
  17  -4  -3 621.099 450.382   1
  -4 -13  -3 1456.23 327.018   1
   4  13   3 1495.64 573.056   1
  17  -4   0 5595.99 628.757   1
   4  13   0 5622.13 594.803   1
  -4 -13   3 332.926 269.342   1
  17  -4   3 589.418 477.698   1
  -4 -13   6 321.089 232.455   1
  17  -4   6-109.111 472.176   1
  17  -4   9 543.322 486.446   1
  -4 -13   9 395.488 161.589   1
  17  -4  12 1497.75 549.895   1
  17  -4  15-346.118 530.697   1
  17  -4  18 2412.10 597.080   1
  17  -4  21 4147.90 649.272   1
  17  -4  24 3530.14 659.819   1
  17  -4  27-40.6386 574.281   1
  17  -4  30 356.535 585.898   1
  14 -17  28 451.475 431.557   1
   3  14  28 597.444 799.378   1
  14 -17  25 49.7799 443.526   1
   3  14  25 746.278 795.745   1
  14 -17  22 56.0529 465.819   1
   3  14  22 1274.87 834.995   1
  14 -17  19 757.170 446.645   1
   3  14  19 716.425 770.131   1
  14 -17  16 4023.56 501.900   1
   3  14  16 2919.84 793.299   1
   3  14  13 12948.4 956.314   1
   3  14  10 9810.05 849.180   1
  17  -3 -10 11316.1 709.828   1
  17  -3  -7 3383.60 522.397   1
   3  14   7 4068.07 703.867   1
  -3 -14  -7 4214.45 458.762   1
  17  -3  -4 1359.05 459.526   1
   3  14   4 2195.71 623.227   1
  -3 -14  -4 1863.35 349.965   1
  -3 -14  -1 706.642 309.946   1
  17  -3  -1 761.517 445.731   1
  17  -3   2-60.7115 468.097   1
  17  -3   5 6609.78 634.204   1
  -3 -14   5 7008.78 409.263   1
  -3 -14   8 4631.29 300.348   1
  17  -3   8 4919.28 602.154   1
  -3 -14  11 50.4235 80.1055   1
  17  -3  11-526.704 523.521   1
  17  -3  14 363.314 539.286   1
  17  -3  17 1119.78 549.726   1
  17  -3  20 1262.32 581.793   1
  17  -3  23 5474.91 714.191   1
  17  -3  26 1685.76 611.773   1
  17  -3  29-617.564 599.831   1
  15 -17  29 339.337 463.082   1
   2  15  29 2039.84 845.446   1
   2  15  26 754.563 787.936   1
  15 -17  26 1331.24 478.614   1
  15 -17  23 2084.77 528.688   1
   2  15  23 1304.83 785.121   1
  15 -17  20 485.902 474.702   1
   2  15  20 363.809 740.265   1
  15 -17  17 369.474 462.851   1
   2  15  17 413.459 706.358   1
  17  -2 -14 3276.74 471.105   1
  15 -17  14 4015.83 523.692   1
   2  15  14 3197.50 778.737   1
  17  -2 -11 6556.17 568.088   1
   2  15  11 7390.54 798.759   1
  17  -2  -8 7044.49 594.327   1
   2  15   8 6580.97 785.745   1
  -2 -15  -5 15799.3 757.137   1
  17  -2  -5 16262.3 838.432   1
  -2 -15  -2 7275.89 495.884   1
  17  -2  -2 6960.80 620.834   1
  17  -2   1 2107.98 499.275   1
  -2 -15   4-10.2228 262.554   1
  17  -2   4 358.774 451.540   1
  -2 -15   7 467.578 230.571   1
  17  -2   7 403.950 522.010   1
  -2 -15  10 726.712 164.466   1
  17  -2  10 1345.85 528.609   1
  17  -2  13 1359.17 537.557   1
  17  -2  16 725.433 546.458   1
  17  -2  19 1200.24 582.504   1
  17  -2  22-162.471 601.996   1
  17  -2  25 1319.85 626.843   1
  17  -2  28 502.679 581.976   1
   1  16  27-185.614 815.126   1
  16 -17  27-902.961 488.092   1
  16 -17  24 205.732 492.345   1
   1  16  24 196.574 822.105   1
  17  -1 -21 1884.98 378.215   1
   1  16  21 1013.01 805.611   1
  16 -17  21 1627.83 512.129   1
  16 -17  18 4188.47 621.794   1
   1  16  18 3627.55 801.948   1
  17  -1 -18 4110.44 455.679   1
  17  -1 -15 3823.20 471.678   1
  16 -17  15 4664.21 593.271   1
   1  16  15 4643.94 863.729   1
  17  -1 -12 220.693 394.410   1
  17  -1  -9 897.844 406.950   1
  -1 -16  -6-157.288 365.865   1
  17  -1  -6 22.5163 397.688   1
  17  -1  -3 726.513 422.396   1
  -1 -16  -3 680.874 337.600   1
  17  -1   0 3501.93 511.284   1
  -1 -16   0 3257.13 384.739   1
  17  -1   3 4360.91 583.046   1
  17  -1   6-195.972 513.967   1
  -1 -16   6 101.990 250.575   1
  -1 -16   9 46.7933 201.271   1
  17  -1   9-301.993 546.128   1
  -1 -16  12 472.593 103.079   1
  17  -1  12 937.878 521.398   1
  17  -1  15 4058.42 639.081   1
  17  -1  18 10741.6 818.261   1
  17  -1  21 4833.64 681.140   1
  17  -1  24-261.933 529.249   1
  17  -1  27-375.602 611.724   1
  17 -17  25 186.972 516.686   1
  17   0 -22 378.088 334.986   1
  17 -17  22 673.724 513.150   1
  17 -17  19 84.7831 498.548   1
  17   0 -19 344.818 352.430   1
  17 -17  16 176.620 487.703   1
  17   0 -16 384.581 352.375   1
  17   0 -13 601.023 386.892   1
  17 -17  13 864.411 496.959   1
  17   0 -10 3079.00 469.370   1
  17   0  -7 381.673 425.367   1
  17   0  -4-106.399 420.197   1
   0 -17  -4 112.096 410.616   1
   0 -17  -1-1.47762 344.094   1
  17   0  -1 969.373 428.949   1
   0 -17   2 3078.44 383.421   1
  17   0   2 4095.96 540.015   1
  17   0   5 1263.14 491.115   1
  17   0   8 58.8650 491.846   1
   0 -17   8 35.0243 218.206   1
   0 -17  11 439.580 169.405   1
  17   0  11 455.987 553.946   1
  17   0  14 1655.93 597.414   1
  17   0  17 5.07026 583.520   1
  17   0  20 2788.06 630.536   1
  17   0  23 989.767 576.946   1
  17   0  26 603.754 610.710   1
  17   1  25-561.964 633.650   1
  17   1  22 508.650 594.282   1
  17   1  19-483.411 559.099   1
  17   1  16 935.748 553.519   1
  17   1  13 1359.47 571.002   1
  17   1  10 1887.57 556.583   1
  17   1   7-138.132 475.010   1
  17   1   4 42.1411 503.905   1
   1 -18   4 212.207 316.217   1
   1 -18   1-199.328 358.064   1
  17   1   1-39.7069 449.709   1
   1 -18  -2 2955.98 456.665   1
  17   1  -2 3533.04 496.550   1
  17   1  -5 4159.73 513.743   1
  17   1  -8 4632.55 499.161   1
  17   1 -11 1407.90 397.966   1
  17   1 -14 257.158 337.145   1
  18 -17  14-13.3944 526.038   1
  18 -17  17-12.3962 552.287   1
  17   1 -17-36.4706 339.618   1
  18 -17  20 843.063 539.075   1
  17   1 -20 233.736 315.081   1
  18 -17  23 765.574 507.616   1
  16   2  26 2353.42 677.807   1
  16   2  23 1006.54 659.606   1
  16   2  20 1437.15 600.246   1
  16   2  17 2258.12 607.570   1
  16   2  14 788.019 545.642   1
   2 -18  11 677.340 269.001   1
  16   2  11 1485.72 524.125   1
  16   2   8 2740.59 557.982   1
   2 -18   8 2178.64 333.841   1
  16   2   5 3601.36 534.779   1
  16   2   2 5174.60 577.182   1
   2 -18   2 3499.23 448.641   1
   2 -18  -1-631.456 373.868   1
  16   2  -1-267.088 438.546   1
  16   2  -4 935.907 429.660   1
  16   2  -7 9493.80 608.744   1
  16   2 -10 11609.5 658.402   1
  16   2 -13 7636.18 537.863   1
  18 -16  13 8024.64 748.735   1
  16   2 -16 3449.21 421.811   1
  18 -16  16 4692.15 620.581   1
  18 -16  19 822.240 514.462   1
  16   2 -19 725.639 324.328   1
  18 -16  22 152.720 488.773   1
  18 -16  25 687.493 506.117   1
  15   3  27-367.891 651.295   1
  15   3  24 1658.70 712.042   1
  15   3  21 3310.33 701.854   1
  15   3  18 9470.32 847.075   1
  15   3  15 9500.34 762.616   1
   3 -18  12 789.577 283.721   1
  15   3  12 1374.85 558.360   1
   3 -18   9 242.134 312.072   1
  15   3   9-239.927 486.179   1
  15   3   6 1004.71 479.941   1
  15   3   3 6404.40 607.923   1
   3 -18   3 5906.95 509.769   1
   3 -18   0 3918.90 473.335   1
  15   3   0 3636.06 486.709   1
   3 -18  -3 395.715 411.499   1
  15   3  -3 583.702 405.793   1
  15   3  -6-227.779 372.303   1
  15   3  -9 2473.91 418.443   1
  18 -15  12 3021.62 582.457   1
  15   3 -12 2912.08 402.649   1
  15   3 -15 4593.38 418.418   1
  18 -15  15 4044.69 624.806   1
  18 -15  18 5228.03 664.857   1
  15   3 -18 5811.93 413.590   1
  15   3 -21 3301.93 325.222   1
  18 -15  21 3832.51 620.853   1
  18 -15  24 2084.78 573.230   1
  18 -15  27 687.030 515.996   1
  14   4  28-335.897 654.535   1
  14   4  25-303.596 688.523   1
  14   4  22-441.975 672.195   1
  14   4  19 411.598 608.403   1
  14   4  16 7517.14 771.283   1
   4 -18  16 5607.92 323.137   1
   4 -18  13 6439.85 441.591   1
  14   4  13 6470.67 692.813   1
  14   4  10 7516.51 664.805   1
   4 -18  10 6896.78 501.338   1
  14   4   7 7600.06 653.161   1
   4 -18   4-26.1179 390.687   1
  14   4   4-75.9966 462.726   1
  14   4   1 333.376 425.951   1
   4 -18   1 313.413 354.250   1
   4 -18  -2 587.509 440.488   1
  14   4  -2-43.1506 374.701   1
  14   4  -5 1218.72 408.334   1
  14   4  -8 121.512 361.704   1
  18 -14  11 208.805 506.478   1
  14   4 -11-19.0933 324.390   1
  14   4 -14 242.594 284.599   1
  18 -14  14 501.252 525.060   1
  18 -14  17 2378.88 610.389   1
  14   4 -17 2809.51 326.848   1
  18 -14  20 1846.97 546.053   1
  14   4 -20 1262.95 269.210   1
  18 -14  23 2952.26 570.282   1
  18 -14  26 1897.19 588.137   1
  13   5  29 3.31946 679.675   1
  13   5  26 551.067 669.025   1
  13   5  23 1768.03 719.989   1
  13   5  20-21.2032 659.474   1
   5 -18  20 417.759 174.462   1
  13   5  17-413.123 609.825   1
   5 -18  17 63.9742 217.941   1
  13   5  14-332.387 582.668   1
   5 -18  14 446.005 378.474   1
  13   5  11 1844.87 557.757   1
  13   5   8 6697.85 616.893   1
  13   5   5 4111.64 527.631   1
   5 -18   5 3869.44 551.222   1
  13   5   2 2321.62 483.418   1
   5 -18   2 2162.47 516.406   1
   5 -18  -1 220.943 485.879   1
  13   5  -1 195.076 384.462   1
  13   5  -4-93.8705 366.765   1
  13   5  -7 385.833 350.095   1
  18 -13  10 3785.25 622.390   1
  13   5 -10 5245.85 438.415   1
  13   5 -13 2191.89 328.342   1
  18 -13  13 2092.18 532.594   1
  18 -13  16 572.884 550.472   1
  13   5 -16 93.5993 248.449   1
  13   5 -19-247.885 218.235   1
  18 -13  19 540.899 521.262   1
  18 -13  22 750.701 540.328   1
  18 -13  25 2027.09 577.523   1
  18 -13  28 20.4128 527.242   1
  12   6  27 611.656 668.292   1
  12   6  24-574.234 688.358   1
  12   6  21-575.321 639.118   1
   6 -18  21 201.123 216.945   1
  12   6  18 3028.13 678.099   1
   6 -18  18 2931.46 311.536   1
   6 -18  18 2664.72 422.794   1
  12   6  15 852.920 597.192   1
   6 -18  15 1110.07 411.539   1
  12   6  12-323.526 556.393   1
  12   6   9 943.541 551.710   1
  12   6   6 6809.52 655.570   1
   6 -18   6 7330.66 638.203   1
 -12  -6  -3 6748.83 515.324   1
  12   6   3 7441.86 607.963   1
   6 -18   3 6609.95 628.505   1
  12   6   0 5820.09 524.733   1
   6 -18   0 6340.51 641.981   1
  12   6  -3 6058.41 498.981   1
   6 -18  -3 4582.48 643.174   1
  12   6  -6 10390.0 590.164   1
  12   6  -9 34.3022 319.387   1
  18 -12   9-40.1227 545.207   1
  18 -12  12 1092.52 524.728   1
  12   6 -12 987.354 295.667   1
  18 -12  15-94.7122 496.997   1
  12   6 -15 161.469 228.324   1
  18 -12  18 1967.80 565.750   1
  12   6 -18 1003.57 203.462   1
  18 -12  21-214.390 537.949   1
  18 -12  24-89.2319 538.511   1
  18 -12  27-196.059 540.944   1
  11   7  28 1173.87 714.945   1
  11   7  25 425.103 709.737   1
  11   7  22 387.608 697.492   1
   7 -18  22 1260.25 287.428   1
   7 -18  19-49.1502 265.631   1
  11   7  19 317.993 650.907   1
  11   7  16 2491.15 658.186   1
  11   7  13 3827.45 644.616   1
  11   7  10 8140.32 756.176   1
  11   7   7-365.429 488.514   1
   7 -18   7-181.289 521.197   1
 -11  -7  -4 152.584 324.557   1
  11   7   4-191.328 505.697   1
   7 -18   4 3.48888 514.322   1
  11   7   1 875.162 469.144   1
 -11  -7  -1 1153.63 350.024   1
   7 -18   1 1176.16 541.402   1
  11   7  -2 2780.91 450.466   1
   7 -18  -2 2721.31 602.760   1
  11   7  -5 7123.46 542.455   1
  18 -11   5 7279.68 716.683   1
  11   7  -8 809.678 359.173   1
  18 -11   8 1053.28 561.488   1
  11   7 -11 1417.97 304.477   1
  18 -11  11 2006.52 597.276   1
  18 -11  14 2502.94 560.766   1
  11   7 -14 2474.16 287.312   1
  11   7 -17-164.199 153.919   1
  18 -11  17-105.290 528.854   1
  18 -11  20 64.8135 504.088   1
  18 -11  23 2433.95 595.713   1
  18 -11  26 1844.52 585.615   1
  18 -11  29 1047.82 593.862   1
  10   8  29 2074.65 710.409   1
  10   8  26 4795.11 782.399   1
   8 -18  23 6780.82 464.514   1
  10   8  23 7838.82 848.945   1
  10   8  20 4827.70 791.668   1
   8 -18  20 4313.31 408.051   1
   8 -18  17 1931.70 353.584   1
  10   8  17 2568.73 668.195   1
  10   8  14 411.855 614.721   1
  10   8  11 107.217 545.877   1
  10   8   8-127.131 545.891   1
 -10  -8  -5 116.953 357.209   1
  10   8   5-426.652 511.053   1
  10   8   2-365.854 459.073   1
   8 -18   2-303.220 524.467   1
 -10  -8  -2 253.287 331.989   1
 -10  -8   1-1.95175 297.959   1
  10   8  -1-241.359 421.877   1
   8 -18  -1-100.500 558.931   1
  18 -10   4-483.575 547.365   1
  10   8  -4-675.761 399.456   1
  10   8  -7 5769.96 477.638   1
  18 -10   7 5949.65 676.854   1
  10   8 -10 11183.8 545.949   1
  18 -10  10 10265.7 801.801   1
  18 -10  13 10920.4 818.027   1
  10   8 -13 11722.4 492.566   1
  18 -10  16 8683.77 692.751   1
  10   8 -16 5039.33 228.148   1
  18 -10  19 6672.17 673.336   1
  18 -10  22 772.192 557.869   1
  18 -10  25 222.348 560.287   1
  18 -10  28 861.305 568.866   1
   9   9  30 901.722 739.909   1
   9   9  27 1208.26 668.759   1
   9 -18  27 33.0932 306.179   1
   9   9  24 2953.69 749.440   1
   9 -18  24 1101.22 343.261   1
   9   9  21 4053.99 750.043   1
   9 -18  21 2249.29 394.212   1
   9   9  18 4149.65 726.179   1
   9 -18  18 3347.23 421.749   1
   9   9  15 3665.34 705.334   1
   9   9  12 1859.25 642.093   1
   9   9   9 1898.16 597.649   1
   9   9   6 4147.93 612.357   1
  -9  -9  -6 4174.82 451.763   1
  -9  -9  -3 1258.25 346.384   1
   9   9   3 1245.87 508.796   1
   9   9   0 195.915 435.863   1
  -9  -9   0 279.764 307.005   1
  18  -9   3 4082.81 631.142   1
   9   9  -3 5503.83 517.522   1
  18  -9   6 4655.78 632.184   1
   9   9  -6 4409.49 450.200   1
   9   9  -9 606.792 320.270   1
  18  -9   9 1161.80 555.700   1
   9   9 -12 1549.53 268.766   1
  18  -9  12 2220.73 584.193   1
  18  -9  15 3288.32 603.399   1
  18  -9  18 3106.02 577.205   1
  18  -9  21 1148.82 560.101   1
  18  -9  24 164.058 587.072   1
  18  -9  27-1283.60 543.276   1
  18  -9  30 840.745 593.652   1
   8  10  28 927.666 802.805   1
  10 -18  28 1241.46 367.556   1
   8  10  25 1406.20 739.141   1
  10 -18  25 398.064 362.470   1
   8  10  22 1446.70 684.860   1
  10 -18  22 411.693 333.655   1
   8  10  19 3140.26 734.451   1
  10 -18  19 1900.99 403.785   1
   8  10  16 8334.72 827.979   1
   8  10  13 7027.03 750.146   1
   8  10  10 1623.13 589.828   1
  -8 -10  -7 2562.33 407.586   1
   8  10   7 2305.71 575.510   1
   8  10   4 262.702 489.263   1
  -8 -10  -4 263.459 320.769   1
   8  10   1 277.398 454.729   1
  -8 -10  -1-25.8785 301.205   1
  18  -8   2 6081.12 659.188   1
   8  10  -2 6327.24 534.438   1
   8  10  -5 3730.26 440.375   1
  -8 -10   5 3089.89 321.915   1
  18  -8   8-443.192 529.293   1
   8  10  -8 237.392 364.046   1
  18  -8  11 10.8714 520.932   1
   8  10 -11 114.905 241.100   1
  18  -8  14-226.194 534.167   1
  18  -8  17 754.019 532.625   1
  18  -8  20 5922.51 679.397   1
  18  -8  23 7216.87 744.388   1
  18  -8  26 2436.53 629.887   1
  18  -8  29 488.125 559.831   1
  11 -18  29 331.365 358.667   1
   7  11  29 895.680 784.454   1
   7  11  26 1639.71 828.344   1
  11 -18  26 1342.41 403.355   1
   7  11  23 963.234 812.655   1
  11 -18  23 1132.25 403.734   1
   7  11  20 661.907 793.430   1
  11 -18  20 726.376 386.671   1
   7  11  17 478.516 732.766   1
  11 -18  17-384.639 374.618   1
   7  11  14 1298.77 663.479   1
   7  11  11 2430.41 672.972   1
   7  11   8 11434.9 829.094   1
  -7 -11  -5 10718.7 606.162   1
   7  11   5 10423.8 764.013   1
   7  11   2 4339.67 601.660   1
  18  -7  -2 4066.22 613.275   1
  -7 -11  -2 4018.50 404.257   1
   7  11  -1-190.583 496.302   1
  18  -7   1-115.603 539.266   1
  -7 -11   4 752.543 283.391   1
  18  -7   4 506.752 522.933   1
   7  11  -4 949.868 443.122   1
   7  11  -7 10349.3 565.188   1
  18  -7   7 9724.15 768.728   1
   7  11 -10 3999.23 312.533   1
  18  -7  10 4095.27 604.295   1
  18  -7  13 905.610 527.929   1
  18  -7  16 1845.20 568.381   1
  18  -7  19 606.396 564.524   1
  18  -7  22 54.6256 557.874   1
  18  -7  25 526.649 567.393   1
  18  -7  28 1050.54 579.757   1
  12 -18  27 505.525 410.810   1
   6  12  27 1686.62 822.464   1
  12 -18  24-17.3832 376.887   1
   6  12  24 42.4240 770.963   1
  12 -18  21 1270.73 421.148   1
   6  12  21 1731.55 772.182   1
  12 -18  18 1482.78 444.386   1
   6  12  18 1954.64 800.458   1
   6  12  15 729.162 703.219   1
   6  12  12 3162.60 716.596   1
   6  12   9 555.308 632.969   1
  -6 -12  -6 2600.34 388.812   1
   6  12   6 2507.50 669.085   1
  -6 -12  -3 10444.8 599.003   1
   6  12   3 11880.0 798.532   1
  18  -6  -3 10735.6 763.350   1
  18  -6   0 6430.36 656.195   1
   6  12   0 7466.77 638.823   1
  18  -6   3 4443.04 590.840   1
   6  12  -3 3889.55 506.115   1
  18  -6   6 351.265 489.677   1
  -6 -12   6 650.645 238.434   1
   6  12  -6 470.524 385.249   1
  18  -6   9 1521.95 552.232   1
  18  -6  12 951.432 534.286   1
  18  -6  15 3877.72 627.156   1
  18  -6  18 1047.96 556.525   1
  18  -6  21 1562.67 615.467   1
  18  -6  24-69.0463 582.989   1
  18  -6  27 256.831 588.366   1
  13 -18  28 2261.60 460.490   1
   5  13  28 2460.65 864.314   1
  13 -18  25 1007.12 445.808   1
   5  13  25 1909.19 840.305   1
  13 -18  22 294.006 426.103   1
   5  13  22 388.656 757.209   1
  13 -18  19 588.989 426.477   1
   5  13  19 966.039 766.214   1
   5  13  16 4056.88 779.489   1
  13 -18  16 5371.26 551.042   1
   5  13  13 4065.16 740.420   1
   5  13  10 3800.73 758.295   1
  -5 -13  -7 3816.48 425.186   1
  18  -5  -7 3755.87 535.687   1
   5  13   7 5204.70 699.210   1
  -5 -13  -4 502.433 268.206   1
  18  -5  -4 937.300 523.759   1
   5  13   4 538.362 583.523   1
  -5 -13  -1-50.6189 308.589   1
  18  -5  -1-65.9987 482.928   1
   5  13   1 681.335 540.677   1
   5  13  -2 7264.24 606.473   1
  18  -5   2 6782.71 672.916   1
  -5 -13   5 7476.60 428.972   1
  18  -5   5 8304.63 692.624   1
  -5 -13   8 5284.40 317.085   1
  18  -5   8 5991.60 632.272   1
  18  -5  11 3722.12 587.425   1
  18  -5  14 459.786 536.358   1
  18  -5  17 42.9929 544.700   1
  18  -5  20 1950.51 606.022   1
  18  -5  23 5480.41 707.036   1
  18  -5  26 1751.55 618.853   1
  18  -5  29 353.719 586.021   1
   4  14  26 4934.69 880.961   1
  14 -18  26 3339.40 486.717   1
  14 -18  23 1076.50 465.847   1
   4  14  23 803.895 792.535   1
  14 -18  20 486.402 472.739   1
   4  14  20 36.5911 736.585   1
  14 -18  17 1150.12 444.112   1
   4  14  17 1206.71 751.156   1
   4  14  14 799.225 676.775   1
  18  -4 -11 1370.63 484.805   1
   4  14  11 1443.70 749.311   1
   4  14   8 2689.54 694.455   1
  18  -4  -8 2096.76 493.324   1
  18  -4  -5-208.924 445.258   1
  -4 -14  -5 368.932 367.082   1
   4  14   5-172.891 610.470   1
  -4 -14  -2-191.165 306.048   1
  18  -4  -2 237.461 451.567   1
   4  14   2 93.3478 546.469   1
  18  -4   1 292.850 492.920   1
  18  -4   4 480.499 470.595   1
  -4 -14   4 278.846 256.053   1
  18  -4   7 1856.17 554.175   1
  -4 -14   7 2152.07 258.298   1
  -4 -14  10 3904.02 217.471   1
  18  -4  10 5064.30 610.660   1
  18  -4  13 4160.52 655.284   1
  18  -4  16 1426.41 555.191   1
  18  -4  19 2228.10 623.597   1
  18  -4  22 909.533 603.747   1
  18  -4  25 1789.11 638.462   1
  18  -4  28 1967.97 629.885   1
   3  15  27 1708.46 804.399   1
  15 -18  27 937.379 458.460   1
  15 -18  24 1774.34 482.089   1
   3  15  24 459.045 797.843   1
  15 -18  21-250.440 446.872   1
   3  15  21-608.383 787.933   1
   3  15  18 1217.62 819.929   1
  15 -18  18 1256.09 464.857   1
  18  -3 -15 1027.14 466.737   1
  15 -18  15 1688.26 469.864   1
   3  15  15 1393.55 733.144   1
  18  -3 -12 1113.89 445.979   1
   3  15  12 1068.78 726.714   1
  18  -3  -9 279.801 438.115   1
   3  15   9-112.906 675.745   1
  18  -3  -6 248.382 442.389   1
   3  15   6 176.945 615.616   1
  -3 -15  -6 345.518 328.190   1
  -3 -15  -3 1125.49 342.137   1
  18  -3  -3 1669.86 489.973   1
  -3 -15   0 2703.36 360.019   1
  18  -3   0 2604.85 498.237   1
  18  -3   3-362.727 458.988   1
  18  -3   6 180.264 514.611   1
  -3 -15   6 285.726 223.883   1
  -3 -15   9 1574.06 193.243   1
  18  -3   9 1354.92 526.154   1
  18  -3  12 4975.73 657.742   1
  18  -3  15 3939.01 653.214   1
  18  -3  18 6533.00 751.428   1
  18  -3  21 3146.48 637.953   1
  18  -3  24-552.302 590.678   1
  18  -3  27-429.259 575.944   1
  16 -18  25 6.96129 484.495   1
   2  16  25 173.485 755.142   1
   2  16  22-63.1575 751.855   1
  16 -18  22-155.347 448.582   1
  16 -18  19 1031.36 502.469   1
   2  16  19 576.242 744.361   1
  18  -2 -19 951.386 376.331   1
  18  -2 -16 5296.50 524.169   1
   2  16  16 4400.13 839.824   1
  16 -18  16 5341.33 614.991   1
  18  -2 -13 5001.93 564.697   1
   2  16  13 5184.70 820.517   1
  18  -2 -10 8659.38 655.163   1
   2  16  10 9434.54 886.476   1
  18  -2  -7 11661.8 727.746   1
  -2 -16  -4 6399.21 498.354   1
  18  -2  -4 6945.28 605.654   1
  18  -2  -1 2180.66 496.507   1
  -2 -16  -1 2709.24 386.836   1
  18  -2   2 138.969 484.038   1
  -2 -16   5 877.070 268.332   1
  18  -2   5 1580.02 535.309   1
  -2 -16   8 1154.85 240.208   1
  18  -2   8 814.115 542.110   1
  18  -2  11 249.460 544.163   1
  -2 -16  11 415.957 117.870   1
  18  -2  14-354.507 532.655   1
  18  -2  17 5012.63 692.836   1
  18  -2  20 6508.53 765.275   1
  18  -2  23 657.916 555.564   1
  18  -2  26 1001.79 614.597   1
  17 -18  23 2662.47 556.292   1
   1  17  23 1004.66 791.201   1
  18  -1 -23 1713.91 368.321   1
  18  -1 -20 758.367 360.473   1
  17 -18  20 446.165 529.982   1
  17 -18  17-29.4222 531.350   1
  18  -1 -17-116.659 366.306   1
  17 -18  14-352.582 528.117   1
  18  -1 -14-208.366 379.316   1
  18  -1 -11 3553.22 502.344   1
  18  -1  -8 4235.45 553.322   1
  18  -1  -5 5225.24 554.692   1
  18  -1  -2 4740.78 554.601   1
  -1 -17  -2 4541.00 446.954   1
  -1 -17   1 936.486 322.076   1
  18  -1   1 733.564 472.021   1
  18  -1   4-617.438 481.907   1
  -1 -17   7 716.362 251.716   1
  18  -1   7 1053.05 510.216   1
  18  -1  10 3796.33 626.559   1
  18  -1  13 6979.79 744.169   1
  18  -1  16 1509.50 609.971   1
  18  -1  19-272.946 588.037   1
  18  -1  22 180.098 553.939   1
  18  -1  25 448.618 585.078   1
  18   0 -21 101.023 313.044   1
  18 -18  21 271.536 499.384   1
  18   0 -18 1729.47 391.581   1
  18 -18  18 1835.39 543.109   1
  18 -18  15 461.755 522.030   1
  18   0 -15 560.567 378.508   1
  18   0 -12 285.188 370.752   1
  18   0  -9 2817.06 469.230   1
  18   0  -6 6212.20 568.563   1
  18   0  -3 6664.32 600.092   1
   0 -18   0 5329.15 463.130   1
  18   0   0 5825.87 625.128   1
   0 -18   3 3638.45 367.317   1
  18   0   3 3519.18 561.492   1
  18   0   6 3192.48 563.583   1
  18   0   9 260.254 523.727   1
  18   0  12 87.7177 542.475   1
  18   0  15-494.043 565.907   1
  18   0  18 136.918 550.589   1
  18   0  21 201.953 575.761   1
  18   1  20 1421.16 623.333   1
  18   1  17 163.936 590.368   1
  18   1  14 511.832 549.692   1
  18   1  11 2189.07 599.219   1
  18   1   8 5287.68 646.568   1
  18   1   5 6638.61 685.489   1
  18   1   2 1423.81 484.071   1
   1 -19   2 70.0747 357.458   1
  18   1  -1 358.975 474.051   1
   1 -19  -1-7.58129 371.481   1
  18   1  -4 10.6431 431.361   1
  18   1  -7 224.808 395.578   1
  18   1 -10 532.054 395.222   1
  18   1 -13 50.7388 343.611   1
  19 -18  13-32.8638 553.673   1
  18   1 -16 129.732 331.853   1
  19 -18  16-371.763 507.172   1
  19 -18  19-223.281 552.806   1
  18   1 -19-42.0994 315.491   1
  17   2  21 609.794 625.573   1
  17   2  18 1533.80 613.807   1
  17   2  15 3902.62 645.162   1
  17   2  12-25.7155 562.673   1
  17   2   9 127.138 513.825   1
  17   2   6 2280.47 552.372   1
  17   2   3 2559.52 531.806   1
   2 -19   3 2166.99 405.340   1
  17   2   0 2215.48 488.421   1
   2 -19   0 1123.43 398.662   1
  17   2  -3 1763.76 456.284   1
  17   2  -6 197.034 412.804   1
  17   2  -9 386.740 387.540   1
  19 -17  12 745.013 539.814   1
  17   2 -12 693.817 355.011   1
  17   2 -15 3183.94 403.172   1
  19 -17  15 2684.14 627.724   1
  17   2 -18 372.436 300.806   1
  19 -17  18 524.719 515.773   1
  19 -17  21 790.932 504.059   1
  16   3  22-264.000 621.099   1
  16   3  19 94.8886 649.835   1
  16   3  16 2026.76 589.799   1
  16   3  13 983.834 543.937   1
  16   3  10 678.268 561.203   1
  16   3   7-209.355 486.593   1
  16   3   4-14.1614 459.899   1
   3 -19   4 34.0893 364.993   1
  16   3   1 177.068 456.281   1
   3 -19   1-528.090 374.899   1
  16   3  -2 2557.62 475.693   1
  16   3  -5 1262.79 425.418   1
  16   3  -8 4243.89 482.941   1
  16   3 -11 3905.52 456.998   1
  19 -16  11 3446.63 642.068   1
  19 -16  14-163.752 545.157   1
  16   3 -14 631.547 312.122   1
  19 -16  17 749.259 535.809   1
  16   3 -17 752.809 319.778   1
  19 -16  20 1636.49 569.572   1
  19 -16  23 5267.68 644.289   1
  15   4  23 2847.52 708.478   1
  15   4  20 4201.77 738.438   1
  15   4  17 55.2632 652.817   1
  15   4  14-51.3191 558.854   1
  15   4  11 382.070 500.276   1
  15   4   8 2515.92 542.822   1
   4 -19   5 2181.48 402.424   1
  15   4   5 1718.32 510.603   1
  15   4   2 2292.09 484.709   1
   4 -19   2 1862.09 436.206   1
  15   4  -1-136.010 427.215   1
   4 -19  -1 168.693 387.436   1
  15   4  -4-306.629 394.768   1
  15   4  -7-67.8781 374.495   1
  15   4 -10 5304.72 487.159   1
  19 -15  10 4667.00 680.384   1
  19 -15  13 4003.04 639.716   1
  15   4 -13 3234.10 394.503   1
  19 -15  16 836.854 560.771   1
  15   4 -16 1205.82 298.669   1
  19 -15  19 818.128 514.261   1
  19 -15  22 430.324 529.752   1
  19 -15  25 1792.44 552.916   1
  14   5  24 515.933 647.722   1
  14   5  21 1499.28 670.074   1
   5 -19  18 635.638 206.828   1
  14   5  18 271.492 642.250   1
  14   5  15 4394.07 688.608   1
  14   5  12 2433.12 626.873   1
  14   5   9 1943.11 574.151   1
   5 -19   6 223.444 458.371   1
  14   5   6 358.918 473.929   1
   5 -19   3 2920.34 520.197   1
  14   5   3 2747.25 505.858   1
   5 -19   0 3298.80 574.618   1
  14   5   0 2822.04 460.857   1
  14   5  -3 4970.01 510.222   1
  14   5  -6 3118.43 440.280   1
  14   5  -9 1116.60 354.280   1
  19 -14   9 508.819 545.226   1
  14   5 -12 2502.96 372.530   1
  19 -14  12 2691.80 585.697   1
  14   5 -15 2999.86 338.745   1
  19 -14  15 3032.57 648.933   1
  14   5 -18 3413.92 329.669   1
  19 -14  18 4444.15 636.670   1
  19 -14  21 3307.51 653.595   1
  19 -14  24 1301.49 531.883   1
  13   6  25 1.58120 655.144   1
  13   6  22-776.479 662.531   1
  13   6  19-848.983 664.212   1
   6 -19  19 265.714 225.497   1
  13   6  16 835.058 629.769   1
  13   6  13 838.651 619.260   1
  13   6  10 4124.66 675.008   1
   6 -19  10 3412.62 512.723   1
  13   6   7 1921.14 556.297   1
   6 -19   7 3483.48 514.741   1
  13   6   4-144.272 471.602   1
   6 -19   4 1125.60 487.616   1
  13   6   1-280.645 408.886   1
   6 -19   1-98.1825 500.307   1
  13   6  -2 4216.81 480.134   1
  13   6  -5 8194.90 563.491   1
  13   6  -8 6270.98 479.795   1
  19 -13   8 6374.78 700.062   1
  19 -13  11 366.382 552.261   1
  13   6 -11 238.411 297.799   1
  19 -13  14-96.6256 538.037   1
  13   6 -14 227.459 255.087   1
  13   6 -17 1146.27 241.352   1
  19 -13  17 1664.46 551.330   1
  19 -13  20 255.652 577.117   1
  19 -13  23 951.868 559.867   1
  19 -13  26-493.130 546.892   1
  12   7  26 875.456 718.450   1
  12   7  23 2254.02 746.538   1
  12   7  20 1417.85 663.698   1
   7 -19  20 1318.31 302.586   1
  12   7  17-1174.52 612.642   1
   7 -19  17 482.520 278.532   1
  12   7  14 252.604 632.903   1
  12   7  11 4034.43 676.853   1
   7 -19  11 3823.43 566.663   1
  12   7   8 2358.87 575.609   1
   7 -19   8 2899.31 542.450   1
  12   7   5 3696.95 599.419   1
   7 -19   5 3088.22 575.062   1
  12   7   2 2821.19 541.998   1
   7 -19   2 3613.95 616.431   1
  12   7  -1-456.825 470.515   1
  12   7  -4 1676.70 430.339   1
  19 -12   7 52.2585 576.482   1
  12   7  -7-287.836 370.221   1
  19 -12  10 171.303 544.106   1
  12   7 -10 251.104 323.035   1
  19 -12  13 581.707 519.143   1
  12   7 -13 278.940 288.332   1
  12   7 -16 58.8315 217.929   1
  19 -12  16 372.059 543.932   1
  19 -12  19-136.705 555.451   1
  19 -12  22 1283.24 558.525   1
  19 -12  25 655.164 528.329   1
  11   8  27 1007.91 649.186   1
  11   8  24 2939.34 735.000   1
  11   8  21 6830.13 829.871   1
   8 -19  21 5545.97 421.561   1
  11   8  18 10048.2 871.704   1
   8 -19  18 8857.57 525.143   1
  11   8  15 3685.49 693.519   1
  11   8  12-449.179 587.310   1
  11   8   9-551.546 595.858   1
  11   8   6 383.941 565.428   1
   8 -19   6 396.595 554.623   1
  11   8   3 7138.18 666.251   1
 -11  -8  -3 8301.62 578.975   1
   8 -19   3 7835.51 711.142   1
  11   8   0 5901.81 582.360   1
 -11  -8   0 4904.34 415.704   1
  11   8  -3-145.924 419.031   1
  19 -11   6-349.203 546.174   1
  11   8  -6-316.361 390.891   1
  11   8  -9 1242.67 353.461   1
  19 -11   9 1248.04 578.687   1
  19 -11  12-79.3189 555.349   1
  11   8 -12-400.319 273.022   1
  11   8 -15 1523.00 210.503   1
  19 -11  15 836.306 541.525   1
  19 -11  18 4559.26 641.046   1
  19 -11  21 2764.78 613.734   1
  19 -11  24 2145.28 573.680   1
  19 -11  27-111.872 538.851   1
  10   9  28 1594.09 692.134   1
  10   9  25 1936.94 733.587   1
  10   9  22 502.031 640.900   1
   9 -19  22-144.273 302.401   1
  10   9  19 1439.56 706.496   1
   9 -19  19 1344.54 354.851   1
  10   9  16 895.467 621.433   1
  10   9  13 2041.63 616.200   1
  10   9  10 3929.83 644.914   1
  10   9   7 6920.10 686.122   1
 -10  -9  -4-364.496 369.317   1
  10   9   4-274.737 526.111   1
  10   9   1 5589.23 589.503   1
 -10  -9  -1 4014.06 393.793   1
  19 -10   2 2564.12 585.526   1
  10   9  -2 2308.51 472.820   1
  10   9  -5 5337.13 492.355   1
  19 -10   5 5172.37 667.121   1
  19 -10   8 15586.3 933.435   1
  10   9  -8 14813.0 694.789   1
  10   9 -11 9999.00 489.056   1
  19 -10  11 9535.46 787.827   1
  19 -10  14 545.790 527.059   1
  10   9 -14 93.2341 177.782   1
  19 -10  17 655.588 519.206   1
  19 -10  20-168.179 553.811   1
  19 -10  23 3017.34 655.769   1
  19 -10  26 1731.51 583.945   1
   9  10  26 3147.14 793.629   1
  10 -19  26 1518.22 367.652   1
   9  10  23 806.926 725.972   1
  10 -19  23 216.041 341.495   1
   9  10  20 786.810 627.918   1
  10 -19  20 99.5670 338.950   1
   9  10  17 416.199 613.968   1
  10 -19  17 194.159 342.399   1
   9  10  14 435.361 578.460   1
   9  10  11-8.81769 592.082   1
   9  10   8 4088.55 652.155   1
  -9 -10  -5 6842.02 523.831   1
   9  10   5 7815.08 704.102   1
  -9 -10  -2 99.2818 291.269   1
   9  10   2-172.035 499.672   1
   9  10  -1 975.011 453.095   1
  19  -9   1 789.747 536.663   1
  -9 -10   1 486.841 294.101   1
   9  10  -4 313.896 400.001   1
  19  -9   4-69.2936 525.357   1
   9  10  -7 1633.79 386.784   1
  19  -9   7 764.653 542.540   1
   9  10 -10 7618.95 468.406   1
  19  -9  10 8987.82 749.131   1
  19  -9  13 8809.74 736.918   1
   9  10 -13 6422.72 295.810   1
  19  -9  16 3809.40 614.551   1
  19  -9  19 276.366 539.127   1
  19  -9  22 1418.73 568.091   1
  19  -9  25 1763.46 609.510   1
  19  -9  28 1845.42 613.196   1
   8  11  27-710.948 792.560   1
  11 -19  27 184.186 324.857   1
   8  11  24 93.4844 760.759   1
  11 -19  24-309.849 330.962   1
   8  11  21 2503.50 787.832   1
  11 -19  21 2270.80 412.380   1
   8  11  18 5090.67 802.534   1
  11 -19  18 4936.57 484.790   1
   8  11  15 5514.57 716.989   1
   8  11  12 2561.50 669.514   1
   8  11   9 1370.15 560.772   1
  -8 -11  -6 8427.73 564.899   1
   8  11   6 9955.63 737.548   1
   8  11   3 3353.68 555.105   1
  -8 -11  -3 1810.35 360.334   1
   8  11   0 5140.26 564.131   1
  19  -8   0 4389.32 638.988   1
  -8 -11   0 4071.94 405.509   1
  19  -8   3 5706.03 662.791   1
   8  11  -3 6621.67 598.903   1
  19  -8   6-215.569 515.417   1
   8  11  -6 391.527 419.071   1
  19  -8   9 4750.83 637.635   1
   8  11  -9 3916.52 399.423   1
  19  -8  12 2111.61 587.160   1
  19  -8  15 3836.79 656.265   1
  19  -8  18 4602.97 694.752   1
  19  -8  21 6055.75 712.577   1
  19  -8  24 1571.13 588.300   1
  19  -8  27-95.9008 548.266   1
  12 -19  25-423.372 377.859   1
   7  12  25 449.804 800.164   1
  12 -19  22 143.773 366.740   1
   7  12  22 384.145 761.663   1
   7  12  19 522.500 779.535   1
  12 -19  19 738.827 405.047   1
   7  12  16-29.8455 718.737   1
   7  12  13 2701.14 784.214   1
   7  12  10 5102.24 800.033   1
   7  12   7 130.750 622.176   1
  19  -7  -4 409.770 536.564   1
  -7 -12  -4 457.322 317.816   1
   7  12   4 1101.35 612.859   1
  -7 -12  -1 1327.50 332.541   1
  19  -7  -1 1266.91 517.302   1
   7  12   1 855.531 547.525   1
  19  -7   2 1260.14 538.262   1
   7  12  -2 1366.84 525.967   1
  19  -7   5 567.545 517.507   1
  -7 -12   5 341.581 241.311   1
   7  12  -5 818.597 413.409   1
   7  12  -8 3608.85 403.413   1
  19  -7   8 4131.84 610.254   1
  19  -7  11 2534.93 553.498   1
  19  -7  14 770.180 548.661   1
  19  -7  17-130.057 563.975   1
  19  -7  20 2151.56 617.390   1
  19  -7  23 3260.91 674.916   1
  19  -7  26 2021.57 617.452   1
   6  13  26 837.821 836.617   1
  13 -19  26 323.101 395.516   1
  13 -19  23 913.055 422.742   1
   6  13  23 818.610 780.792   1
  13 -19  20 879.841 435.828   1
   6  13  20 2074.43 772.476   1
  13 -19  17-462.916 422.785   1
   6  13  17 297.489 775.753   1
   6  13  14 1377.12 781.170   1
   6  13  11 3292.52 787.791   1
   6  13   8 5496.76 783.758   1
   6  13   5 7841.37 754.837   1
  19  -6  -5 7477.35 688.970   1
  -6 -13  -5 7789.99 548.218   1
  -6 -13  -2 5791.77 457.837   1
  19  -6  -2 7060.01 652.991   1
   6  13   2 6654.68 698.445   1
  -6 -13   1 1080.08 304.810   1
  19  -6   1 1528.80 563.338   1
   6  13  -1 1811.60 521.757   1
  19  -6   4-90.9118 487.402   1
   6  13  -4 259.515 419.480   1
  19  -6   7 1708.83 556.461   1
  -6 -13   7 1484.67 243.985   1
  19  -6  10 5615.91 650.875   1
  19  -6  13 7075.57 718.981   1
  19  -6  16 626.933 551.612   1
  19  -6  19-122.560 585.243   1
  19  -6  22 1462.86 614.563   1
  19  -6  25 2054.84 602.227   1
  14 -19  24 540.568 405.076   1
   5  14  24-299.401 763.565   1
  14 -19  21 2192.02 498.247   1
   5  14  21 2448.54 828.894   1
  14 -19  18 2614.72 503.004   1
   5  14  18 3263.90 825.948   1
   5  14  15 6994.44 888.739   1
   5  14  12 983.187 734.643   1
   5  14   9 97.0338 677.376   1
  19  -5  -9-231.396 504.857   1
  19  -5  -6-70.0331 472.637   1
   5  14   6-27.7894 633.432   1
  -5 -14  -3 1742.71 353.584   1
   5  14   3 2012.58 607.777   1
  19  -5  -3 2160.05 509.259   1
  19  -5   0 3946.40 580.314   1
  -5 -14   0 3756.17 397.931   1
   5  14   0 3772.57 582.247   1
  19  -5   3 6229.86 671.507   1
  19  -5   6 1912.84 529.756   1
  -5 -14   6 1561.35 249.359   1
  19  -5   9 490.109 543.384   1
  -5 -14   9 157.529 157.418   1
  19  -5  12 2163.92 571.917   1
  19  -5  15 3240.60 636.900   1
  19  -5  18 4172.66 672.676   1
  19  -5  21 532.784 579.933   1
  19  -5  24-562.580 605.083   1
  15 -19  25 1007.68 445.967   1
   4  15  25 958.304 859.361   1
   4  15  22 445.637 753.972   1
  15 -19  22 115.105 450.200   1
  15 -19  19 180.072 431.060   1
   4  15  19 1207.80 784.990   1
  15 -19  16 466.229 438.291   1
   4  15  16 2046.19 755.826   1
  19  -4 -13 1990.72 470.754   1
   4  15  13 1383.45 740.617   1
  19  -4 -10 3177.86 529.096   1
   4  15  10 2759.13 775.772   1
   4  15   7 1820.61 655.275   1
  19  -4  -7 1318.35 477.306   1
  -4 -15  -4-220.178 335.448   1
  19  -4  -4-264.498 465.801   1
   4  15   4 269.385 563.818   1
  19  -4  -1-14.8720 483.492   1
  -4 -15  -1-128.124 313.506   1
  19  -4   2 566.400 501.525   1
  19  -4   5 1063.52 516.706   1
  -4 -15   5 745.308 252.532   1
  19  -4   8 112.791 482.806   1
  -4 -15   8 135.959 194.321   1
  19  -4  11-451.101 569.743   1
  19  -4  14 141.353 553.943   1
  19  -4  17 9.13158 539.232   1
  19  -4  20 1436.62 592.201   1
  19  -4  23 536.927 600.326   1
  16 -19  23 2210.04 527.824   1
   3  16  23 1042.25 829.796   1
  16 -19  20 767.932 495.197   1
   3  16  20-218.948 782.197   1
  16 -19  17 610.172 474.633   1
  19  -3 -17 363.933 420.625   1
   3  16  17 839.839 800.247   1
  19  -3 -14-18.4555 421.558   1
   3  16  14 395.793 691.797   1
   3  16  11 1203.12 717.137   1
  19  -3 -11 1400.06 431.746   1
  19  -3  -8 9116.12 699.941   1
   3  16   8 9167.88 821.251   1
  19  -3  -5 8001.85 672.750   1
  -3 -16  -2 10073.6 610.023   1
  19  -3  -2 12965.5 800.801   1
  -3 -16   1 2554.09 351.277   1
  19  -3   1 2665.73 558.597   1
  19  -3   4 7.73258 512.729   1
  -3 -16   7 214.031 214.915   1
  19  -3   7 351.272 522.925   1
  19  -3  10 4711.39 648.711   1
  19  -3  13 2544.10 610.013   1
  19  -3  16 655.516 557.822   1
  19  -3  19 482.807 576.463   1
  19  -3  22-59.7372 609.354   1
  17 -19  21 4425.51 604.857   1
   2  17  21 3709.01 834.253   1
  19  -2 -21 4166.38 488.943   1
  19  -2 -18 4000.29 506.021   1
   2  17  18 2567.62 821.661   1
  17 -19  18 4601.84 638.297   1
  17 -19  15 4768.59 626.187   1
   2  17  15 4501.71 824.699   1
  19  -2 -15 4403.25 528.397   1
  19  -2 -12 255.608 409.499   1
  19  -2  -9 266.006 437.155   1
  19  -2  -6 566.461 458.843   1
  19  -2  -3 4881.86 569.407   1
  -2 -17  -3 5999.31 497.546   1
  -2 -17   0 868.374 348.050   1
  19  -2   0 668.742 461.658   1
  -2 -17   3 380.185 270.370   1
  19  -2   3-93.8892 489.992   1
  19  -2   6 278.938 504.137   1
  19  -2   9-52.4727 517.172   1
  19  -2  12 1461.17 575.911   1
  19  -2  15 1362.89 593.080   1
  19  -2  18 1595.10 614.893   1
  19  -2  21 290.495 588.937   1
  18 -19  22 237.428 498.426   1
  18 -19  19 966.673 500.353   1
  19  -1 -19 366.919 375.971   1
  19  -1 -16 1726.86 440.607   1
  18 -19  16 1819.26 529.039   1
  18 -19  13 901.065 522.278   1
  19  -1 -13 106.922 432.037   1
  19  -1 -10 1442.29 446.022   1
  19  -1  -7 325.262 440.367   1
  19  -1  -4 768.684 429.282   1
  -1 -18  -1-129.734 323.665   1
  19  -1  -1 403.868 495.147   1
  19  -1   2 1003.50 513.378   1
  -1 -18   2 457.736 285.467   1
  19  -1   5 6094.52 664.741   1
  19  -1   8 4860.36 647.800   1
  19  -1  11 3587.94 657.096   1
  19  -1  14 253.135 596.999   1
  19  -1  17-33.4765 544.912   1
  19  -1  20-170.541 547.075   1
  19 -19  20-87.3220 571.230   1
  19   0 -17 616.822 389.976   1
  19 -19  17 509.722 545.418   1
  19 -19  14 291.531 506.480   1
  19   0 -14-329.894 396.142   1
  19   0 -11 1209.67 437.972   1
  19   0  -8 5061.91 579.245   1
  19   0  -5 5581.40 558.795   1
  19   0  -2 6550.91 629.941   1
  19   0   1 5256.27 607.124   1
  19   0   4-337.948 531.320   1
  19   0   7 1311.30 521.017   1
  19   0  10 3887.60 641.947   1
  19   0  13 1939.49 596.860   1
  19   0  16 161.248 577.299   1
  19   0  19 332.213 586.552   1
  19   1  15 1188.35 610.920   1
  19   1  12-393.417 539.764   1
  19   1   9-393.396 567.858   1
  19   1   6 1291.65 541.997   1
  19   1   3 3963.66 567.082   1
  19   1   0 5066.48 610.951   1
  19   1  -3 4504.49 569.798   1
  19   1  -6 679.590 440.980   1
  19   1  -9 292.338 376.832   1
  20 -19  12-430.262 529.845   1
  19   1 -12 105.341 369.492   1
  19   1 -15 2068.83 419.691   1
  20 -19  15 2359.27 651.594   1
  18   2  19 518.852 615.200   1
  18   2  16 757.028 571.608   1
  18   2  13 3848.86 640.833   1
  18   2  10 3455.48 624.110   1
  18   2   7 3645.16 616.792   1
  18   2   4 1334.91 485.836   1
  18   2   1 139.684 451.023   1
  18   2  -2 550.316 443.829   1
  18   2  -5 574.606 429.261   1
  18   2  -8 568.238 405.087   1
  20 -18  11 283.932 564.889   1
  18   2 -11-172.128 363.718   1
  20 -18  14 514.908 530.319   1
  18   2 -14 702.898 366.288   1
  20 -18  17 346.836 584.710   1
  17   3  20 182.446 640.854   1
  17   3  17-900.547 585.518   1
  17   3  14 63.3081 526.751   1
  17   3  11 935.865 547.060   1
  17   3   8 3024.47 604.566   1
  17   3   5 6605.62 682.465   1
  17   3   2 4885.67 580.370   1
   3 -20   2 3921.18 469.908   1
  17   3  -1 1160.48 449.724   1
  17   3  -4 396.710 411.291   1
  17   3  -7 3639.42 480.440   1
  17   3 -10 3809.23 454.718   1
  20 -17  10 2775.42 645.827   1
  20 -17  13 3072.74 637.177   1
  17   3 -13 4698.31 446.354   1
  20 -17  16 1048.94 573.514   1
  17   3 -16 1732.67 350.474   1
  20 -17  19 154.388 531.910   1
  16   4  21 1435.21 674.677   1
  16   4  18 1601.25 656.248   1
  16   4  15 1258.17 579.000   1
  16   4  12-211.591 508.000   1
  16   4   9 26.6575 497.089   1
   4 -20   6 552.540 368.650   1
  16   4   6 516.739 493.343   1
   4 -20   3 1458.28 417.378   1
  16   4   3 1648.71 479.147   1
  16   4   0 3930.64 510.168   1
  16   4  -3 2441.41 459.670   1
  16   4  -6 1607.75 433.879   1
  16   4  -9 1385.41 380.941   1
  20 -16   9 1638.12 623.238   1
  16   4 -12 107.946 319.294   1
  20 -16  12-243.054 579.303   1
  16   4 -15 1881.90 350.648   1
  20 -16  15 2297.23 607.145   1
  20 -16  18 1296.71 586.032   1
  20 -16  21 125.780 547.185   1
  15   5  22-617.313 680.937   1
  15   5  19-597.287 685.912   1
  15   5  16 81.2311 617.941   1
  15   5  13 1037.11 615.215   1
  15   5  10 4743.00 683.512   1
   5 -20   7 3227.86 447.942   1
  15   5   7 3532.50 591.123   1
   5 -20   4 862.749 396.590   1
  15   5   4-215.290 477.509   1
  15   5   1 1822.88 455.936   1
  15   5  -2 5425.49 553.494   1
  15   5  -5 7515.39 574.970   1
  15   5  -8 4596.64 476.820   1
  20 -15   8 5579.05 750.523   1
  15   5 -11 1568.77 347.617   1
  20 -15  11 1326.06 601.566   1
  15   5 -14-30.9039 292.769   1
  20 -15  14 692.593 553.588   1
  20 -15  17-57.1772 553.798   1
  20 -15  20 1407.56 599.895   1
  20 -15  23 1315.84 582.586   1
  14   6  23 1070.55 688.843   1
  14   6  20 491.327 663.714   1
   6 -20  17 314.264 245.007   1
  14   6  17-506.122 595.314   1
  14   6  14-487.110 599.013   1
  14   6  11 985.531 607.643   1
  14   6   8 1660.09 611.501   1
   6 -20   8 1889.17 505.359   1
  14   6   5 2636.14 565.157   1
   6 -20   5 1904.99 512.965   1
  14   6   2 2675.16 507.098   1
   6 -20   2 2617.87 574.382   1
  14   6  -1-351.948 410.651   1
  14   6  -4 363.097 387.240   1
  20 -14   7 10042.3 833.795   1
  14   6  -7 9116.90 592.748   1
  14   6 -10 6875.19 498.324   1
  20 -14  10 8063.02 757.025   1
  14   6 -13 6185.79 434.270   1
  20 -14  13 5290.70 692.577   1
  20 -14  16 4060.96 648.497   1
  20 -14  19 3509.52 656.259   1
  20 -14  22 681.606 552.942   1
  13   7  24 290.382 668.473   1
  13   7  21 837.306 652.684   1
  13   7  18-64.9411 619.083   1
   7 -20  18 407.668 267.261   1
  13   7  15 3721.02 734.932   1
  13   7  12 518.458 581.907   1
   7 -20  12 417.911 455.208   1
  13   7   9 13.5022 609.460   1
   7 -20   9 461.196 511.648   1
  13   7   6-641.543 504.457   1
   7 -20   6 162.900 493.406   1
  13   7   3 1362.85 527.337   1
   7 -20   3 1802.79 543.457   1
  13   7   0 1585.67 481.874   1
  13   7  -3 1451.81 460.695   1
  20 -13   6 134.020 564.016   1
  13   7  -6-253.227 381.366   1
  20 -13   9-189.803 566.354   1
  13   7  -9-229.935 347.121   1
  20 -13  12 3402.95 622.108   1
  13   7 -12 2095.36 345.327   1
  20 -13  15 7050.95 774.671   1
  20 -13  18 5993.04 729.385   1
  20 -13  21 582.368 573.405   1
  20 -13  24 620.186 537.940   1
  12   8  25 156.589 650.712   1
  12   8  22 37.0353 676.615   1
  12   8  19 2205.09 675.958   1
   8 -20  19 1194.95 316.316   1
  12   8  16 5926.65 790.312   1
  12   8  13 8593.64 824.870   1
   8 -20  13 8750.81 674.425   1
  12   8  10 3604.69 677.153   1
   8 -20  10 4590.42 598.892   1
  12   8   7 3327.33 617.489   1
   8 -20   7 3470.52 610.852   1
  12   8   4-253.170 543.526   1
  12   8   1-585.839 491.050   1
  12   8  -2 1670.21 490.314   1
  12   8  -5 205.940 403.517   1
  20 -12   5 194.035 567.808   1
  20 -12   8 706.785 581.883   1
  12   8  -8-184.652 362.124   1
  12   8 -11 294.738 315.611   1
  20 -12  11 144.375 584.368   1
  20 -12  14-113.209 549.676   1
  12   8 -14 321.321 245.559   1
  20 -12  17 2356.00 608.335   1
  20 -12  20 5113.45 688.479   1
  20 -12  23 6070.84 708.245   1
  11   9  23 2512.35 697.094   1
  11   9  20 2401.57 716.712   1
   9 -20  20 1648.48 341.537   1
  11   9  17-87.6108 647.685   1
   9 -20  17 80.2529 323.117   1
  11   9  14 1004.28 650.830   1
  11   9  11 1717.32 645.875   1
  11   9   8 8163.08 753.564   1
  11   9   5 9268.45 740.479   1
  11   9   2 5977.16 624.245   1
 -11  -9  -2 5602.05 514.237   1
  11   9  -1 358.601 475.096   1
  11   9  -4-305.107 421.196   1
  20 -11   4 582.142 579.512   1
  20 -11   7 858.704 588.438   1
  11   9  -7 1675.54 407.888   1
  20 -11  10 8185.97 771.404   1
  11   9 -10 8313.50 492.517   1
  11   9 -13 745.922 238.107   1
  20 -11  13 398.926 568.261   1
  20 -11  16 247.025 542.659   1
  20 -11  19 14.7718 546.718   1
  20 -11  22 108.585 548.582   1
  20 -11  25 1061.76 574.160   1
  10  10  24 561.277 640.123   1
  10 -20  21 97.7808 331.313   1
  10  10  21 654.672 652.163   1
  10  10  18 744.279 701.325   1
  10 -20  18 488.460 353.811   1
  10  10  15 586.627 680.317   1
  10  10  12 3016.75 704.671   1
  10  10   9-179.652 566.032   1
  10  10   6 9785.05 790.364   1
 -10 -10  -3 22204.3 963.120   1
  10  10   3 21652.3 1054.09   1
 -10 -10   0 17582.9 808.199   1
  20 -10   0 18437.2 1031.28   1
  10  10   0 17486.3 894.625   1
  20 -10   3 7972.64 783.833   1
  10  10  -3 9823.03 636.454   1
  10  10  -6 2599.74 430.821   1
  20 -10   6 1186.29 540.741   1
  10  10  -9 505.124 336.595   1
  20 -10   9-31.3436 536.353   1
  20 -10  12 2820.09 615.678   1
  10  10 -12 2889.36 300.348   1
  20 -10  15 3587.84 634.178   1
  20 -10  18 577.017 579.112   1
  20 -10  21 225.274 586.670   1
  20 -10  24-118.842 546.926   1
   9  11  25 365.635 791.462   1
   9  11  22 1509.96 737.152   1
  11 -20  22 886.495 354.288   1
   9  11  19 391.913 641.614   1
  11 -20  19 28.2272 358.498   1
   9  11  16 1215.86 693.496   1
   9  11  13 7994.14 820.951   1
   9  11  10 3922.64 654.946   1
   9  11   7 644.285 537.407   1
   9  11   4 817.522 530.613   1
  -9 -11  -4 486.059 369.497   1
   9  11   1 4582.91 564.283   1
  -9 -11  -1 3805.81 443.270   1
  20  -9  -1 3626.48 612.829   1
  -9 -11   2 5282.50 444.539   1
  20  -9   2 6330.54 717.319   1
   9  11  -5 3047.55 487.149   1
  20  -9   5 2330.25 604.169   1
  20  -9   8 279.495 540.453   1
   9  11  -8 553.670 379.651   1
  20  -9  11 304.083 541.195   1
   9  11 -11-12.2980 248.138   1
  20  -9  14 146.949 554.458   1
  20  -9  17-157.504 547.008   1
  20  -9  20 174.840 569.381   1
  20  -9  23 848.304 591.433   1
   8  12  23 3208.78 862.861   1
  12 -20  23 1826.16 418.315   1
   8  12  20 5048.23 855.923   1
  12 -20  20 4686.81 492.104   1
   8  12  17 4706.45 814.899   1
  12 -20  17 3993.58 487.756   1
   8  12  14-232.402 744.972   1
   8  12  11 1563.69 732.435   1
   8  12   8 376.140 693.210   1
   8  12   5 536.592 608.148   1
   8  12   2 24.1442 573.464   1
  20  -8  -2-110.294 584.026   1
  -8 -12  -2-66.8056 330.675   1
  -8 -12   1 1880.71 354.585   1
  20  -8   1 1384.30 556.215   1
   8  12  -1 2097.36 562.074   1
  20  -8   4 710.564 570.598   1
   8  12  -4 1592.04 472.647   1
  20  -8   7-97.5978 531.143   1
   8  12  -7 161.834 372.308   1
  20  -8  10 550.024 574.973   1
  20  -8  13 272.296 548.283   1
  20  -8  16 3448.13 635.863   1
  20  -8  19 5433.40 732.986   1
  20  -8  22 2153.39 620.434   1
  20  -8  25 988.768 597.336   1
  13 -20  24 298.776 374.823   1
   7  13  24 1192.53 807.062   1
  13 -20  21 2373.34 457.398   1
   7  13  21 3306.35 821.680   1
  13 -20  18 5248.01 563.127   1
   7  13  18 5543.35 888.315   1
   7  13  15 1132.79 795.997   1
   7  13  12 502.842 744.209   1
   7  13   9 266.753 694.452   1
  20  -7  -6 526.051 498.342   1
   7  13   6 1114.83 640.419   1
  -7 -13  -3 2172.93 373.638   1
  20  -7  -3 2173.21 560.551   1
   7  13   3 2475.71 613.485   1
  20  -7   0 8554.07 775.035   1
  -7 -13   0 7361.17 511.922   1
   7  13   0 9142.30 698.886   1
  20  -7   3 6040.21 679.393   1
   7  13  -3 5667.18 563.152   1
  -7 -13   6 2372.56 298.791   1
   7  13  -6 2583.74 418.389   1
  20  -7   6 2224.92 579.543   1
  20  -7   9 706.183 534.897   1
  20  -7  12 67.9959 529.562   1
  20  -7  15 1182.69 576.212   1
  20  -7  18 7247.02 783.876   1
  20  -7  21 3625.84 672.756   1
  20  -7  24 3224.10 664.791   1
  14 -20  22 104.592 405.372   1
   6  14  22-332.637 791.614   1
   6  14  19 3005.77 811.711   1
  14 -20  19 1575.64 466.398   1
   6  14  16 5312.53 829.055   1
  14 -20  16 4958.85 552.527   1
   6  14  13 4439.33 775.779   1
  20  -6 -10 4375.07 586.168   1
   6  14  10 4763.18 801.008   1
  20  -6  -7 4081.87 608.721   1
   6  14   7 4848.07 754.600   1
  20  -6  -4 2967.46 557.096   1
  -6 -14  -4 2019.60 380.318   1
   6  14   4 2606.30 639.115   1
  20  -6  -1-343.071 509.078   1
   6  14   1-53.6717 528.347   1
  -6 -14  -1-234.571 305.084   1
  20  -6   2 1244.26 580.106   1
  -6 -14   2 1199.34 316.408   1
   6  14  -2 1378.39 508.579   1
  -6 -14   5 1719.54 298.068   1
  20  -6   5 2664.12 549.625   1
  20  -6   8 1237.22 575.105   1
  20  -6  11 106.422 555.203   1
  20  -6  14 80.0818 561.857   1
  20  -6  17 5258.20 723.432   1
  20  -6  20 3722.38 724.595   1
  20  -6  23 2639.47 631.484   1
  15 -20  23 2652.12 504.143   1
   5  15  23 2479.17 820.389   1
  15 -20  20 1316.89 490.471   1
   5  15  20 894.321 775.792   1
   5  15  17 104.345 776.930   1
  15 -20  17-118.857 419.046   1
   5  15  14 275.241 689.085   1
  20  -5 -11 1273.96 510.550   1
   5  15  11 1553.06 738.878   1
  20  -5  -8 1569.94 505.534   1
   5  15   8 1548.11 673.304   1
  20  -5  -5 4366.95 608.159   1
   5  15   5 4514.79 724.527   1
   5  15   2 6076.12 685.160   1
  -5 -15  -2 5429.41 468.632   1
  20  -5  -2 6379.67 661.129   1
  -5 -15   1 1660.01 316.487   1
  20  -5   1 2652.67 575.168   1
  20  -5   4 584.565 528.169   1
  20  -5   7 219.383 537.284   1
  20  -5  10-91.0986 545.071   1
  20  -5  13-541.011 577.786   1
  20  -5  16 839.086 589.937   1
  20  -5  19-246.395 559.379   1
  20  -5  22-198.417 581.021   1
  16 -20  21 1115.31 496.638   1
   4  16  21 218.474 754.205   1
  16 -20  18 3457.28 534.791   1
  20  -4 -18 3346.51 501.569   1
   4  16  18 4084.05 847.128   1
  20  -4 -15 960.155 489.664   1
  16 -20  15 1476.42 509.205   1
   4  16  15 1159.66 790.210   1
  20  -4 -12 416.065 427.952   1
   4  16  12 592.549 663.382   1
   4  16   9-424.378 693.008   1
  20  -4  -9-404.772 488.692   1
  20  -4  -6 3330.68 579.642   1
   4  16   6 4024.98 708.931   1
  -4 -16  -3 11853.7 664.256   1
  20  -4  -3 12493.3 828.669   1
  20  -4   0 6812.28 690.299   1
  -4 -16   0 7838.96 513.201   1
  20  -4   3 7503.03 703.973   1
  20  -4   6 2200.61 575.352   1
  20  -4   9 44.7584 585.862   1
  20  -4  12 119.017 580.359   1
  20  -4  15 1046.81 607.005   1
  20  -4  18 1151.66 585.670   1
  20  -4  21 1597.29 572.720   1
  17 -20  19 936.932 531.374   1
   3  17  19 976.838 818.626   1
  20  -3 -19 1378.36 434.468   1
  17 -20  16 1444.99 508.255   1
  20  -3 -16 1688.57 445.598   1
   3  17  16 1301.66 720.517   1
   3  17  13 1612.30 730.623   1
  20  -3 -13 2023.79 478.084   1
  20  -3 -10 4445.12 585.393   1
  20  -3  -7 2498.66 496.220   1
  20  -3  -4-34.0282 467.826   1
  -3 -17  -1 108.312 319.842   1
  20  -3  -1 67.5692 505.902   1
  20  -3   2 1633.78 576.766   1
  20  -3   5 4934.68 634.695   1
  20  -3   8 1747.79 564.061   1
  20  -3  11 3310.46 637.272   1
  20  -3  14 1061.39 566.298   1
  20  -3  17 1077.98 567.272   1
  20  -3  20 340.316 559.923   1
  18 -20  17 455.996 495.582   1
  20  -2 -17-192.492 402.747   1
  20  -2 -14-161.241 425.908   1
  18 -20  14 129.959 510.760   1
  20  -2 -11 3486.64 524.875   1
  20  -2  -8 2650.69 492.871   1
  20  -2  -5 937.299 471.403   1
  20  -2  -2 702.750 454.775   1
  20  -2   1 917.591 528.319   1
  20  -2   4 5282.87 646.809   1
  20  -2   7 2994.52 594.591   1
  20  -2  10 4755.86 660.974   1
  20  -2  13 5125.38 718.905   1
  20  -2  16 1017.87 589.697   1
  20  -2  19 836.133 562.308   1
  20  -1 -15 2168.52 448.280   1
  19 -20  15 1875.80 583.304   1
  20  -1 -12 324.900 425.901   1
  20  -1  -9 185.895 411.347   1
  20  -1  -6 293.951 452.483   1
  20  -1  -3 2466.39 519.053   1
  20  -1   0 2633.94 532.130   1
  20  -1   3 1604.80 590.312   1
  20  -1   6 475.600 490.284   1
  20  -1   9-17.0460 548.405   1
  20  -1  12-200.470 560.696   1
  20  -1  15 577.212 544.036   1
  20   0 -13 2866.67 448.767   1
  20 -20  13 2506.58 619.706   1
  20   0 -10 2968.00 498.879   1
  20   0  -7 2912.46 495.605   1
  20   0  -4 362.002 458.388   1
  20   0  -1-196.191 488.759   1
  20   0   2-280.600 484.013   1
  20   0   5 2395.77 576.599   1
  20   0   8 1327.98 558.428   1
  20   0  11 358.696 530.585   1
  20   0  14 276.094 549.107   1
  20   1  10 2479.18 621.538   1
  20   1   7 748.248 496.848   1
  20   1   4 96.4403 508.644   1
  20   1   1 539.204 496.612   1
  20   1  -2 1285.41 476.548   1
  20   1  -5 3458.91 507.932   1
  20   1  -8 2494.82 482.972   1
  21 -20  11 2673.03 622.722   1
  20   1 -11 3171.38 480.118   1
  19   2  14 716.236 573.569   1
  19   2  11 1361.99 567.858   1
  19   2   8 4082.53 605.232   1
  19   2   5 2845.01 570.861   1
  19   2   2 5020.04 635.276   1
  19   2  -1 2556.87 500.708   1
  19   2  -4 60.9526 419.341   1
  19   2  -7 399.972 399.420   1
  19   2 -10 1308.39 439.627   1
  21 -19  10 1607.27 592.403   1
  19   2 -13 1286.28 406.875   1
  21 -19  13 1135.35 558.444   1
  18   3  15 1644.63 620.191   1
  18   3  12 1985.67 594.517   1
  18   3   9-212.279 519.457   1
  18   3   6-341.822 489.869   1
  18   3   3 2708.22 535.783   1
  18   3   0 4505.32 532.490   1
  18   3  -3 546.119 431.185   1
  18   3  -6 367.200 401.705   1
  18   3  -9 2317.13 432.190   1
  18   3 -12 2269.79 399.273   1
  21 -18  12 985.265 597.731   1
  21 -18  15 828.793 579.650   1
  17   4  16 2310.29 657.838   1
  17   4  13 3554.36 645.864   1
  17   4  10 1567.72 535.263   1
  17   4   7 2061.57 534.641   1
  17   4   4 461.851 488.064   1
  17   4   1 525.413 490.579   1
  17   4  -2 182.144 420.635   1
  17   4  -5 3615.82 489.396   1
  17   4  -8 4822.18 498.627   1
  21 -17  11 941.180 607.128   1
  17   4 -11 907.495 363.100   1
  17   4 -14-1.45464 306.974   1
  21 -17  14-16.1524 606.420   1
  21 -17  17 339.185 595.422   1
  16   5  20-348.155 651.409   1
  16   5  17-548.955 631.833   1
  16   5  14-112.825 634.076   1
  16   5  11 551.375 615.579   1
  16   5   8 2727.81 583.370   1
  16   5   5 1330.27 491.859   1
  16   5   2 507.966 442.616   1
  16   5  -1 383.766 420.995   1
  16   5  -4-30.6050 402.697   1
  16   5  -7 543.942 385.109   1
  16   5 -10 386.812 340.605   1
  21 -16  10 349.537 586.489   1
  16   5 -13 1548.70 354.121   1
  21 -16  13 2520.97 668.719   1
  21 -16  16 1326.46 629.323   1
  21 -16  19 263.580 526.987   1
  15   6  21 1772.82 709.875   1
  15   6  18 3599.97 731.230   1
  15   6  15 2842.43 709.732   1
  15   6  12 349.140 592.537   1
  15   6   9-560.266 558.351   1
  15   6   6 482.619 558.231   1
  15   6   3 607.430 477.700   1
  15   6   0 2640.38 468.831   1
  15   6  -3 1380.08 423.624   1
  15   6  -6 51.5737 363.903   1
  21 -15   9 403.475 609.561   1
  15   6  -9 873.345 346.431   1
  15   6 -12 1339.71 352.597   1
  21 -15  12 723.703 616.099   1
  21 -15  15 3172.72 665.425   1
  21 -15  18 5199.18 697.382   1
  21 -15  21 4286.78 668.449   1
  14   7  19-215.377 656.363   1
  14   7  16 2163.67 680.382   1
  14   7  13 4521.58 731.320   1
  14   7  10 5178.19 693.587   1
  14   7   7 1541.23 592.150   1
  14   7   4 609.119 529.771   1
  14   7   1-397.271 482.716   1
  14   7  -2 476.117 455.358   1
  21 -14   5-309.190 576.686   1
  14   7  -5 452.024 391.282   1
  14   7  -8 4010.99 456.440   1
  21 -14   8 5122.39 699.016   1
  14   7 -11 411.312 351.904   1
  21 -14  11 812.529 598.722   1
  21 -14  14 191.206 587.450   1
  21 -14  17 2053.10 615.015   1
  21 -14  20 1460.70 580.672   1
  13   8  20-266.426 641.594   1
   8 -21  17 617.664 304.455   1
  13   8  17 814.122 696.204   1
  13   8  14 1978.57 640.961   1
  13   8  11 2222.15 686.208   1
  13   8   8 1216.32 617.582   1
  13   8   5 1940.91 584.838   1
  13   8   2 2477.90 559.752   1
  13   8  -1-144.277 466.027   1
  13   8  -4-700.409 439.075   1
  21 -13   4 121.194 613.056   1
  13   8  -7-227.927 371.474   1
  21 -13   7-42.4453 578.188   1
  13   8 -10 344.100 341.409   1
  21 -13  10-183.862 568.868   1
  21 -13  13 1070.48 589.793   1
  21 -13  16 1823.56 573.042   1
  21 -13  19-67.4450 548.825   1
  21 -13  22 689.077 574.874   1
  12   9  21 885.515 681.108   1
  12   9  18 1521.87 682.274   1
   9 -21  18 2161.66 371.131   1
  12   9  15 1833.63 677.074   1
  12   9  12 1764.75 680.549   1
  12   9   9-481.139 615.929   1
  12   9   6 52.8772 571.133   1
  12   9   3-677.481 522.142   1
  12   9   0 335.528 471.152   1
  12   9  -3 7317.81 625.162   1
  21 -12   3 7873.32 781.102   1
  12   9  -6 2627.87 452.468   1
  21 -12   6 3380.00 650.680   1
  12   9  -9-315.589 332.780   1
  21 -12   9-102.308 595.676   1
  21 -12  12-266.874 583.656   1
  21 -12  15 603.270 562.553   1
  21 -12  18 1100.04 568.261   1
  21 -12  21 1987.86 592.004   1
  11  10  22 141.311 669.803   1
  11  10  19 1059.79 702.115   1
  10 -21  19-139.341 328.565   1
  11  10  16 300.300 653.559   1
  11  10  13 1332.42 656.529   1
  11  10  10 2721.78 660.845   1
  11  10   7 413.587 536.164   1
  11  10   4 1388.80 556.497   1
  11  10   1 841.473 504.059   1
 -11 -10  -1 781.542 365.416   1
  11  10  -2 3248.66 526.147   1
  21 -11   2 3132.77 651.515   1
  11  10  -5 4075.14 500.388   1
  21 -11   5 3002.43 673.389   1
  21 -11   8 6466.73 758.226   1
  11  10  -8 7990.40 511.130   1
  21 -11  11 642.901 573.979   1
  21 -11  14 69.7643 565.269   1
  21 -11  17 40.6499 574.695   1
  21 -11  20 1529.37 589.044   1
  21 -11  23 2147.51 607.362   1
  10  11  23 2320.43 770.041   1
  10  11  20 3317.23 718.248   1
  11 -21  20 1429.05 384.592   1
  10  11  17 801.363 635.817   1
  11 -21  17 111.742 365.667   1
  10  11  14 1078.26 616.246   1
  10  11  11 1447.41 663.301   1
  10  11   8 1853.61 575.332   1
  10  11   5 11327.7 801.677   1
 -10 -11  -2 16005.4 796.641   1
  10  11   2 17216.5 902.485   1
  10  11  -1 2612.70 504.605   1
  21 -10   1 1324.21 579.133   1
 -10 -11   1 1132.62 352.752   1
  10  11  -4 483.224 426.626   1
  21 -10   4-535.828 574.177   1
  21 -10   7 1163.25 584.740   1
  10  11  -7 1500.22 422.183   1
  21 -10  10 127.052 546.096   1
  10  11 -10 242.888 324.503   1
  21 -10  13 412.299 579.304   1
  21 -10  16 318.345 571.329   1
  21 -10  19 22.9366 601.694   1
  21 -10  22 764.620 585.079   1
   9  12  21 965.143 758.448   1
  12 -21  21 1450.66 429.092   1
   9  12  18 2620.57 859.388   1
  12 -21  18 2950.10 456.315   1
   9  12  15 1375.67 732.034   1
   9  12  12 907.493 684.747   1
   9  12   9 544.237 636.840   1
   9  12   6-133.006 628.170   1
   9  12   3 3576.54 661.326   1
  21  -9  -3 3716.39 644.566   1
   9  12   0 5297.99 646.064   1
  -9 -12   0 5525.58 487.572   1
  21  -9   0 6581.95 713.102   1
  -9 -12   3 4826.84 416.374   1
  21  -9   3 4278.39 676.508   1
   9  12  -3 4879.40 600.890   1
  21  -9   6 1309.99 591.909   1
   9  12  -6 1905.29 443.755   1
   9  12  -9 416.876 335.971   1
  21  -9   9 628.460 591.420   1
  21  -9  12 679.581 559.715   1
  21  -9  15 2405.53 643.256   1
  21  -9  18 4437.40 729.993   1
  21  -9  21 1153.72 593.768   1
   8  13  22 634.724 798.287   1
  13 -21  22-74.1050 373.209   1
  13 -21  19 563.430 406.966   1
   8  13  19 909.839 761.164   1
   8  13  16 894.304 789.697   1
   8  13  13 1923.54 767.507   1
   8  13  10 1830.37 732.397   1
   8  13   7 1701.63 689.600   1
  21  -8  -4-112.476 563.981   1
   8  13   4 829.108 630.309   1
  21  -8  -1 915.279 578.825   1
  -8 -13  -1 1015.78 352.547   1
   8  13   1 1663.11 568.842   1
  -8 -13   2 4573.06 423.402   1
  21  -8   2 4484.82 653.352   1
   8  13  -2 4620.73 589.603   1
  21  -8   5 5180.03 714.579   1
   8  13  -5 5084.40 518.714   1
  21  -8   8 7245.84 720.466   1
  21  -8  11 4747.26 668.216   1
  21  -8  14-150.333 585.898   1
  21  -8  17 360.740 600.467   1
  21  -8  20-158.416 605.049   1
  14 -21  20 190.121 402.894   1
   7  14  20-438.189 797.537   1
  14 -21  17-274.277 393.060   1
   7  14  17 382.597 707.243   1
   7  14  14 630.396 668.732   1
   7  14  11 1196.27 709.109   1
   7  14   8 6425.70 762.326   1
  21  -7  -8 5614.42 692.715   1
  21  -7  -5 13298.8 916.519   1
   7  14   5 14244.5 931.687   1
  -7 -14  -2 6006.31 485.720   1
   7  14   2 6403.18 683.960   1
  21  -7  -2 5087.50 705.241   1
  21  -7   1 594.103 572.643   1
  -7 -14   1 704.803 282.073   1
   7  14  -1 622.026 505.511   1
  21  -7   4 358.999 540.690   1
   7  14  -4-168.165 441.918   1
  21  -7   7 1666.64 583.431   1
  21  -7  10 3235.64 634.343   1
  21  -7  13 3134.04 688.843   1
  21  -7  16 352.849 554.559   1
  21  -7  19-65.5053 592.624   1
  15 -21  21 261.739 416.720   1
   6  15  21-426.961 774.341   1
  15 -21  18 633.244 435.300   1
   6  15  18 1054.97 753.502   1
   6  15  15 1587.74 771.202   1
  21  -6 -12 782.256 468.173   1
   6  15  12 1338.97 685.806   1
   6  15   9 788.655 677.543   1
  21  -6  -9 49.4043 511.917   1
  21  -6  -6 995.335 562.527   1
   6  15   6 730.996 644.549   1
  21  -6  -3 4257.94 649.113   1
   6  15   3 4712.75 672.174   1
  -6 -15   0 3116.34 405.049   1
  21  -6   0 2770.65 614.289   1
   6  15   0 1755.03 556.915   1
  21  -6   3 2221.65 600.279   1
  21  -6   6-14.0423 565.103   1
  21  -6   9-331.627 580.354   1
  21  -6  12 471.379 571.714   1
  21  -6  15 2621.55 629.275   1
  21  -6  18 2620.65 671.789   1
  21  -6  21 577.264 622.759   1
   5  16  19 44.9664 741.424   1
  16 -21  19-356.471 489.242   1
  21  -5 -16 1284.60 467.466   1
  16 -21  16 1051.14 491.968   1
   5  16  13 4088.85 804.941   1
  21  -5 -13 4235.19 597.095   1
  21  -5 -10 5117.52 594.131   1
   5  16  10 4714.93 789.937   1
  21  -5  -7 39.3764 497.928   1
   5  16   7-155.632 630.349   1
  21  -5  -4 885.060 500.643   1
   5  16   4 348.342 613.098   1
  21  -5  -1 97.6818 520.360   1
  21  -5   2 1889.11 573.215   1
  21  -5   5 1067.57 541.495   1
  21  -5   8 229.174 549.647   1
  21  -5  11 618.093 551.576   1
  21  -5  14-421.262 571.402   1
  21  -5  17-65.9907 570.810   1
  21  -5  20-119.861 618.300   1
  17 -21  17 88.6979 488.597   1
  21  -4 -17-397.328 421.719   1
   4  17  17 87.0232 780.578   1
  21  -4 -14 238.306 461.736   1
   4  17  14 653.349 698.920   1
  21  -4 -11 1252.43 520.094   1
   4  17  11 959.683 683.972   1
  21  -4  -8 1472.01 471.011   1
   4  17   8 1827.01 686.784   1
  21  -4  -5 1816.05 521.827   1
  21  -4  -2 1331.24 505.793   1
  21  -4   1 1185.84 493.106   1
  21  -4   4-127.241 503.791   1
  21  -4   7 353.729 566.536   1
  21  -4  10 4073.06 692.176   1
  21  -4  13 5983.50 732.363   1
  21  -4  16 1975.98 608.433   1
  21  -3 -15 1375.74 488.790   1
  18 -21  15 1584.88 539.262   1
  21  -3 -12 208.306 453.096   1
  21  -3  -9 373.731 475.885   1
  21  -3  -6 209.899 448.025   1
  21  -3  -3 222.129 494.100   1
  21  -3   0 652.216 490.708   1
  21  -3   3 1109.08 513.481   1
  21  -3   6 514.928 562.187   1
  21  -3   9 572.773 577.363   1
  21  -3  12 2960.42 616.408   1
  21  -3  15 911.351 572.731   1
  21  -2 -13 554.883 468.316   1
  21  -2 -10 2769.24 529.398   1
  21  -2  -7 2683.23 507.981   1
  21  -2  -4 637.721 435.731   1
  21  -2  -1 204.688 496.114   1
  21  -2   2 2315.19 553.745   1
  21  -2   5 3699.85 641.978   1
  21  -2   8 410.031 545.752   1
  21  -2  11 873.389 580.281   1
  21  -2  14-138.273 590.824   1
  21  -1 -11 1051.12 434.209   1
  21  -1  -8 3488.90 532.579   1
  21  -1  -5 3442.12 524.472   1
  21  -1  -2 2620.15 556.637   1
  21  -1   1 422.300 541.191   1
  21  -1   4 76.7486 533.430   1
  21  -1   7-378.252 551.314   1
  21  -1  10 759.886 608.748   1
  21   0  -6 200.575 400.565   1
  21   0  -3 2826.46 532.325   1
  21   0   0 2387.03 548.386   1
  21   0   3 171.923 513.021   1
  21   0   6 487.491 556.604   1
  20   2   6 1285.93 553.412   1
  20   2   3 2163.13 573.209   1
  20   2   0 1902.10 530.542   1
  20   2  -3 1377.70 458.850   1
  20   2  -6 245.042 425.885   1
  19   3  10 1212.46 567.303   1
  19   3   7 1384.54 539.918   1
  19   3   4 1101.47 548.895   1
  19   3   1-152.034 480.223   1
  19   3  -2-115.393 420.576   1
  19   3  -5-183.953 436.314   1
  19   3  -8 579.145 395.519   1
  18   4  11-55.6327 551.409   1
  18   4   8 2419.65 575.156   1
  18   4   5 4278.93 610.386   1
  18   4   2 1992.89 490.509   1
  18   4  -1 612.606 437.754   1
  18   4  -4 131.800 400.281   1
  18   4  -7 4926.11 539.601   1
  18   4 -10 4467.04 480.915   1
  22 -18  10 5418.64 762.551   1
  22 -18  13 1798.93 650.097   1
  17   5  15 827.342 625.737   1
  17   5  12 983.968 612.980   1
  17   5   9-75.7593 592.780   1
  17   5   6 162.857 473.020   1
  17   5   3 152.900 453.173   1
  17   5   0 1583.74 458.594   1
  17   5  -3 196.264 401.561   1
  17   5  -6-223.571 384.970   1
  22 -17   9 20.1132 622.031   1
  17   5  -9 165.241 339.211   1
  22 -17  12 363.675 590.201   1
  22 -17  15 814.140 598.111   1
  16   6  16 1272.58 663.780   1
  16   6  13 2636.08 670.562   1
  16   6  10 567.529 557.147   1
  16   6   7 813.015 595.298   1
  16   6   4-355.725 475.960   1
  16   6   1-11.6435 474.808   1
  16   6  -2 621.609 411.067   1
  16   6  -5 1457.44 421.814   1
  22 -16   8-163.155 608.926   1
  16   6  -8 27.6280 369.726   1
  22 -16  11-167.806 599.292   1
  22 -16  14-276.007 561.868   1
  15   7  17 397.679 704.083   1
  15   7  14-231.575 580.922   1
  15   7  11 1269.39 625.765   1
  15   7   8 3246.31 625.842   1
  15   7   5 3042.93 590.484   1
  15   7   2 1606.31 545.155   1
  15   7  -1 1255.66 493.338   1
  15   7  -4-487.816 423.370   1
  22 -15   7 150.262 621.344   1
  15   7  -7-41.9637 394.442   1
  22 -15  10 2652.47 677.162   1
  15   7 -10 1457.60 383.837   1
  22 -15  13 1354.75 601.298   1
  22 -15  16 882.029 548.309   1
  14   8  18 405.576 678.547   1
  14   8  15-654.479 636.876   1
  14   8  12-149.338 584.628   1
  14   8   9-159.391 615.104   1
  14   8   6 41.3083 572.229   1
  14   8   3 1349.04 553.530   1
  14   8   0 4602.51 598.723   1
  14   8  -3 1834.58 489.987   1
  22 -14   6 2419.58 662.631   1
  14   8  -6 2284.13 470.166   1
  22 -14   9 2083.64 631.582   1
  14   8  -9 3008.03 442.196   1
  22 -14  12-41.9238 627.651   1
  22 -14  15-52.6149 547.472   1
  22 -14  18 471.222 568.037   1
  13   9  19 81.7039 654.091   1
  13   9  16 1441.90 656.504   1
  13   9  13 3971.27 725.426   1
  13   9  10 2724.10 699.679   1
  13   9   7 2361.65 622.583   1
  13   9   4 199.876 520.233   1
  13   9   1 765.758 525.842   1
  13   9  -2 2539.00 499.705   1
  22 -13   2 3453.20 677.035   1
  13   9  -5 7990.96 614.577   1
  22 -13   5 7119.85 833.920   1
  13   9  -8 7639.53 550.503   1
  22 -13   8 6828.82 796.761   1
  22 -13  11 2284.88 621.127   1
  22 -13  14 680.555 592.205   1
  22 -13  17-127.634 527.874   1
  12  10  17 2405.18 690.295   1
  10 -22  17 1492.75 380.347   1
  12  10  14 502.768 592.908   1
  12  10  11 58.4017 626.567   1
  12  10   8 2532.40 650.216   1
  12  10   5 2098.43 589.099   1
  12  10   2 286.302 521.634   1
  12  10  -1-398.342 451.678   1
  22 -12   1-1120.56 616.416   1
  12  10  -4-123.848 421.902   1
  22 -12   4-277.140 611.558   1
  12  10  -7 2851.08 446.027   1
  22 -12   7 3283.14 684.611   1
  22 -12  10 2889.32 682.253   1
  22 -12  13-463.691 576.625   1
  22 -12  16 718.723 585.096   1
  22 -12  19-427.092 562.086   1
  11  11  18 1670.58 743.946   1
  11 -22  18 1478.80 361.850   1
  11  11  15 2059.52 689.373   1
  11  11  12 872.902 605.482   1
  11  11   9-72.3522 614.481   1
  11  11   6 3907.60 638.904   1
  11  11   3 2375.46 585.910   1
  11  11   0 3724.63 543.492   1
  22 -11   0 2553.53 655.122   1
  22 -11   3 7740.19 813.434   1
  11  11  -3 9144.69 637.602   1
  11  11  -6-22.9993 420.886   1
  22 -11   6-57.0806 627.134   1
  22 -11   9-475.233 592.320   1
  22 -11  12 139.694 582.198   1
  22 -11  15 2071.94 622.923   1
  22 -11  18 1330.34 558.106   1
  10  12  19 666.448 763.689   1
  12 -22  19 868.510 394.746   1
  10  12  16 3425.82 780.136   1
  10  12  13 3381.04 749.648   1
  10  12  10 3496.89 694.635   1
  10  12   7 1367.39 606.798   1
  10  12   4 4061.30 640.514   1
  22 -10  -4 2575.06 645.834   1
  10  12   1 124.174 562.050   1
  22 -10  -1 29.2606 565.558   1
  10  12  -2 5312.55 624.214   1
  22 -10   2 5030.55 730.299   1
  22 -10   5 1059.49 619.190   1
  10  12  -5 1472.83 466.677   1
  22 -10   8 1631.07 616.334   1
  22 -10  11 1436.22 592.914   1
  22 -10  14 791.020 581.390   1
  22 -10  17 1712.61 598.375   1
  13 -22  17-7.78994 385.008   1
   9  13  17 429.839 726.605   1
   9  13  14 990.417 737.598   1
   9  13  11 623.094 718.693   1
   9  13   8 2037.46 714.125   1
  22  -9  -5 2678.02 639.462   1
   9  13   5 2462.35 686.706   1
  22  -9  -2 125.906 607.486   1
   9  13   2 163.431 570.689   1
  22  -9   1 534.247 591.795   1
   9  13  -1 512.542 529.076   1
  22  -9   4-125.049 586.929   1
   9  13  -4 293.626 458.962   1
  22  -9   7 775.905 580.374   1
  22  -9  10 2541.89 608.483   1
  22  -9  13 584.081 578.927   1
  22  -9  16 2562.00 644.093   1
  22  -9  19 87.4773 600.968   1
  14 -22  18 271.431 421.464   1
   8  14  18 1991.88 785.217   1
   8  14  15-383.561 731.584   1
   8  14  12-328.918 663.584   1
  22  -8  -9 123.026 563.633   1
   8  14   9 252.878 688.021   1
  22  -8  -6 5320.63 675.039   1
   8  14   6 5978.43 756.953   1
  22  -8  -3 4966.82 670.728   1
   8  14   3 4035.24 659.846   1
  22  -8   0 4002.80 650.880   1
   8  14   0 3325.02 613.602   1
   8  14  -3 8723.53 643.872   1
  22  -8   3 8465.30 794.308   1
  22  -8   6 4425.64 690.637   1
  22  -8   9 571.040 589.599   1
  22  -8  12 37.1772 596.756   1
  22  -8  15 2366.82 648.606   1
  22  -8  18 175.521 593.763   1
  15 -22  16-250.667 430.587   1
   7  15  16 30.6489 765.883   1
   7  15  13 2442.79 762.833   1
  22  -7 -10 2622.35 561.916   1
   7  15  10 3135.76 732.544   1
  22  -7  -7 617.490 495.509   1
   7  15   7 618.146 659.028   1
   7  15   4 541.579 573.722   1
  22  -7  -4 175.120 554.658   1
  22  -7  -1 192.710 563.633   1
   7  15   1-182.481 531.432   1
  22  -7   2 4211.55 665.742   1
   7  15  -2 3438.31 557.445   1
  22  -7   5 4815.10 713.171   1
  22  -7   8 2983.57 650.039   1
  22  -7  11 409.148 571.634   1
  22  -7  14-293.471 556.498   1
  22  -7  17 431.794 560.859   1
  16 -22  17 501.073 441.913   1
  22  -6 -14-31.7139 470.373   1
   6  16  14-721.060 724.404   1
  22  -6 -11 1960.78 528.979   1
   6  16  11 1599.62 699.034   1
   6  16   8 1401.59 659.268   1
  22  -6  -8 599.182 474.013   1
  22  -6  -5 209.573 526.349   1
   6  16   5 735.965 608.035   1
  22  -6  -2 920.659 544.701   1
   6  16   2 752.964 547.303   1
  22  -6   1 267.011 514.653   1
  22  -6   4 2930.81 591.570   1
  22  -6   7 1157.44 580.457   1
  22  -6  10 3077.63 625.981   1
  22  -6  13 996.934 554.923   1
  22  -6  16 415.963 582.205   1
  22  -5 -15 4121.00 592.356   1
   5  17  15 3347.14 859.961   1
  17 -22  15 2581.49 543.460   1
   5  17  12-659.550 721.952   1
  22  -5 -12-453.405 450.923   1
  22  -5  -9-100.649 499.482   1
   5  17   9-53.4278 650.956   1
  22  -5  -6-187.076 516.290   1
   5  17   6-509.427 620.702   1
  22  -5  -3 469.669 500.221   1
  22  -5   0 865.457 513.102   1
  22  -5   3 9.31560 523.822   1
  22  -5   6 580.076 555.393   1
  22  -5   9 26.7488 581.399   1
  22  -5  12 1132.82 618.638   1
  22  -5  15 1752.77 617.135   1
  22  -4 -13 741.363 512.329   1
   4  18  13 542.279 699.118   1
  22  -4 -10 1351.13 515.690   1
  22  -4  -7 2751.25 561.295   1
  22  -4  -4 2077.10 568.782   1
  22  -4  -1 217.015 470.785   1
  22  -4   2-5.28656 519.901   1
  22  -4   5 1884.32 609.310   1
  22  -4   8 1626.14 594.419   1
  22  -4  11 367.265 538.655   1
  22  -3  -8 1834.73 539.112   1
  22  -3  -5 2184.22 528.755   1
  22  -3  -2 3007.87 578.994   1
  22  -3   1 545.704 489.269   1
  22  -3   4-223.773 553.744   1
  22  -3   7 865.963 581.907   1
  22  -3  10 2987.11 638.216   1
  22  -2  -6 261.437 493.242   1
  22  -2  -3 4085.66 594.396   1
  22  -2   0 4170.85 616.718   1
  22  -2   3 3927.90 655.768   1
  22  -2   6 1171.12 585.895   1
  19   4   0 564.180 428.466   1
  18   5   7 2556.72 581.233   1
  18   5   4 902.871 518.155   1
  18   5   1-47.8455 454.002   1
  18   5  -2 349.114 434.031   1
  18   5  -5 1555.52 450.551   1
  18   5  -8 4187.58 513.662   1
  23 -18   8 6025.02 776.270   1
  17   6   8 1381.76 621.003   1
  17   6   5 1049.68 510.831   1
  17   6   2 1696.73 526.898   1
  17   6  -1 312.235 447.141   1
  17   6  -4-44.5283 424.372   1
  17   6  -7 608.387 390.582   1
  23 -17   7 542.724 609.179   1
  23 -17  10 769.755 572.911   1
  16   7  12 919.759 614.883   1
  16   7   9 192.284 606.556   1
  16   7   6 1157.54 562.371   1
  16   7   3 3044.86 598.779   1
  16   7   0 4794.11 606.265   1
  16   7  -3 3473.33 529.804   1
  16   7  -6 464.069 400.155   1
  23 -16   6 912.655 616.843   1
  23 -16   9-1.61875 615.974   1
  23 -16  12 464.874 576.670   1
  15   8  13 660.413 669.459   1
  15   8  10 654.333 615.970   1
  15   8   7 1142.77 550.090   1
  15   8   4-234.911 547.527   1
  15   8   1 3631.44 586.141   1
  15   8  -2 1881.33 503.398   1
  15   8  -5 3096.62 477.439   1
  23 -15   5 2700.41 671.086   1
  23 -15   8 3825.93 699.598   1
  23 -15  11 1564.21 639.766   1
  23 -15  14-617.939 594.296   1
  14   9  14 411.028 646.182   1
  14   9  11 950.743 665.608   1
  14   9   8 1906.59 587.233   1
  14   9   5 3734.46 627.284   1
  14   9   2 1080.68 532.243   1
  14   9  -1-340.491 494.517   1
  23 -14   4 727.497 612.011   1
  14   9  -4 503.125 433.357   1
  23 -14   7 3615.55 700.932   1
  23 -14  10 1590.64 678.421   1
  23 -14  13 1343.41 636.333   1
  13  10  15 1941.86 690.371   1
  13  10  12 414.938 647.079   1
  13  10   9-806.180 592.296   1
  13  10   6 1333.35 569.309   1
  13  10   3 746.542 535.244   1
  13  10   0 1811.41 530.609   1
  23 -13   0 2117.65 658.408   1
  23 -13   3 680.312 582.129   1
  13  10  -3 1363.01 465.772   1
  23 -13   6 43.4640 593.569   1
  13  10  -6 209.936 402.200   1
  23 -13   9 543.571 601.623   1
  23 -13  12-17.2235 630.951   1
  23 -13  15 722.069 583.213   1
  12  11  13 1533.80 677.866   1
  12  11  10 1207.19 603.577   1
  12  11   7 119.971 558.747   1
  12  11   4 1817.33 566.831   1
  12  11   1 4126.85 591.583   1
  23 -12  -1 4676.82 742.842   1
  12  11  -2 2390.63 488.747   1
  23 -12   2 2076.65 667.000   1
  12  11  -5 1102.67 416.714   1
  23 -12   5 126.044 594.121   1
  23 -12   8 1856.88 645.045   1
  23 -12  11 1549.42 620.378   1
  23 -12  14 181.908 598.103   1
  11  12  14 2149.13 684.620   1
  11  12  11 2583.13 611.552   1
  11  12   8 3336.98 639.319   1
  11  12   5 5711.69 674.200   1
  11  12   2 1839.17 560.874   1
  23 -11  -2 1327.97 623.463   1
  11  12  -1 730.749 534.313   1
  23 -11   1 654.888 614.765   1
  23 -11   4 1121.53 612.067   1
  11  12  -4 1366.06 489.120   1
  23 -11   7 3.04237 578.503   1
  23 -11  10 2842.88 660.546   1
  23 -11  13 1519.95 591.177   1
  10  13  15 48.3202 715.749   1
  10  13  12 591.773 729.889   1
  10  13   9 189.537 700.755   1
  10  13   6 1679.58 647.515   1
  23 -10  -6 1335.58 616.254   1
  23 -10  -3 817.503 592.875   1
  10  13   3 777.489 591.636   1
  23 -10   0 1505.53 650.268   1
  10  13   0 1793.37 596.746   1
  23 -10   3 4320.38 729.739   1
  10  13  -3 3426.54 561.807   1
  23 -10   6 1656.49 651.035   1
  23 -10   9 133.605 579.109   1
  23 -10  12-126.340 575.575   1
  23 -10  15 608.275 585.717   1
   9  14  13 1548.19 733.837   1
   9  14  10 1822.80 731.162   1
  23  -9  -7-42.4038 561.774   1
   9  14   7 448.866 630.848   1
  23  -9  -4 1.45350 572.802   1
   9  14   4 250.949 577.484   1
   9  14   1 1217.54 561.945   1
  23  -9  -1 725.015 614.393   1
  23  -9   2 5919.95 782.997   1
   9  14  -2 4723.10 603.959   1
  23  -9   5 6104.78 754.839   1
  23  -9   8 2980.74 681.507   1
  23  -9  11 2708.94 632.608   1
  23  -9  14 698.690 570.563   1
   8  15  14 738.675 740.876   1
  23  -8 -11 923.116 573.103   1
   8  15  11 940.769 692.625   1
   8  15   8 232.092 631.882   1
  23  -8  -8 1318.43 555.459   1
  23  -8  -5 746.776 617.463   1
   8  15   5 1452.26 615.061   1
  23  -8  -2 1411.60 575.298   1
   8  15   2 1391.04 587.396   1
  23  -8   1 432.775 570.466   1
   8  15  -1 1274.76 534.603   1
  23  -8   4 324.358 564.399   1
  23  -8   7 1706.18 594.104   1
  23  -8  10 1742.98 584.304   1
  23  -8  13 1308.63 605.846   1
  23  -7 -12 247.205 523.340   1
   7  16  12 191.532 725.451   1
  23  -7  -9-362.414 571.090   1
   7  16   9 201.149 677.162   1
  23  -7  -6-74.3309 505.972   1
   7  16   6-263.639 598.496   1
  23  -7  -3 1718.24 569.752   1
   7  16   3 738.806 565.601   1
  23  -7   0 3028.71 665.094   1
   7  16   0 2116.85 537.099   1
  23  -7   3 1272.64 588.292   1
  23  -7   6 805.355 557.368   1
  23  -7   9 717.731 555.397   1
  23  -7  12-337.318 577.151   1
   6  17  10 1261.94 666.624   1
  23  -6 -10 948.634 516.390   1
  23  -6  -7 2149.28 587.787   1
   6  17   7 1358.77 689.048   1
  23  -6  -4 550.095 541.657   1
  23  -6  -1-183.611 529.466   1
  23  -6   2 772.360 539.663   1
  23  -6   5 2289.18 627.021   1
  23  -6   8 2996.18 646.014   1
  23  -5  -8 2119.20 594.610   1
  23  -5  -5 3525.50 633.001   1
  23  -5  -2 1280.44 513.802   1
  23  -5   1 596.263 498.516   1
  23  -5   4 203.715 544.129   1
  23  -5   7 2902.19 624.846   1
  23  -4   0 1752.61 553.175   1
  16   8   5 1239.63 575.276   1
  16   8   2 30.0602 517.128   1
  16   8  -1 2.21126 484.808   1
  24 -16   4-152.728 633.497   1
  16   8  -4-473.836 436.980   1
  15   9   6 2128.55 619.633   1
  15   9   3 2989.30 615.468   1
  15   9   0 3876.14 587.326   1
  15   9  -3 1540.12 469.704   1
  24 -15   3 2550.86 691.398   1
  24 -15   6-25.4709 627.197   1
  14  10   7 433.478 563.908   1
  14  10   4 1323.86 581.754   1
  14  10   1-471.424 522.538   1
  14  10  -2 1333.55 498.306   1
  24 -14   2 1454.13 679.099   1
  24 -14   5 1404.42 649.715   1
  24 -14   8 2635.09 699.554   1
  13  11   8 933.785 585.297   1
  13  11   5 2676.25 647.572   1
  13  11   2 3205.05 593.760   1
  24 -13  -2 3445.11 708.365   1
  13  11  -1 841.184 485.743   1
  24 -13   1-77.8118 628.292   1
  24 -13   4-331.833 646.672   1
  24 -13   7 67.9461 624.814   1
  12  12   9 411.359 620.276   1
  12  12   6 3403.25 661.595   1
  24 -12  -3 10139.3 907.820   1
  12  12   3 9499.08 775.633   1
  24 -12   0 7989.60 839.349   1
  12  12   0 7351.75 692.433   1
  24 -12   3 2236.84 677.645   1
  24 -12   6 1128.53 633.220   1
  24 -12   9-98.0390 644.520   1
  11  13   7 537.327 695.682   1
  11  13   4 420.435 583.913   1
  24 -11  -4-99.8857 626.085   1
  24 -11  -1 16.0491 593.500   1
  11  13   1 280.938 577.316   1
  24 -11   2 377.579 602.243   1
  24 -11   5 1035.36 627.391   1
  24 -11   8 4294.14 719.625   1
  24 -10  -8 3061.85 635.452   1
  10  14   8 3632.10 729.877   1
  24 -10  -5 3076.86 676.107   1
  10  14   5 4426.40 705.428   1
  24 -10  -2 1945.60 659.116   1
  10  14   2 1648.32 613.011   1
  24 -10   1 340.706 609.360   1
  24 -10   4-52.3524 616.277   1
  24 -10   7 3746.52 690.107   1
  24  -9  -6 797.073 569.420   1
   9  15   6 646.410 616.577   1
  24  -9  -3 3223.91 666.150   1
   9  15   3 3833.61 672.720   1
  24  -9   0 4521.45 715.871   1
  24  -9   3 3420.85 683.917   1
  24  -9   6-269.447 600.419   1
  24  -8  -4 80.6424 578.507   1
   8  16   4-328.007 592.960   1
  24  -8  -1-267.363 560.103   1
   8  16   1-35.8973 546.930   1
  24  -8   2 313.008 586.508   1
  24  -8   5 645.605 594.079   1
   0   0   0    0.00    0.00   0

TITL AGR371cc in R-3
REM R-3 (#148 in standard setting)
CELL 0.71073  20.930086  20.930086  37.685242  90.0000  90.0000 120.0000
ZERR    3.00   0.000825   0.000825   0.001733   0.0000   0.0000   0.0000
LATT  3
SYMM -y, x-y, z
SYMM -x+y,-x, z
SFAC C H N Mg Cl Sb
UNIT 510.00 324.00 54.00 9.00 72.00 6.00
TREF
HKLF 4
END
;
_shelx_hkl_checksum              84933
_shelx_fab_file
;
0 0 6 197.9903 1.4550
0 0 9 49.2926 1.0287
0 0 12 -83.0448 2.9787
0 0 15 40.5813 0.8111
0 0 18 -1.4711 0.0578
0 0 21 -13.0236 0.3569
0 0 24 10.7760 -1.1375
0 0 27 3.9775 -0.7482
0 0 30 -5.7269 -0.6063
0 0 33 11.0663 -0.9840
0 0 36 -6.9156 -0.3926
0 0 39 -1.6574 0.0325
0 0 42 2.0618 -0.0505
0 1 -43 3.1006 -0.3138
0 1 -40 -6.4246 -0.2512
0 1 -37 -1.6037 0.3339
0 1 -34 5.3511 0.5997
0 1 -31 -2.4933 0.5052
0 1 -28 4.3301 1.0558
0 1 -25 -2.3588 0.6139
0 1 -22 1.6467 -0.0328
0 1 -19 10.9241 0.4933
0 1 -16 -8.8149 -1.2448
0 1 -13 -38.2147 -1.9474
0 1 -10 96.8419 -0.7102
0 1 -7 -44.2407 -1.2375
0 1 5 252.4015 0.8457
0 1 8 -66.4227 1.3399
0 1 11 4.7479 1.5076
0 1 14 30.1251 0.8822
0 1 17 -21.8359 0.9976
0 1 20 -4.1997 -0.1901
0 1 23 15.9270 -0.5392
0 1 26 -5.2959 -0.3337
0 1 29 0.7240 -0.9350
0 1 32 3.8848 -0.8036
0 1 35 -2.9587 -0.3669
0 1 38 1.6649 -0.2752
0 1 41 -3.3297 0.1457
0 1 44 0.9826 0.5425
0 2 -44 3.3601 -0.1900
0 2 -41 -5.5142 -0.0273
0 2 -38 0.9864 0.0221
0 2 -35 -4.9338 0.1149
0 2 -32 0.3089 0.4219
0 2 -29 5.3639 0.4450
0 2 -26 -6.9295 0.2866
0 2 -23 7.1654 0.3523
0 2 -20 -2.9158 0.1149
0 2 -17 0.2589 -0.3717
0 2 -14 -1.4521 -0.5375
0 2 -11 3.5864 -0.8934
0 2 -8 35.5742 -0.9308
0 2 -5 -6.2151 0.1384
0 2 4 266.5432 0.3092
0 2 7 -147.4354 -0.0336
0 2 10 114.2374 0.8357
0 2 13 -20.3965 0.9244
0 2 16 -28.1565 0.6324
0 2 19 22.4214 0.0034
0 2 22 -5.7265 -0.3356
0 2 25 1.9952 -0.2207
0 2 28 -1.5441 -0.3844
0 2 31 2.1557 -0.4441
0 2 34 -0.5094 -0.3253
0 2 37 -0.4922 -0.0894
0 2 40 -2.7325 0.0518
0 2 43 -1.2611 -0.0419
0 3 -42 5.6463 -0.2205
0 3 -39 -8.0124 -0.1599
0 3 -36 2.7059 -0.1092
0 3 -33 -2.1722 -0.0352
0 3 -30 -1.6992 0.2988
0 3 -27 -4.9589 0.0669
0 3 -24 11.2632 -0.1856
0 3 -21 -17.3101 0.3031
0 3 -18 27.4297 0.1139
0 3 -15 -23.3414 -0.1167
0 3 -12 5.8907 0.1123
0 3 -9 33.5023 -0.6739
0 3 -6 -31.6180 -0.0273
0 3 -3 116.3645 0.4351
0 3 0 -45.1467 -0.5780
0 3 3 105.1004 -0.0660
0 3 6 -17.7715 -0.0132
0 3 9 76.9400 -0.3167
0 3 12 -58.0847 0.4605
0 3 15 44.8607 0.2823
0 3 18 -31.5060 -0.2591
0 3 21 6.5101 0.1344
0 3 24 9.7414 0.0793
0 3 27 -12.9637 -0.2017
0 3 30 9.5265 0.0702
0 3 33 -1.3243 -0.1327
0 3 36 -3.1359 -0.2059
0 3 39 -2.2760 -0.1326
0 3 42 -2.8938 0.1845
0 4 -43 10.2154 -0.4960
0 4 -40 -4.0895 -0.0915
0 4 -37 -2.4840 -0.0741
0 4 -34 -2.9935 0.0328
0 4 -31 2.1303 -0.1607
0 4 -28 0.0748 -0.1838
0 4 -25 2.6100 -0.1622
0 4 -22 -9.4738 -0.0093
0 4 -19 18.9906 0.2719
0 4 -16 -24.8005 0.4234
0 4 -13 35.3109 0.0236
0 4 -10 -33.7488 -0.2133
0 4 -7 27.9653 0.1033
0 4 -4 28.6870 0.1092
0 4 -1 -36.8757 -0.1713
0 4 2 83.4925 0.0057
0 4 5 0.4284 -0.4810
0 4 8 23.0677 -0.5625
0 4 11 19.0664 0.2488
0 4 14 -13.7899 -0.1811
0 4 17 -14.8059 -0.2582
0 4 20 20.0359 0.2939
0 4 23 -13.1952 0.0956
0 4 26 3.7511 0.0710
0 4 29 4.7068 0.0808
0 4 32 -6.2869 -0.0062
0 4 35 1.6166 -0.0593
0 4 38 -0.0632 -0.1009
0 4 41 -1.9157 0.1885
0 5 -41 -8.0937 0.2721
0 5 -38 -0.9697 0.0075
0 5 -35 16.2259 -0.1912
0 5 -32 -8.3453 -0.0480
0 5 -29 1.1444 -0.1307
0 5 -26 1.9221 -0.2751
0 5 -23 -4.0311 0.1050
0 5 -20 9.5892 0.1155
0 5 -17 -8.7028 -0.0943
0 5 -14 11.0027 0.2898
0 5 -11 -6.9661 -0.0319
0 5 -8 -6.6748 -0.1324
0 5 -5 13.5516 0.1758
0 5 -2 -41.1133 -0.3194
0 5 1 50.3462 -0.0977
0 5 4 3.0757 0.2659
0 5 7 12.0858 -0.5428
0 5 10 21.4340 -0.1299
0 5 13 -19.6905 -0.0135
0 5 16 6.8914 -0.3734
0 5 19 -0.3581 0.3593
0 5 22 -6.0583 0.2357
0 5 25 -0.0255 -0.1596
0 5 28 4.3666 -0.0123
0 5 31 -4.5770 0.0384
0 5 34 6.9282 -0.0112
0 5 37 -1.9009 0.1135
0 5 40 -6.4171 -0.1423
0 5 43 8.2799 -0.4937
0 6 -42 -4.9365 0.2277
0 6 -39 19.8852 -0.0379
0 6 -36 0.7541 -0.0316
0 6 -33 -11.4580 -0.0129
0 6 -30 14.6181 -0.0695
0 6 -27 0.2507 0.1256
0 6 -24 -10.3312 -0.0638
0 6 -21 20.2723 -0.2476
0 6 -18 -21.7883 0.1084
0 6 -15 14.8000 -0.1086
0 6 -12 -10.5661 -0.2076
0 6 -9 8.2838 0.1838
0 6 -6 -33.2964 -0.5266
0 6 -3 -6.0373 -0.1381
0 6 0 7.8446 0.6051
0 6 3 -16.4094 -0.3512
0 6 6 36.0560 0.0141
0 6 9 -18.4819 0.2733
0 6 12 20.3639 -0.4359
0 6 15 -9.6024 0.2516
0 6 18 -5.7838 0.3247
0 6 21 0.6515 -0.3101
0 6 24 -0.7232 -0.0967
0 6 27 -0.1494 -0.0173
0 6 30 4.3690 -0.0315
0 6 33 -1.7648 0.0768
0 6 36 -3.1170 -0.0637
0 6 39 -0.0296 -0.3348
0 6 42 7.6857 -0.0432
0 7 -40 14.3880 -0.1176
0 7 -37 -1.7274 0.0490
0 7 -34 -0.8031 0.1512
0 7 -31 11.0893 0.0961
0 7 -28 -11.7603 -0.0192
0 7 -25 8.3854 0.1712
0 7 -22 3.0030 -0.2092
0 7 -19 -13.6270 -0.3341
0 7 -16 11.4890 0.1835
0 7 -13 -6.7534 -0.2870
0 7 -10 -3.6996 -0.2551
0 7 -7 -20.9597 0.0965
0 7 -4 -0.3067 -0.4100
0 7 -1 -25.3415 0.1470
0 7 2 3.1459 0.2340
0 7 5 -0.2428 -0.1834
0 7 8 9.6614 0.4251
0 7 11 0.9630 0.2053
0 7 14 -7.2004 -0.2796
0 7 17 6.9814 0.0908
0 7 20 -5.9070 0.0044
0 7 23 -3.9224 -0.1541
0 7 26 6.6501 0.0495
0 7 29 -2.1707 -0.1125
0 7 32 -6.8596 -0.2889
0 7 35 6.3707 -0.0456
0 7 38 0.3233 0.0510
0 7 41 2.9841 0.1848
0 8 -41 8.7703 0.3039
0 8 -38 -1.9149 0.0349
0 8 -35 -1.3038 -0.1296
0 8 -32 7.2992 0.0652
0 8 -29 -16.9685 0.1606
0 8 -26 12.9702 -0.0755
0 8 -23 3.6538 -0.0255
0 8 -20 -18.8164 0.0051
0 8 -17 14.6089 -0.2832
0 8 -14 -6.1153 0.0942
0 8 -11 -17.3270 0.0238
0 8 -8 14.1455 -0.5262
0 8 -5 -23.5137 0.2867
0 8 -2 -12.1361 -0.0244
0 8 1 -2.3798 -0.4025
0 8 4 -1.9060 0.5053
0 8 7 -4.2898 0.0128
0 8 10 10.8696 -0.2091
0 8 13 -1.2352 0.2618
0 8 16 -4.6478 -0.2025
0 8 19 3.7399 -0.0596
0 8 22 -2.2247 0.2275
0 8 25 3.8215 -0.2760
0 8 28 -10.6272 -0.2486
0 8 31 3.1048 0.0790
0 8 34 8.6122 -0.0167
0 8 37 -7.5602 0.1604
0 8 40 7.7090 -0.2063
0 9 -39 -5.3318 -0.2067
0 9 -36 4.7387 -0.0568
0 9 -33 -0.2496 -0.1106
0 9 -30 -17.7091 0.0926
0 9 -27 12.0308 0.0328
0 9 -24 -7.6279 -0.1299
0 9 -21 0.3707 0.0099
0 9 -18 8.8997 0.0459
0 9 -15 -19.0837 -0.1249
0 9 -12 2.6952 0.1953
0 9 -9 7.4427 -0.0374
0 9 -6 -17.7353 -0.0845
0 9 -3 -0.8476 0.0925
0 9 0 -3.4776 -0.3373
0 9 3 -9.5827 -0.0845
0 9 6 5.9650 0.1786
0 9 9 -0.3769 -0.1953
0 9 12 -0.5655 -0.1069
0 9 15 6.7005 -0.0072
0 9 18 -2.9839 -0.0634
0 9 21 1.3664 -0.0785
0 9 24 -4.9804 0.0588
0 9 27 1.1253 -0.0588
0 9 30 3.5127 0.0567
0 9 33 0.4093 0.0205
0 9 36 1.0359 -0.1437
0 9 39 3.0192 -0.0202
0 10 -37 1.4787 -0.1785
0 10 -34 -2.7712 0.0238
0 10 -31 -17.6421 -0.0487
0 10 -28 10.1502 -0.1985
0 10 -25 -9.4220 0.0105
0 10 -22 4.5432 -0.0197
0 10 -19 5.4188 -0.0026
0 10 -16 -13.6095 0.2153
0 10 -13 3.8300 -0.0785
0 10 -10 7.7289 -0.0506
0 10 -7 -16.9596 0.2784
0 10 -4 14.7504 -0.2168
0 10 -1 -13.2795 -0.1982
0 10 2 -2.5063 0.1270
0 10 5 10.1179 -0.3832
0 10 8 -13.2747 0.0049
0 10 11 12.7592 -0.0503
0 10 14 -3.3832 -0.2634
0 10 17 0.9329 0.1036
0 10 20 -3.3355 0.0022
0 10 23 4.1335 -0.0602
0 10 26 -2.3737 0.0925
0 10 29 4.1802 0.0259
0 10 32 1.0415 -0.0556
0 10 35 -4.0197 -0.1053
0 10 38 13.3883 0.2159
0 11 -35 -2.6567 0.1498
0 11 -32 -11.5163 -0.2056
0 11 -29 2.5863 -0.1568
0 11 -26 -12.6760 0.0595
0 11 -23 12.5143 -0.0063
0 11 -20 -2.3227 -0.1175
0 11 -17 -0.7688 0.1137
0 11 -14 1.2751 -0.0989
0 11 -11 1.6135 -0.0792
0 11 -8 -5.4817 0.2227
0 11 -5 7.4648 -0.0724
0 11 -2 -4.9334 -0.1617
0 11 1 2.6666 0.0807
0 11 4 -1.3759 -0.2316
0 11 7 -4.7094 -0.0725
0 11 10 7.6390 0.1190
0 11 13 -4.3022 -0.1769
0 11 16 -3.3446 -0.0026
0 11 19 6.3254 0.0072
0 11 22 -2.9532 -0.0786
0 11 25 -2.7773 0.0252
0 11 28 5.6920 0.0210
0 11 31 0.1360 -0.0051
0 11 34 0.8668 0.1322
0 11 37 5.8370 -0.1674
0 12 -36 -1.2056 -0.2789
0 12 -33 -6.7474 -0.0408
0 12 -30 -3.1128 0.0557
0 12 -27 -6.5502 -0.0211
0 12 -24 7.8771 -0.0864
0 12 -21 0.9054 -0.0878
0 12 -18 -6.8305 -0.0293
0 12 -15 9.5846 -0.0704
0 12 -12 -0.4350 -0.0632
0 12 -9 -4.6255 0.0131
0 12 -6 8.2671 -0.0981
0 12 -3 -6.2941 -0.0169
0 12 0 4.3220 0.0546
0 12 3 -5.3963 0.0205
0 12 6 -0.1284 0.0561
0 12 9 4.3030 -0.0388
0 12 12 -7.1577 -0.0325
0 12 15 1.6347 0.0402
0 12 18 -2.6885 -0.1302
0 12 21 -1.3027 -0.0396
0 12 24 1.9812 -0.0117
0 12 27 3.2798 0.0666
0 12 30 -1.8097 0.0420
0 12 33 -1.8837 -0.2224
0 12 36 4.4025 -0.2836
0 13 -34 -0.8291 0.1281
0 13 -31 -2.2323 0.0315
0 13 -28 -4.9227 -0.1112
0 13 -25 1.8937 -0.0172
0 13 -22 -5.7515 0.0440
0 13 -19 6.3498 -0.0191
0 13 -16 1.2681 -0.2043
0 13 -13 -0.3490 -0.0312
0 13 -10 0.6180 -0.0800
0 13 -7 4.0116 -0.1552
0 13 -4 -5.5829 0.1172
0 13 -1 -2.3615 0.0514
0 13 2 2.4711 0.0032
0 13 5 1.5607 0.1358
0 13 8 -3.2396 -0.0530
0 13 11 -6.1919 -0.2040
0 13 14 1.1544 0.1286
0 13 17 -2.2096 -0.0078
0 13 20 1.8863 -0.0245
0 13 23 -2.4476 0.0268
0 13 26 2.5414 -0.2912
0 13 29 -0.4125 -0.1589
0 13 32 -5.2075 0.0738
0 13 35 2.6235 0.3661
0 14 -32 0.0372 0.1166
0 14 -29 -3.6872 -0.1765
0 14 -26 -4.5174 0.1793
0 14 -23 -2.6464 -0.0105
0 14 -20 2.0452 -0.0786
0 14 -17 6.9644 -0.0967
0 14 -14 -9.6142 -0.0527
0 14 -11 7.6406 -0.0071
0 14 -8 0.2619 -0.0578
0 14 -5 -6.6774 -0.0597
0 14 -2 1.7009 0.0509
0 14 1 0.5180 0.0264
0 14 4 3.1044 -0.2006
0 14 7 -6.6040 0.0272
0 14 10 -0.4072 -0.0575
0 14 13 -2.4082 0.0138
0 14 16 0.7272 0.1021
0 14 19 0.6990 -0.1602
0 14 22 -5.3229 -0.2683
0 14 25 6.1622 -0.0466
0 14 28 -1.1806 0.2147
0 14 31 -3.9143 0.1227
0 15 -30 -9.5412 -0.4971
0 15 -27 -7.1264 0.3134
0 15 -24 9.5243 0.0432
0 15 -21 -0.7712 -0.1793
0 15 -18 -5.9963 -0.0082
0 15 -15 -0.6818 0.0541
0 15 -12 8.6667 0.0045
0 15 -9 -5.4708 -0.0519
0 15 -6 -1.9622 -0.0472
0 15 -3 1.7533 -0.1253
0 15 0 4.9611 -0.0749
0 15 3 -4.9622 -0.0649
0 15 6 3.4982 -0.1009
0 15 9 -2.3866 -0.0333
0 15 12 1.9221 -0.0240
0 15 15 -3.7220 -0.1066
0 15 18 -2.6886 -0.1276
0 15 21 2.7132 0.1739
0 15 24 1.4061 0.0740
0 15 27 3.1687 -0.1486
0 15 30 -8.7193 -0.3973
0 16 -28 -0.0434 0.6087
0 16 -25 8.5862 -0.0662
0 16 -22 -10.5164 -0.2824
0 16 -19 1.4924 -0.0358
0 16 -16 1.1455 0.0420
0 16 -13 6.3012 0.0492
0 16 -10 -3.4671 0.0214
0 16 -7 -4.8129 -0.0854
0 16 -4 9.3768 -0.1004
0 16 -1 -2.5227 -0.1838
0 16 2 4.2485 -0.0208
0 16 5 3.7510 -0.0514
0 16 8 -2.0035 -0.1176
0 16 11 1.9935 -0.0380
0 16 14 -4.0050 0.1490
0 16 17 -0.5227 0.0064
0 16 20 -3.8070 -0.0764
0 16 23 6.9750 -0.2273
0 16 26 -0.7985 0.2338
0 16 29 -3.9216 0.0459
0 17 -26 -2.7890 -0.3967
0 17 -23 -4.5912 -0.3423
0 17 -20 11.3878 0.0445
0 17 -17 2.2368 0.1367
0 17 -14 -5.1699 0.0531
0 17 -11 -1.3315 -0.1346
0 17 -8 4.8273 -0.1401
0 17 -5 7.6700 -0.0066
0 17 -2 -2.8647 -0.0270
0 17 1 2.8492 -0.1663
0 17 4 6.5817 0.0946
0 17 7 -0.6424 0.0761
0 17 10 3.9257 0.0367
0 17 13 -6.7212 -0.0726
0 17 16 0.7303 -0.2063
0 17 19 -4.7734 0.1488
0 17 22 0.7733 0.3563
0 17 25 1.2550 -0.0054
0 18 -21 0.8152 0.3544
0 18 -18 -2.0928 -0.0256
0 18 -15 1.2975 -0.1520
0 18 -12 1.1719 -0.2559
0 18 -9 10.0827 0.0975
0 18 -6 -0.8155 -0.0538
0 18 -3 0.3304 0.0504
0 18 0 -0.8798 0.0247
0 18 3 11.5322 0.0286
0 18 6 -2.1355 -0.0399
0 18 9 4.9033 -0.0573
0 18 12 -5.5182 0.0574
0 18 15 -2.4037 0.0196
0 18 18 -5.2158 0.1816
0 18 21 0.1417 -0.0412
0 19 -19 0.8373 -0.2042
0 19 -16 -0.1710 -0.1482
0 19 -13 9.1901 -0.1284
0 19 -10 -0.6236 0.0350
0 19 -7 1.3891 0.0499
0 19 -4 1.5889 -0.0191
0 19 -1 0.0143 0.0176
0 19 2 8.9245 -0.0408
0 19 5 -2.3289 -0.0393
0 19 8 1.0000 -0.1398
0 19 11 -0.9079 0.1418
0 19 14 -2.0232 -0.2807
0 19 17 -1.7497 0.1965
0 19 20 -6.7333 -0.1324
0 20 -14 -2.0762 -0.0806
0 20 -11 9.5614 0.0021
0 20 -8 -0.6074 0.0749
0 20 -5 -2.6227 0.1009
0 20 -2 4.4107 -0.0901
0 20 1 1.4825 -0.2955
0 20 4 -0.7215 -0.0441
0 20 7 1.0187 -0.2060
0 20 10 -0.7067 -0.0518
0 20 13 2.3532 -0.2751
0 21 -6 6.2113 -0.1603
0 21 -3 -5.5767 -0.1715
0 21 0 3.1375 -0.1783
0 21 3 2.7220 -0.1855
0 21 6 -4.2850 -0.1841
1 1 -42 3.5838 -0.2059
1 1 -39 -5.2944 -0.1194
1 1 -36 -5.0631 0.1599
1 1 -33 3.9678 0.6593
1 1 -30 2.6036 0.3311
1 1 -27 -5.6659 0.4858
1 1 -24 10.1452 0.5217
1 1 -21 -10.7451 -0.0824
1 1 -18 4.9942 0.0311
1 1 -15 19.5975 -0.5496
1 1 -12 -64.0151 -1.6023
1 1 -9 96.4236 -0.7120
1 1 -6 2.6438 -0.3365
1 1 6 37.9969 0.3093
1 1 9 70.2077 1.0721
1 1 12 -44.6180 1.3539
1 1 15 5.1800 0.6689
1 1 18 13.2717 0.0442
1 1 21 -13.6449 -0.1889
1 1 24 10.9242 -0.3574
1 1 27 -2.9161 -0.3433
1 1 30 -0.5193 -0.5023
1 1 33 4.4127 -0.5357
1 1 36 -4.9505 -0.1407
1 1 39 0.3919 -0.1043
1 1 42 -3.3570 -0.0288
1 2 -43 5.7529 -0.7922
1 2 -40 -7.9946 0.0712
1 2 -37 0.8839 0.0700
1 2 -34 -3.2125 0.2399
1 2 -31 -1.0136 0.1975
1 2 -28 -2.8698 -0.0295
1 2 -25 8.0209 0.0369
1 2 -22 -13.2173 0.4478
1 2 -19 17.2850 -0.0303
1 2 -16 -7.1668 -0.1150
1 2 -13 -21.2496 -0.2225
1 2 -10 45.6884 -0.6944
1 2 -7 1.2845 -0.0769
1 2 -4 25.2420 0.3049
1 2 -1 112.3599 -0.2949
1 2 2 -80.6696 -0.0601
1 2 5 181.5265 0.1489
1 2 8 -65.7529 -0.0928
1 2 11 23.1986 0.5902
1 2 14 25.1444 0.3986
1 2 17 -35.2151 -0.0317
1 2 20 17.0665 0.1175
1 2 23 2.4903 -0.1171
1 2 26 -8.6618 -0.1132
1 2 29 6.4145 -0.0951
1 2 32 1.2753 -0.3912
1 2 35 -6.0088 -0.1564
1 2 38 4.2659 0.0310
1 2 41 -7.9402 0.4160
1 3 -41 -0.2544 0.6608
1 3 -38 -8.1033 -0.1441
1 3 -35 0.8972 -0.1281
1 3 -32 -0.0739 -0.4102
1 3 -29 -1.4229 -0.0780
1 3 -26 -0.1607 0.2327
1 3 -23 -5.2384 0.0158
1 3 -20 8.4737 0.1189
1 3 -17 0.1710 0.3055
1 3 -14 -11.9105 -0.2050
1 3 -11 11.3034 0.0830
1 3 -8 30.4115 0.1740
1 3 -5 -35.2025 -0.0338
1 3 -2 80.3568 0.2610
1 3 1 -14.2515 -0.3178
1 3 4 85.7820 -0.4397
1 3 7 -44.7754 -0.0927
1 3 10 85.5124 0.0188
1 3 13 -57.6315 -0.0406
1 3 16 22.5528 -0.0809
1 3 19 1.3336 0.1166
1 3 22 -13.0463 0.0287
1 3 25 9.7684 0.0616
1 3 28 -3.2095 -0.0070
1 3 31 2.9781 -0.0233
1 3 34 -0.2748 0.2272
1 3 37 -1.3242 0.1067
1 3 40 -3.1228 -0.2908
1 3 43 5.4640 -0.6210
1 4 -42 -3.1046 0.3670
1 4 -39 3.7391 -0.5883
1 4 -36 5.9651 -0.2383
1 4 -33 -10.8176 -0.0173
1 4 -30 4.2051 0.0373
1 4 -27 -3.4074 0.0353
1 4 -24 2.3454 -0.1568
1 4 -21 5.8929 -0.1720
1 4 -18 -3.4158 0.2228
1 4 -15 -15.6781 0.2522
1 4 -12 42.3306 0.1928
1 4 -9 -44.9757 0.0953
1 4 -6 7.5974 -0.1859
1 4 -3 42.9318 0.0686
1 4 0 -45.2419 -0.1635
1 4 3 70.7445 -0.0340
1 4 6 -15.6937 -0.2397
1 4 9 43.7511 -0.3879
1 4 12 -24.0505 0.0859
1 4 15 17.0884 -0.1683
1 4 18 -15.2459 -0.0032
1 4 21 1.9713 0.1500
1 4 24 -0.2302 -0.0371
1 4 27 4.1598 0.1374
1 4 30 1.9397 0.2396
1 4 33 -2.2714 0.1064
1 4 36 0.5513 -0.2204
1 4 39 -2.6750 -0.5233
1 4 42 7.8924 0.3546
1 5 -40 13.0471 -0.3161
1 5 -37 -16.3632 0.2044
1 5 -34 7.5963 0.0864
1 5 -31 7.2299 0.0230
1 5 -28 -7.0428 -0.0297
1 5 -25 4.2848 -0.3115
1 5 -22 6.2992 0.0141
1 5 -19 -18.4497 0.3011
1 5 -16 17.4600 -0.1950
1 5 -13 3.3151 -0.0204
1 5 -10 -21.6349 0.0882
1 5 -7 -7.3798 -0.4766
1 5 -4 19.3658 0.2474
1 5 -1 -57.4853 0.0715
1 5 2 52.8217 -0.4556
1 5 5 -2.0817 0.2561
1 5 8 5.2644 -0.0022
1 5 11 14.5485 -0.1354
1 5 14 -9.8129 0.1724
1 5 17 -5.0700 -0.1283
1 5 20 4.5686 -0.1705
1 5 23 -2.0471 0.2847
1 5 26 1.0181 0.1708
1 5 29 2.5948 -0.1557
1 5 32 -5.8769 -0.2358
1 5 35 4.9322 -0.1266
1 5 38 5.9538 0.1258
1 5 41 -3.9221 0.2851
1 6 -41 -0.5130 0.1904
1 6 -38 -0.2788 0.2067
1 6 -35 13.5774 0.0459
1 6 -32 -3.1656 0.0159
1 6 -29 -8.9580 -0.0700
1 6 -26 15.0519 0.1614
1 6 -23 -11.2455 0.0748
1 6 -20 4.7660 -0.2716
1 6 -17 5.8233 -0.0450
1 6 -14 -7.4043 -0.1886
1 6 -11 -14.5525 -0.1910
1 6 -8 11.5678 0.0777
1 6 -5 -28.1604 -0.4175
1 6 -2 -24.6666 -0.1446
1 6 1 25.8846 0.3227
1 6 4 -30.2237 -0.0201
1 6 7 36.7600 0.3433
1 6 10 -18.9382 0.2289
1 6 13 9.5995 -0.4351
1 6 16 -0.2161 0.2224
1 6 19 -4.2261 0.2347
1 6 22 -3.3076 -0.0407
1 6 25 6.7024 -0.1009
1 6 28 -7.8458 -0.3652
1 6 31 2.5349 -0.2385
1 6 34 6.6808 0.2190
1 6 37 -1.3677 0.2039
1 6 40 -3.8438 -0.3257
1 7 -39 7.2328 -0.2788
1 7 -36 1.0648 -0.1719
1 7 -33 1.1436 0.2153
1 7 -30 -8.8589 0.2157
1 7 -27 10.0558 -0.0546
1 7 -24 -2.5679 0.0463
1 7 -21 -4.3263 -0.1096
1 7 -18 5.1771 -0.1975
1 7 -15 -7.6721 0.1381
1 7 -12 -8.0147 -0.1612
1 7 -9 17.6267 -0.4971
1 7 -6 -42.0941 0.1524
1 7 -3 1.4674 -0.1128
1 7 0 -10.4459 -0.0187
1 7 3 -9.0542 0.3890
1 7 6 9.2293 -0.1306
1 7 9 -0.6325 0.0343
1 7 12 4.0985 0.2814
1 7 15 -7.7792 0.0366
1 7 18 8.1832 0.0218
1 7 21 -3.2935 -0.0306
1 7 24 1.7960 -0.3123
1 7 27 -10.2772 -0.1669
1 7 30 10.3771 0.1607
1 7 33 -3.6619 -0.0677
1 7 36 1.1540 -0.1726
1 7 39 2.4332 -0.2193
1 8 -40 -1.3481 -0.7285
1 8 -37 5.3601 0.2664
1 8 -34 1.8632 0.1512
1 8 -31 -13.3561 -0.0121
1 8 -28 5.2384 -0.1371
1 8 -25 -6.5088 -0.0722
1 8 -22 4.4030 0.0943
1 8 -19 -0.0108 0.2234
1 8 -16 -7.9462 -0.2782
1 8 -13 4.2197 0.0769
1 8 -10 -1.9312 -0.0330
1 8 -7 -18.4612 -0.2241
1 8 -4 4.7039 0.2969
1 8 -1 -13.6001 -0.0712
1 8 2 -10.4456 -0.3225
1 8 5 13.2126 0.2075
1 8 8 -16.0487 -0.0356
1 8 11 11.2220 -0.0360
1 8 14 0.9203 0.2107
1 8 17 3.7451 -0.2510
1 8 20 -2.8332 -0.1642
1 8 23 -1.0755 0.2268
1 8 26 -2.2923 -0.0418
1 8 29 4.8175 -0.1297
1 8 32 -7.6112 -0.0958
1 8 35 11.6667 -0.1413
1 8 38 -2.9254 0.4415
1 9 -38 5.7947 0.4485
1 9 -35 -0.8275 -0.1086
1 9 -32 -14.3826 -0.3463
1 9 -29 1.0872 -0.2011
1 9 -26 -5.3590 0.2039
1 9 -23 3.4520 0.0759
1 9 -20 2.9742 0.0362
1 9 -17 -6.0461 -0.0330
1 9 -14 -4.2354 0.0089
1 9 -11 6.8476 0.1398
1 9 -8 -12.5552 0.1096
1 9 -5 11.9208 -0.0138
1 9 -2 -17.2950 -0.0597
1 9 1 -3.1066 -0.1465
1 9 4 9.7665 -0.2164
1 9 7 -20.2703 0.0480
1 9 10 21.9181 -0.1427
1 9 13 -8.4267 -0.1053
1 9 16 7.8025 0.0031
1 9 19 -6.7527 -0.0638
1 9 22 8.1633 0.0739
1 9 25 -7.8128 0.0214
1 9 28 6.1039 -0.0970
1 9 31 -4.9856 0.0745
1 9 34 8.2491 0.2307
1 9 37 2.5718 -0.0820
1 10 -36 -5.4343 -0.4876
1 10 -33 -9.7445 -0.2147
1 10 -30 -1.8212 -0.0151
1 10 -27 -4.6279 0.1377
1 10 -24 4.3415 -0.0365
1 10 -21 -1.8334 -0.1557
1 10 -18 -1.0317 0.0323
1 10 -15 -2.8504 0.1875
1 10 -12 5.5335 0.0327
1 10 -9 -2.6969 0.0176
1 10 -6 1.9143 0.0817
1 10 -3 -4.3024 -0.1320
1 10 0 -1.7848 -0.0326
1 10 3 0.3788 -0.0886
1 10 6 -3.7124 -0.1891
1 10 9 7.4002 0.0048
1 10 12 -3.6920 -0.1062
1 10 15 1.4018 -0.0538
1 10 18 4.4036 -0.0629
1 10 21 -3.2202 0.0164
1 10 24 0.2315 0.0179
1 10 27 2.8355 0.1366
1 10 30 -1.6885 0.1098
1 10 33 7.5421 0.0272
1 10 36 -1.7467 -0.6785
1 11 -37 -7.1236 -0.8784
1 11 -34 -1.4874 0.3766
1 11 -31 0.6232 -0.0097
1 11 -28 -4.9799 0.0193
1 11 -25 -4.5321 -0.1044
1 11 -22 1.2336 -0.1598
1 11 -19 0.5730 0.0201
1 11 -16 4.8902 0.1463
1 11 -13 -0.4040 -0.0889
1 11 -10 -2.0453 -0.1250
1 11 -7 4.6766 0.0380
1 11 -4 -4.6192 -0.0362
1 11 -1 -0.6659 0.0934
1 11 2 1.7174 0.0239
1 11 5 -3.0469 -0.1305
1 11 8 3.4632 0.0040
1 11 11 -4.7616 0.0033
1 11 14 4.1288 -0.0606
1 11 17 -4.4104 -0.1225
1 11 20 3.4590 0.1000
1 11 23 2.3268 0.0887
1 11 26 -3.7751 -0.0744
1 11 29 2.1270 -0.1307
1 11 32 4.3425 -0.2227
1 11 35 -3.5166 0.2868
1 12 -35 6.2516 0.4853
1 12 -32 -2.1902 -0.1808
1 12 -29 -11.1551 0.0671
1 12 -26 -2.8906 -0.0665
1 12 -23 3.0158 -0.0774
1 12 -20 7.0758 0.0621
1 12 -17 -6.2540 -0.1179
1 12 -14 1.5390 -0.0655
1 12 -11 6.6369 -0.1492
1 12 -8 -2.3819 -0.0715
1 12 -5 -0.9004 0.1124
1 12 -2 -5.8952 0.0816
1 12 1 8.6582 -0.0424
1 12 4 -8.1492 0.0882
1 12 7 1.2861 -0.0020
1 12 10 -2.5298 -0.0710
1 12 13 1.3776 0.1557
1 12 16 -2.7463 -0.0288
1 12 19 2.5279 -0.0667
1 12 22 -2.6851 -0.0578
1 12 25 1.4820 -0.4085
1 12 28 2.9740 0.1214
1 12 31 -3.3136 0.3936
1 12 34 -1.8016 -0.0802
1 13 -33 -3.1751 -0.2628
1 13 -30 -7.9484 0.0704
1 13 -27 -1.2034 0.1496
1 13 -24 3.4207 -0.0833
1 13 -21 -4.9675 0.0276
1 13 -18 2.2523 -0.1224
1 13 -15 -0.8585 -0.1499
1 13 -12 11.3292 0.0696
1 13 -9 -8.1819 -0.0129
1 13 -6 0.8460 -0.0536
1 13 -3 -2.4154 0.0171
1 13 0 2.0030 -0.0980
1 13 3 -4.3162 0.0034
1 13 6 1.5258 0.2246
1 13 9 -1.3104 0.0091
1 13 12 -1.6840 -0.0835
1 13 15 -3.1454 -0.0886
1 13 18 2.4658 -0.1630
1 13 21 -0.0588 -0.0667
1 13 24 2.9157 0.1891
1 13 27 -1.6883 0.0628
1 13 30 -3.6163 -0.2204
1 13 33 -2.2557 -0.7353
1 14 -31 -5.1718 0.1570
1 14 -28 -2.2973 0.3464
1 14 -25 1.2395 -0.2085
1 14 -22 -6.7324 -0.1344
1 14 -19 2.5609 0.0157
1 14 -16 7.4499 0.0504
1 14 -13 -2.9792 0.1122
1 14 -10 -2.2847 -0.0356
1 14 -7 4.4737 -0.1246
1 14 -4 -3.8118 -0.1517
1 14 -1 3.8109 -0.0161
1 14 2 -8.0203 0.1508
1 14 5 9.3290 -0.1002
1 14 8 -6.3707 -0.0891
1 14 11 3.4645 -0.1512
1 14 14 -8.4987 -0.1437
1 14 17 8.1964 0.1800
1 14 20 0.3817 0.2785
1 14 23 -1.8725 -0.2738
1 14 26 -0.7565 -0.3896
1 14 29 0.2878 -0.1689
1 14 32 -1.5804 0.7160
1 15 -29 -7.9311 0.1686
1 15 -26 -2.0444 -0.5975
1 15 -23 -2.0214 0.0571
1 15 -20 9.6369 0.1298
1 15 -17 -4.5248 0.0552
1 15 -14 -2.5113 0.0691
1 15 -11 6.4955 -0.0592
1 15 -8 -2.4352 -0.0870
1 15 -5 4.8924 -0.0649
1 15 -2 -4.6729 -0.1024
1 15 1 3.0014 0.0183
1 15 4 4.4499 -0.1803
1 15 7 -2.6148 -0.1662
1 15 10 3.7879 0.0255
1 15 13 -5.4639 0.1600
1 15 16 6.6215 -0.0616
1 15 19 -6.0021 -0.2212
1 15 22 3.6751 0.0223
1 15 25 -0.5100 0.1419
1 15 28 3.0637 0.4449
1 16 -27 -0.6569 -0.5466
1 16 -24 3.8053 0.3406
1 16 -21 7.7020 0.1456
1 16 -18 -6.9804 -0.0956
1 16 -15 -3.7003 -0.1088
1 16 -12 10.9512 -0.0696
1 16 -9 0.8329 -0.0285
1 16 -6 0.5160 0.0230
1 16 -3 -1.3732 -0.0684
1 16 0 3.0743 -0.1575
1 16 3 6.6529 -0.0117
1 16 6 0.1376 0.0089
1 16 9 2.9107 -0.0105
1 16 12 -5.5931 -0.2219
1 16 15 4.9601 0.0839
1 16 18 -4.0106 0.3151
1 16 21 -4.9033 0.1789
1 16 24 7.8417 -0.2921
1 16 27 0.4542 -0.4379
1 17 -25 3.3001 0.3225
1 17 -22 -0.7574 0.1091
1 17 -19 -2.0171 -0.4418
1 17 -16 5.7292 -0.1990
1 17 -13 4.8557 0.0065
1 17 -10 1.0970 0.1268
1 17 -7 -1.7309 -0.0587
1 17 -4 3.7058 0.0263
1 17 -1 2.4086 -0.0954
1 17 2 8.4817 -0.1834
1 17 5 -2.4643 -0.0158
1 17 8 1.9458 0.1736
1 17 11 -1.1705 0.1804
1 17 14 0.6775 0.0388
1 17 17 -6.0148 0.0267
1 17 20 -4.5135 -0.2701
1 17 23 6.7974 -0.3505
1 18 -20 1.1986 -0.4878
1 18 -17 0.6784 0.0061
1 18 -14 8.3055 0.0022
1 18 -11 -8.3412 0.1103
1 18 -8 10.5489 -0.0063
1 18 -5 0.3144 -0.2128
1 18 -2 3.9836 -0.1716
1 18 1 1.1948 -0.0044
1 18 4 -1.0379 0.2399
1 18 7 1.9404 0.1126
1 18 10 3.0033 -0.0014
1 18 13 -5.3157 -0.3229
1 18 16 -3.3212 0.0919
1 18 19 -8.0998 -0.1199
1 18 22 7.5975 0.4397
1 19 -15 0.7419 0.1819
1 19 -12 5.3973 0.0894
1 19 -9 5.5017 -0.1720
1 19 -6 -5.0402 -0.1945
1 19 -3 7.2388 -0.1402
1 19 0 -4.0104 -0.0158
1 19 3 3.1241 0.1191
1 19 6 0.7553 -0.1373
1 19 9 -0.0254 -0.3139
1 19 12 -3.8552 0.0015
1 19 15 -4.9649 0.4687
1 20 -10 4.0541 -0.4177
1 20 -7 1.1965 -0.1306
1 20 -4 -2.4930 -0.0129
1 20 -1 4.3950 -0.2035
1 20 2 -1.1772 -0.2301
1 20 5 -1.6135 -0.2024
1 20 8 1.2610 -0.0965
1 20 11 -5.9139 0.0182
2 1 -41 3.6387 0.1569
2 1 -38 -4.2224 -0.0903
2 1 -35 -4.2189 0.0832
2 1 -32 -2.2146 0.3013
2 1 -29 5.9830 -0.1356
2 1 -26 -4.9279 0.2920
2 1 -23 -1.9468 0.4644
2 1 -20 20.8017 -0.4372
2 1 -17 -41.8140 0.1218
2 1 -14 35.8934 -0.1640
2 1 -11 -7.7532 -0.9863
2 1 -8 -9.0852 0.4528
2 1 -5 120.9123 -0.1017
2 1 -2 -56.6411 -0.0685
2 1 1 123.0782 0.6421
2 1 4 12.5389 -0.5752
2 1 7 4.6970 0.0688
2 1 10 42.1103 0.8686
2 1 13 -4.6995 0.2283
2 1 16 -23.5305 0.2010
2 1 19 25.7350 0.0196
2 1 22 -12.4482 -0.4247
2 1 25 0.6604 -0.0292
2 1 28 7.2143 -0.0172
2 1 31 -3.7691 -0.3273
2 1 34 -3.5232 -0.0272
2 1 37 1.6807 0.1470
2 1 40 -7.0886 0.0042
2 1 43 7.9385 -0.4156
2 2 -42 2.4306 0.1350
2 2 -39 -8.2847 -0.5194
2 2 -36 0.2210 -0.1304
2 2 -33 -3.3771 0.0423
2 2 -30 5.4335 0.1398
2 2 -27 -13.1824 0.1146
2 2 -24 10.6254 -0.2275
2 2 -21 5.1144 0.0340
2 2 -18 -28.5716 0.1716
2 2 -15 37.1714 -0.0873
2 2 -12 -28.9475 0.1761
2 2 -9 17.9962 0.2859
2 2 -6 42.6537 -0.0362
2 2 -3 -23.2233 0.2948
2 2 0 125.1873 -0.0062
2 2 3 -81.0479 -0.5155
2 2 6 106.4217 0.2348
2 2 9 -1.7918 0.1651
2 2 12 -27.2102 -0.2447
2 2 15 29.3078 0.0321
2 2 18 -9.8125 -0.0694
2 2 21 -6.5702 -0.1587
2 2 24 11.4139 0.1070
2 2 27 -4.4707 0.1928
2 2 30 0.8333 0.0699
2 2 33 -0.1117 0.0985
2 2 36 -4.7088 -0.0978
2 2 39 5.1697 -0.3815
2 2 42 -1.3009 0.2497
2 3 -43 -2.7271 -0.8336
2 3 -40 7.0065 -0.2640
2 3 -37 -6.3342 0.2904
2 3 -34 -6.1033 0.2352
2 3 -31 6.0042 -0.2312
2 3 -28 -14.1034 -0.3162
2 3 -25 19.9138 -0.1848
2 3 -22 -9.5236 -0.0047
2 3 -19 -18.0236 0.3867
2 3 -16 40.6121 0.2127
2 3 -13 -34.0583 0.0244
2 3 -10 -10.8743 0.2868
2 3 -7 65.5032 0.0193
2 3 -4 -50.5427 0.1604
2 3 -1 50.9263 0.2219
2 3 2 -1.7760 -0.3886
2 3 5 55.9359 -0.1493
2 3 8 -28.1073 -0.0698
2 3 11 38.3920 -0.2238
2 3 14 -20.3067 -0.1444
2 3 17 5.4384 -0.1673
2 3 20 1.0822 0.0561
2 3 23 -3.7867 0.1576
2 3 26 7.2322 0.2488
2 3 29 -5.5501 0.1616
2 3 32 2.3957 -0.1881
2 3 35 3.1108 -0.0582
2 3 38 -2.7351 0.2056
2 3 41 2.0523 0.5406
2 4 -41 -0.8583 0.5446
2 4 -38 -9.6699 0.1857
2 4 -35 9.8997 -0.1615
2 4 -32 -1.7604 -0.3076
2 4 -29 -8.6882 -0.1058
2 4 -26 14.0336 0.0599
2 4 -23 -12.5785 0.1803
2 4 -20 -3.2601 0.0296
2 4 -17 37.6308 -0.1947
2 4 -14 -64.7965 0.0016
2 4 -11 50.8646 0.3505
2 4 -8 -12.9536 0.0440
2 4 -5 -37.4720 -0.0146
2 4 -2 42.9496 0.0289
2 4 1 -18.2991 -0.4645
2 4 4 33.0074 0.2195
2 4 7 -14.1480 0.1759
2 4 10 38.1035 -0.4462
2 4 13 -30.7523 0.0139
2 4 16 16.9964 -0.0828
2 4 19 -6.0702 -0.0813
2 4 22 0.1348 0.3712
2 4 25 0.6135 0.0179
2 4 28 -0.7776 -0.2350
2 4 31 2.6923 -0.0416
2 4 34 3.7217 0.3999
2 4 37 -0.8361 0.2271
2 4 40 -3.8714 -0.5138
2 5 -42 -7.0378 0.5193
2 5 -39 16.2765 -0.3350
2 5 -36 -4.7145 -0.0253
2 5 -33 -0.5631 0.0882
2 5 -30 -6.4217 0.1232
2 5 -27 13.1608 0.1460
2 5 -24 -14.0315 -0.1263
2 5 -21 17.5190 -0.2304
2 5 -18 -3.6273 0.0596
2 5 -15 -27.1002 0.0069
2 5 -12 37.0040 -0.0196
2 5 -9 -25.6711 -0.0466
2 5 -6 -31.0394 -0.5232
2 5 -3 33.5662 0.1222
2 5 0 -41.3774 0.2494
2 5 3 18.2913 -0.0768
2 5 6 18.3974 0.2139
2 5 9 -10.3003 -0.1290
2 5 12 3.2543 -0.1110
2 5 15 6.0349 0.4103
2 5 18 -9.6082 0.0436
2 5 21 5.4685 -0.2249
2 5 24 0.4757 -0.1072
2 5 27 -5.8892 -0.0591
2 5 30 8.3027 0.0774
2 5 33 -1.1949 0.0845
2 5 36 -5.2028 -0.1996
2 5 39 7.8465 -0.3299
2 5 42 1.2153 0.5275
2 6 -40 11.7578 -0.4669
2 6 -37 -11.1309 0.3070
2 6 -34 12.9235 0.2677
2 6 -31 -10.2090 0.0008
2 6 -28 6.0355 -0.1860
2 6 -25 -2.4006 0.0796
2 6 -22 -1.5616 0.1724
2 6 -19 6.9464 -0.1082
2 6 -16 -12.6283 -0.0244
2 6 -13 14.6576 -0.3354
2 6 -10 -18.2113 -0.4095
2 6 -7 -14.6218 0.2801
2 6 -4 2.1337 0.0161
2 6 -1 -26.5268 -0.1164
2 6 2 17.6279 0.1542
2 6 5 -13.2825 -0.1267
2 6 8 14.3643 0.2365
2 6 11 -11.6567 0.4949
2 6 14 4.7439 -0.0512
2 6 17 7.2223 -0.1704
2 6 20 -1.5844 -0.0885
2 6 23 -5.5402 -0.0364
2 6 26 -1.5909 0.0295
2 6 29 6.5798 -0.0575
2 6 32 -4.7370 -0.3373
2 6 35 0.0377 -0.1336
2 6 38 7.3126 0.3205
2 6 41 -4.2117 0.3303
2 7 -38 6.1435 0.6119
2 7 -35 4.1020 -0.2747
2 7 -32 -12.3880 -0.2196
2 7 -29 3.2667 0.1063
2 7 -26 -7.1587 0.1853
2 7 -23 10.6918 0.1064
2 7 -20 0.4898 -0.0506
2 7 -17 -10.9298 -0.3077
2 7 -14 7.5033 0.0876
2 7 -11 -13.1299 -0.0014
2 7 -8 0.0850 -0.0871
2 7 -5 -5.7276 0.1810
2 7 -2 -11.9928 -0.1928
2 7 1 -10.4313 -0.1437
2 7 4 9.1802 0.3483
2 7 7 -9.8311 0.1011
2 7 10 5.0829 -0.0067
2 7 13 5.2607 0.0766
2 7 16 2.3295 -0.2129
2 7 19 -2.4539 0.0769
2 7 22 -1.6696 0.2003
2 7 25 3.1642 -0.2186
2 7 28 -0.7431 -0.2855
2 7 31 -3.5764 0.0265
2 7 34 1.4312 0.0951
2 7 37 4.8672 0.2878
2 7 40 -1.9609 -0.5190
2 8 -39 4.5795 -0.0511
2 8 -36 -4.4736 -0.5957
2 8 -33 -4.2228 0.0053
2 8 -30 -0.6351 0.2022
2 8 -27 -4.9109 0.1244
2 8 -24 7.5105 -0.2192
2 8 -21 -4.5535 -0.0505
2 8 -18 -6.9403 0.2148
2 8 -15 4.6098 0.0695
2 8 -12 2.5069 0.0531
2 8 -9 -9.1983 0.0595
2 8 -6 5.3868 -0.1067
2 8 -3 -17.7753 0.0838
2 8 0 -0.4979 0.1349
2 8 3 6.7024 -0.1834
2 8 6 -11.2754 -0.0540
2 8 9 8.7818 -0.1507
2 8 12 -3.0617 0.0151
2 8 15 8.0459 0.1195
2 8 18 -1.7765 -0.0530
2 8 21 5.5077 -0.0802
2 8 24 -3.5990 -0.0725
2 8 27 -0.0782 0.0879
2 8 30 -1.0872 0.1845
2 8 33 -1.6334 0.0315
2 8 36 10.4394 -0.3600
2 8 39 -4.0742 0.1097
2 9 -37 -4.8418 -0.3158
2 9 -34 6.2836 0.2834
2 9 -31 -6.8085 0.0142
2 9 -28 -4.7747 -0.1751
2 9 -25 1.4454 -0.1900
2 9 -22 -4.6773 0.0853
2 9 -19 3.0008 0.2640
2 9 -16 3.7092 0.0780
2 9 -13 -3.6230 -0.0676
2 9 -10 -1.9115 0.0781
2 9 -7 1.1659 0.0988
2 9 -4 -3.2156 0.0793
2 9 -1 -0.6160 0.0195
2 9 2 -0.4278 -0.2073
2 9 5 -0.1148 -0.1900
2 9 8 -4.1875 -0.0306
2 9 11 7.1056 0.0102
2 9 14 3.4319 -0.0580
2 9 17 5.3568 -0.1138
2 9 20 -5.4913 -0.0013
2 9 23 5.3154 0.1148
2 9 26 -2.8901 0.2380
2 9 29 2.6696 -0.0589
2 9 32 -2.2719 -0.1697
2 9 35 9.1118 -0.0111
2 9 38 -3.6561 0.5741
2 10 -35 11.0717 0.4129
2 10 -32 -10.6649 -0.2946
2 10 -29 -4.5995 -0.1170
2 10 -26 -3.1719 -0.0789
2 10 -23 4.3591 0.1160
2 10 -20 1.4514 0.0579
2 10 -17 0.8920 0.0107
2 10 -14 -5.6062 -0.0663
2 10 -11 3.9187 0.0194
2 10 -8 5.6568 0.0978
2 10 -5 -6.0893 0.0163
2 10 -2 -1.2387 -0.0147
2 10 1 4.4523 -0.0166
2 10 4 -5.0749 -0.1109
2 10 7 2.0368 -0.0255
2 10 10 4.4899 0.0135
2 10 13 2.8063 -0.1192
2 10 16 -3.7157 -0.0040
2 10 19 7.0569 0.0893
2 10 22 -1.2291 0.0190
2 10 25 -1.2594 -0.0683
2 10 28 3.2205 -0.0326
2 10 31 -0.2549 0.0860
2 10 34 4.2974 0.5196
2 10 37 -1.0778 -0.7795
2 11 -36 4.6006 -0.1367
2 11 -33 -14.4555 -0.3347
2 11 -30 3.2222 0.2141
2 11 -27 -0.3682 0.0007
2 11 -24 1.9126 0.1164
2 11 -21 -4.3109 -0.1570
2 11 -18 0.5736 -0.1195
2 11 -15 2.5328 0.0419
2 11 -12 5.8063 -0.0550
2 11 -9 -0.7744 -0.0076
2 11 -6 -3.5313 0.0392
2 11 -3 -2.4630 -0.1049
2 11 0 7.9278 0.1207
2 11 3 -9.7272 0.0740
2 11 6 6.0540 -0.0518
2 11 9 2.8646 0.1259
2 11 12 -4.0800 0.0313
2 11 15 3.1722 -0.0957
2 11 18 1.7652 -0.0762
2 11 21 -2.9995 -0.0686
2 11 24 7.0053 0.0041
2 11 27 -2.3149 0.2216
2 11 30 -2.2392 0.0519
2 11 33 4.7850 -0.5503
2 11 36 -3.5262 -0.1976
2 12 -34 -3.8202 -0.0290
2 12 -31 7.8555 0.4920
2 12 -28 -9.7368 0.0136
2 12 -25 -0.0308 -0.1091
2 12 -22 -7.2875 -0.2035
2 12 -19 13.5562 0.0279
2 12 -16 -3.7233 0.0159
2 12 -13 2.7852 0.0863
2 12 -10 0.6907 -0.0853
2 12 -7 -2.7946 -0.2021
2 12 -4 3.7298 -0.0188
2 12 -1 -5.0987 0.1758
2 12 2 -0.6024 0.1243
2 12 5 3.9282 0.1862
2 12 8 0.6466 -0.0362
2 12 11 -6.7992 -0.1901
2 12 14 6.2780 -0.0146
2 12 17 0.1601 0.0657
2 12 20 -0.1221 0.0459
2 12 23 3.7682 0.1959
2 12 26 -3.5473 -0.4311
2 12 29 -0.0592 -0.3861
2 12 32 2.4943 0.0899
2 13 -32 1.7426 0.4073
2 13 -29 -13.4045 -0.3014
2 13 -26 3.9044 -0.1372
2 13 -23 -2.2391 -0.0182
2 13 -20 7.5382 0.2657
2 13 -17 -5.7720 0.0750
2 13 -14 -1.7259 -0.1547
2 13 -11 12.0036 -0.0543
2 13 -8 -5.6763 -0.1235
2 13 -5 2.0979 0.0868
2 13 -2 -6.6266 0.2152
2 13 1 0.7933 0.0066
2 13 4 6.2232 -0.1796
2 13 7 -4.3948 -0.0286
2 13 10 0.0341 -0.0247
2 13 13 2.1673 0.0728
2 13 16 2.6668 0.2211
2 13 19 -3.1666 -0.1067
2 13 22 4.9187 -0.3898
2 13 25 -1.3464 -0.1687
2 13 28 2.6399 0.3205
2 13 31 -3.6669 0.5185
2 14 -30 -12.5248 -0.5837
2 14 -27 3.5783 0.1749
2 14 -24 -1.0682 0.2636
2 14 -21 1.7714 0.0625
2 14 -18 -8.0643 -0.0812
2 14 -15 10.3880 -0.1499
2 14 -12 3.9652 0.1484
2 14 -9 -8.3699 0.0736
2 14 -6 9.4328 0.0804
2 14 -3 -13.4704 -0.1153
2 14 0 11.8731 -0.1268
2 14 3 -1.0258 -0.1228
2 14 6 -0.3957 -0.0203
2 14 9 -0.2030 0.1506
2 14 12 5.2699 0.0004
2 14 15 -3.3458 -0.2236
2 14 18 0.9220 -0.1665
2 14 21 7.0966 0.3436
2 14 24 -0.5285 0.1383
2 14 27 -3.1184 0.0539
2 14 30 0.9784 -1.0904
2 15 -28 -1.6594 0.6052
2 15 -25 -0.8291 0.0032
2 15 -22 0.2492 -0.1503
2 15 -19 0.8260 -0.1578
2 15 -16 3.2291 -0.0477
2 15 -13 -0.3835 0.2255
2 15 -10 -0.3511 0.0725
2 15 -7 4.6337 0.0314
2 15 -4 -5.5589 -0.1770
2 15 -1 8.9287 -0.1655
2 15 2 -0.8170 0.0152
2 15 5 1.5729 -0.0057
2 15 8 0.8350 -0.0412
2 15 11 3.9021 -0.1884
2 15 14 -1.1174 0.2641
2 15 17 3.0350 0.1508
2 15 20 -3.5308 -0.1313
2 15 23 7.2750 -0.1903
2 15 26 -5.6985 -0.2658
2 15 29 4.8463 0.7608
2 16 -26 0.5832 -0.3346
2 16 -23 -3.0402 -0.1852
2 16 -20 8.0721 -0.2318
2 16 -17 1.3600 0.0467
2 16 -14 -6.7799 0.1735
2 16 -11 5.9547 0.1255
2 16 -8 3.3757 -0.1522
2 16 -5 -1.4450 -0.1209
2 16 -2 6.0133 -0.1209
2 16 1 1.3663 -0.0612
2 16 4 -0.3884 0.1207
2 16 7 3.0741 0.2549
2 16 10 5.1667 0.0194
2 16 13 -3.7544 -0.2214
2 16 16 -0.9444 -0.0474
2 16 19 -0.8389 -0.1073
2 16 22 3.0295 0.1986
2 16 25 -4.5048 0.7766
2 17 -21 7.9347 0.0001
2 17 -18 -6.1452 0.1307
2 17 -15 1.0274 -0.0096
2 17 -12 0.5513 -0.0099
2 17 -9 11.7042 -0.2596
2 17 -6 -6.1955 -0.1582
2 17 -3 6.1983 0.1508
2 17 0 -0.2217 0.1356
2 17 3 1.1205 0.1616
2 17 6 3.6926 -0.0535
2 17 9 2.0242 -0.1400
2 17 12 -4.9333 -0.0536
2 17 15 0.0574 0.2506
2 17 18 -4.7009 -0.0246
2 17 21 1.7785 0.4729
2 18 -19 -6.0577 -0.1641
2 18 -16 -0.5376 0.1012
2 18 -13 10.8924 -0.2674
2 18 -10 -1.9918 -0.1634
2 18 -7 -0.3321 0.1866
2 18 -4 5.4156 0.0800
2 18 -1 -0.2878 -0.2394
2 18 2 0.6745 0.0150
2 18 5 1.2417 -0.0165
2 18 8 -0.8565 0.0064
2 18 11 -1.6077 0.3434
2 18 14 -4.4728 0.0380
2 18 17 -0.0414 -0.8272
2 19 -14 5.0230 -0.0931
2 19 -11 -1.3055 -0.0624
2 19 -8 7.2075 0.2761
2 19 -5 -5.5482 -0.2144
2 19 -2 7.4820 -0.4681
2 19 1 -6.5416 -0.0177
2 19 4 2.7850 0.1151
2 19 7 -0.3156 0.0447
2 19 10 -3.9023 -0.1631
2 19 13 -1.5722 -0.6366
2 20 -6 -1.0862 -0.4961
2 20 -3 -0.9422 -0.2733
2 20 0 0.3403 -0.2911
2 20 3 2.6869 -0.1229
2 20 6 -3.4117 -0.2851
3 1 -43 -5.1912 -0.0855
3 1 -40 0.4466 -0.0695
3 1 -37 -2.8567 0.1941
3 1 -34 1.3685 0.0743
3 1 -31 -1.4884 -0.0093
3 1 -28 -7.6220 -0.1734
3 1 -25 13.9221 -0.2083
3 1 -22 -11.3257 0.2237
3 1 -19 -4.2669 -0.1377
3 1 -16 19.8559 0.0395
3 1 -13 -35.0774 0.2976
3 1 -10 36.3876 -0.1154
3 1 -7 -2.7653 0.3601
3 1 -4 77.4836 0.3647
3 1 -1 -31.9692 0.0989
3 1 2 85.0840 0.0266
3 1 5 -15.7347 -0.0371
3 1 8 24.9791 -0.0290
3 1 11 -6.0332 -0.0191
3 1 14 13.9404 -0.0340
3 1 17 -7.8965 -0.2006
3 1 20 2.8259 -0.1055
3 1 23 5.5646 0.0250
3 1 26 -8.5160 0.0780
3 1 29 4.2303 0.0522
3 1 32 -1.4162 0.1284
3 1 35 1.8951 0.0155
3 1 38 -1.5054 0.1256
3 1 41 -6.0369 0.3982
3 2 -41 3.1555 0.6032
3 2 -38 -6.5821 0.2814
3 2 -35 -0.2653 -0.2206
3 2 -32 -5.9327 -0.4331
3 2 -29 -0.2846 -0.0260
3 2 -26 9.9566 -0.0392
3 2 -23 -15.8162 0.0081
3 2 -20 11.8356 0.2017
3 2 -17 1.9064 -0.1447
3 2 -14 -26.6805 0.1120
3 2 -11 18.4127 0.4177
3 2 -8 21.1379 0.2523
3 2 -5 15.0390 0.4553
3 2 -2 -32.0107 0.1684
3 2 1 125.9051 -0.3671
3 2 4 -101.1337 -0.0764
3 2 7 82.2751 0.0333
3 2 10 -7.5074 -0.0901
3 2 13 -18.9957 -0.1820
3 2 16 21.5910 -0.3558
3 2 19 -7.4334 -0.0118
3 2 22 -0.0084 0.1725
3 2 25 3.2140 0.0272
3 2 28 -3.6876 0.1647
3 2 31 5.1728 0.1165
3 2 34 4.2770 0.2227
3 2 37 -13.5325 0.3245
3 2 40 8.8545 -0.0682
3 2 43 3.7318 -0.7635
3 3 -42 -12.3326 0.5766
3 3 -39 6.8920 -0.4240
3 3 -36 -0.1856 -0.2317
3 3 -33 -8.6017 -0.0145
3 3 -30 3.7186 0.2103
3 3 -27 -4.4581 -0.1326
3 3 -24 -0.8871 -0.0531
3 3 -21 13.1866 -0.1580
3 3 -18 -14.0993 -0.0898
3 3 -15 -9.0909 0.3948
3 3 -12 29.4675 0.2742
3 3 -9 -38.8540 0.1438
3 3 -6 35.8631 0.1666
3 3 -3 -18.6853 -0.0533
3 3 0 44.0626 -0.1480
3 3 3 -40.4825 0.1047
3 3 6 64.1457 -0.0534
3 3 9 -34.5103 -0.2583
3 3 12 15.1894 -0.0347
3 3 15 0.6520 -0.2312
3 3 18 -2.4154 -0.1095
3 3 21 5.8946 0.2517
3 3 24 -8.0131 -0.1016
3 3 27 6.8080 0.0706
3 3 30 -0.5570 0.4175
3 3 33 3.8285 0.1533
3 3 36 -4.1409 -0.1474
3 3 39 0.8620 -0.3669
3 3 42 7.7778 0.4212
3 4 -40 15.6166 -0.3123
3 4 -37 -12.8458 0.3921
3 4 -34 0.9699 0.1470
3 4 -31 -3.0901 -0.0960
3 4 -28 -1.4145 -0.2191
3 4 -25 4.6436 -0.0418
3 4 -22 7.1354 0.1054
3 4 -19 -20.2376 0.0666
3 4 -16 25.1969 0.1242
3 4 -13 -25.1124 -0.2955
3 4 -10 4.4829 0.0149
3 4 -7 4.3447 0.1544
3 4 -4 -24.9015 0.1079
3 4 -1 28.8415 0.0323
3 4 2 -29.2800 -0.3352
3 4 5 49.1460 -0.0153
3 4 8 -42.1498 0.2142
3 4 11 34.8515 0.0331
3 4 14 -17.0983 -0.0282
3 4 17 4.7274 -0.1779
3 4 20 2.9906 -0.1383
3 4 23 -3.3016 0.1465
3 4 26 0.0999 0.1911
3 4 29 3.4660 0.0518
3 4 32 1.5902 -0.2784
3 4 35 -4.4653 -0.0509
3 4 38 4.9663 0.3241
3 4 41 0.7897 0.2485
3 5 -41 3.0154 0.3000
3 5 -38 -2.5001 0.2652
3 5 -35 5.9945 -0.1682
3 5 -32 -8.1124 -0.1497
3 5 -29 -1.0300 0.1044
3 5 -26 5.9826 0.2392
3 5 -23 -7.4647 0.1272
3 5 -20 12.5620 -0.3240
3 5 -17 -0.6574 -0.1061
3 5 -14 -24.2025 -0.1943
3 5 -11 27.8337 0.0181
3 5 -8 -30.2757 0.3744
3 5 -5 -8.4616 -0.2765
3 5 -2 20.3647 -0.3326
3 5 1 -32.5282 0.1302
3 5 4 23.0096 0.1622
3 5 7 -2.3750 0.3649
3 5 10 -1.6145 0.1497
3 5 13 -4.5583 -0.3630
3 5 16 13.5966 -0.1013
3 5 19 -10.3888 0.2486
3 5 22 4.7388 0.0625
3 5 25 -1.9713 -0.1255
3 5 28 2.2671 -0.2295
3 5 31 0.6932 -0.1682
3 5 34 -5.3032 0.1095
3 5 37 1.4247 0.4165
3 5 40 5.1225 -0.3430
3 6 -39 9.7149 -0.0990
3 6 -36 -4.7276 -0.3357
3 6 -33 -3.2762 0.2203
3 6 -30 0.0740 0.3753
3 6 -27 -2.5273 -0.1873
3 6 -24 8.6402 -0.1426
3 6 -21 -2.5008 -0.0136
3 6 -18 -2.6447 -0.0180
3 6 -15 -6.5696 0.2148
3 6 -12 15.8571 -0.1994
3 6 -9 -29.4997 -0.2611
3 6 -6 14.9782 0.1207
3 6 -3 -17.1513 -0.0798
3 6 0 -17.3445 0.2101
3 6 3 36.0836 0.3286
3 6 6 -33.7073 -0.1708
3 6 9 20.3164 -0.0646
3 6 12 -10.3650 0.1156
3 6 15 6.0763 0.0660
3 6 18 -0.5838 0.2301
3 6 21 9.2029 -0.1763
3 6 24 -7.6975 -0.3453
3 6 27 0.6787 -0.0965
3 6 30 -1.6821 0.1982
3 6 33 -3.1663 0.0320
3 6 36 3.1648 -0.0127
3 6 39 2.6059 -0.2989
3 7 -40 1.6297 -0.7973
3 7 -37 0.5665 0.1151
3 7 -34 2.6776 0.3669
3 7 -31 -1.3406 -0.0520
3 7 -28 -4.3241 -0.3612
3 7 -25 -0.2628 0.0019
3 7 -22 0.6739 0.2463
3 7 -19 3.2052 0.2084
3 7 -16 -1.9448 -0.1019
3 7 -13 6.2213 -0.2681
3 7 -10 -23.2732 0.0430
3 7 -7 22.4101 0.2540
3 7 -4 -31.6156 0.1387
3 7 -1 17.7211 0.1486
3 7 2 -0.6829 -0.2823
3 7 5 -15.7287 -0.1525
3 7 8 14.6964 0.2313
3 7 11 -12.1044 0.1024
3 7 14 13.7902 0.0379
3 7 17 0.5745 -0.1244
3 7 20 8.8778 -0.2142
3 7 23 -12.8087 0.0244
3 7 26 4.7246 0.2478
3 7 29 -0.6072 0.0217
3 7 32 -2.9833 -0.1700
3 7 35 3.4448 -0.1478
3 7 38 -0.6401 0.4921
3 8 -38 7.0232 0.5435
3 8 -35 2.6809 -0.0673
3 8 -32 -5.1171 -0.2645
3 8 -29 -4.1402 -0.2633
3 8 -26 -2.0006 0.2848
3 8 -23 8.2615 0.1086
3 8 -20 -0.7440 -0.0124
3 8 -17 -4.4125 -0.0224
3 8 -14 1.2514 -0.0477
3 8 -11 -5.3255 0.2439
3 8 -8 9.1262 0.2565
3 8 -5 -9.7861 -0.1530
3 8 -2 4.7204 0.0039
3 8 1 -5.3886 -0.0467
3 8 4 -0.5455 -0.0609
3 8 7 4.9219 0.0927
3 8 10 -1.9798 -0.1574
3 8 13 7.8385 -0.1379
3 8 16 3.9033 0.0172
3 8 19 2.1846 0.0744
3 8 22 -2.1213 0.1498
3 8 25 1.9421 0.0373
3 8 28 -0.3768 -0.1261
3 8 31 -1.2619 0.0630
3 8 34 2.1484 0.3264
3 8 37 -0.9410 0.0075
3 9 -36 -1.3251 -0.3931
3 9 -33 1.0215 -0.2216
3 9 -30 -3.8406 0.0738
3 9 -27 -0.0395 0.2026
3 9 -24 7.2956 -0.1131
3 9 -21 -8.4403 -0.0806
3 9 -18 0.7026 0.1228
3 9 -15 3.9352 0.0617
3 9 -12 -1.7674 0.1112
3 9 -9 7.6197 0.0285
3 9 -6 -10.8160 -0.1798
3 9 -3 4.3323 0.1997
3 9 0 3.4792 0.0536
3 9 3 -6.7860 -0.1809
3 9 6 12.8002 -0.0274
3 9 9 -7.2140 -0.2005
3 9 12 7.4157 0.0463
3 9 15 2.6786 0.1841
3 9 18 10.8979 -0.0668
3 9 21 -11.0546 -0.0479
3 9 24 5.7333 -0.0009
3 9 27 -0.0719 0.2136
3 9 30 3.6656 0.2021
3 9 33 -3.7720 0.0282
3 9 36 4.2785 -0.6181
3 10 -34 7.3358 0.2860
3 10 -31 0.5737 0.3285
3 10 -28 -1.3256 -0.0783
3 10 -25 -1.6387 -0.1685
3 10 -22 -4.1110 -0.0774
3 10 -19 7.5330 0.0969
3 10 -16 0.2354 0.1105
3 10 -13 -3.1387 -0.0864
3 10 -10 7.2762 -0.1033
3 10 -7 -5.4785 0.0136
3 10 -4 3.3724 0.0522
3 10 -1 0.9320 0.0432
3 10 2 -5.9955 -0.0239
3 10 5 15.4667 -0.0242
3 10 8 -9.1546 0.0795
3 10 11 6.0682 0.0277
3 10 14 8.4691 -0.0802
3 10 17 -2.7264 -0.0388
3 10 20 -1.7087 0.0716
3 10 23 6.2929 0.1132
3 10 26 -1.3966 0.1129
3 10 29 0.9507 -0.2114
3 10 32 1.0273 -0.3192
3 10 35 1.2404 0.6084
3 11 -35 11.7764 0.8397
3 11 -32 -6.3540 0.0532
3 11 -29 -4.8463 -0.3895
3 11 -26 1.9941 -0.0514
3 11 -23 0.6159 0.1982
3 11 -20 4.9920 0.0260
3 11 -17 -6.2713 -0.0407
3 11 -14 2.6224 -0.0692
3 11 -11 8.7346 -0.1734
3 11 -8 -4.6708 -0.0337
3 11 -5 2.8319 0.1146
3 11 -2 -10.1063 0.0650
3 11 1 8.6466 0.1370
3 11 4 7.4954 0.0400
3 11 7 -9.1992 -0.1013
3 11 10 7.4934 0.0560
3 11 13 3.6370 0.1091
3 11 16 -0.7311 0.0837
3 11 19 -0.0037 -0.0001
3 11 22 1.9628 -0.1513
3 11 25 2.3142 -0.2503
3 11 28 -0.1183 0.0177
3 11 31 1.8948 0.4665
3 11 34 -2.5361 -0.1917
3 12 -33 -6.7051 -0.5951
3 12 -30 0.8071 -0.2310
3 12 -27 1.1811 0.4933
3 12 -24 -0.1300 0.1919
3 12 -21 -5.0040 -0.1587
3 12 -18 0.6438 -0.1621
3 12 -15 7.5559 -0.1282
3 12 -12 5.2489 0.1333
3 12 -9 -6.5395 0.0930
3 12 -6 -0.9335 0.0511
3 12 -3 -3.0646 0.0065
3 12 0 6.6040 -0.0613
3 12 3 2.0127 -0.0406
3 12 6 -6.7754 0.2185
3 12 9 12.0775 0.1367
3 12 12 -6.7886 0.0108
3 12 15 5.8158 -0.0376
3 12 18 -3.2210 -0.2430
3 12 21 7.0891 -0.1505
3 12 24 0.3424 0.3524
3 12 27 0.5798 0.1628
3 12 30 -4.5430 -0.2788
3 12 33 2.1813 -0.8508
3 13 -31 -3.3040 0.2466
3 13 -28 -7.0928 0.6210
3 13 -25 2.3101 -0.1655
3 13 -22 -4.9191 -0.4168
3 13 -19 7.8928 0.0245
3 13 -16 3.3951 0.2339
3 13 -13 -6.8165 0.2736
3 13 -10 2.8650 -0.0122
3 13 -7 1.3517 -0.1693
3 13 -4 -5.1072 -0.0806
3 13 -1 7.9257 0.0710
3 13 2 -4.7706 0.1116
3 13 5 1.2951 0.1002
3 13 8 5.7195 -0.0131
3 13 11 -2.6357 -0.2089
3 13 14 2.5776 -0.1215
3 13 17 4.0676 0.1208
3 13 20 2.7118 0.3343
3 13 23 1.4446 -0.0341
3 13 26 -5.7273 -0.3807
3 13 29 6.4015 -0.4459
3 13 32 -1.6436 0.9437
3 14 -29 -9.5740 0.2526
3 14 -26 4.6411 -0.4372
3 14 -23 -1.4668 -0.2545
3 14 -20 5.9451 0.2610
3 14 -17 -10.0900 0.3120
3 14 -14 3.6724 0.0839
3 14 -11 4.9091 -0.1735
3 14 -8 -3.3393 -0.0527
3 14 -5 1.5662 0.0880
3 14 -2 -0.6643 0.0325
3 14 1 -0.9205 0.0445
3 14 4 6.0950 -0.1080
3 14 7 1.7087 -0.1631
3 14 10 -2.5879 -0.0366
3 14 13 8.4101 0.2920
3 14 16 -0.1121 -0.0679
3 14 19 -2.1448 -0.1961
3 14 22 7.3606 0.0675
3 14 25 -3.7906 0.0525
3 14 28 4.9890 0.6455
3 15 -27 1.8812 -0.3113
3 15 -24 -3.6733 -0.1552
3 15 -21 5.2338 0.3470
3 15 -18 -6.0205 0.1538
3 15 -15 2.0292 -0.0594
3 15 -12 2.3251 -0.2068
3 15 -9 -2.6192 0.0065
3 15 -6 3.9313 0.1838
3 15 -3 -0.8775 -0.0338
3 15 0 2.9135 -0.0239
3 15 3 2.5150 -0.0238
3 15 6 2.6183 0.0939
3 15 9 -0.4387 -0.1090
3 15 12 5.8450 -0.1506
3 15 15 -2.0555 0.1022
3 15 18 2.4500 0.1250
3 15 21 0.6833 0.2337
3 15 24 -0.9748 0.1852
3 15 27 4.2030 -1.0542
3 16 -22 1.6587 0.4995
3 16 -19 -6.8369 -0.1655
3 16 -16 5.8989 -0.3038
3 16 -13 -5.0512 -0.2416
3 16 -10 6.2463 0.2295
3 16 -7 0.4988 0.2157
3 16 -4 1.0741 0.0676
3 16 -1 2.3388 -0.0880
3 16 2 1.9697 -0.0965
3 16 5 2.7819 0.0104
3 16 8 -0.7312 0.1107
3 16 11 5.0964 0.2311
3 16 14 -3.0052 -0.0313
3 16 17 -1.5870 -0.0134
3 16 20 0.8877 0.0442
3 16 23 -0.6894 -0.9259
3 17 -20 -3.8416 -0.5469
3 17 -17 3.4118 -0.1514
3 17 -14 1.2811 -0.0893
3 17 -11 -4.2375 0.4846
3 17 -8 10.3705 0.0831
3 17 -5 -3.5000 -0.2765
3 17 -2 3.3814 -0.1733
3 17 1 1.9611 0.1335
3 17 4 0.9342 0.3615
3 17 7 -0.6903 0.1225
3 17 10 1.2740 0.1563
3 17 13 -3.6295 -0.4039
3 17 16 1.1698 -0.2207
3 17 19 -3.3797 0.2494
3 18 -15 -2.5460 0.4140
3 18 -12 0.3759 0.1647
3 18 -9 9.6742 -0.1156
3 18 -6 -6.9843 -0.2593
3 18 -3 7.3191 0.0182
3 18 0 -3.2556 0.0567
3 18 3 2.3726 0.3241
3 18 6 -1.4943 -0.1498
3 18 9 -2.6319 -0.0690
3 18 12 0.6325 -0.1629
3 18 15 -1.0748 0.8791
3 19 -10 4.5574 -0.3061
3 19 -7 -0.5188 -0.0916
3 19 -4 -0.9874 -0.0500
3 19 -1 3.0337 -0.3285
3 19 2 -2.0883 0.1346
3 19 5 -1.2040 -0.1112
3 19 8 -3.3006 0.5070
4 1 -42 -2.7188 0.4546
4 1 -39 1.5179 0.0323
4 1 -36 -6.7532 -0.1629
4 1 -33 -0.0344 -0.0491
4 1 -30 2.3588 0.0842
4 1 -27 1.1036 -0.1792
4 1 -24 -6.3055 -0.0747
4 1 -21 13.5912 0.0287
4 1 -18 -20.9776 -0.2465
4 1 -15 -0.3040 0.2641
4 1 -12 11.6311 0.2519
4 1 -9 10.2770 0.2501
4 1 -6 -7.0943 0.6279
4 1 -3 65.0784 -0.0757
4 1 0 -22.4608 -0.1390
4 1 3 16.3027 0.2538
4 1 6 20.4047 -0.1059
4 1 9 -23.5769 0.0035
4 1 12 14.2586 0.0289
4 1 15 0.7440 -0.5835
4 1 18 1.6253 -0.0391
4 1 21 -2.1418 0.1692
4 1 24 4.7548 -0.0558
4 1 27 -3.8114 0.2399
4 1 30 7.2699 0.1759
4 1 33 -8.3733 0.1138
4 1 36 1.8983 0.1885
4 1 39 8.5158 -0.0466
4 1 42 -1.2234 0.0809
4 2 -40 9.6459 -0.2631
4 2 -37 -11.2422 0.2453
4 2 -34 3.9141 0.1929
4 2 -31 -6.3517 -0.1428
4 2 -28 -3.3500 -0.2251
4 2 -25 7.1074 -0.0099
4 2 -22 1.3045 -0.1143
4 2 -19 -12.7652 0.1067
4 2 -16 11.8183 0.2018
4 2 -13 -8.5778 -0.0974
4 2 -10 -10.4745 0.4964
4 2 -7 23.6102 0.2931
4 2 -4 28.8431 -0.1218
4 2 -1 -43.7259 0.1637
4 2 2 70.9523 -0.1382
4 2 5 -50.0439 -0.1950
4 2 8 16.9277 0.1606
4 2 11 14.0394 0.0187
4 2 14 -21.2977 -0.3962
4 2 17 20.1650 -0.1342
4 2 20 -9.6850 0.0261
4 2 23 0.8825 0.1178
4 2 26 7.1572 0.3000
4 2 29 -5.2684 0.2212
4 2 32 1.6502 -0.1116
4 2 35 9.6410 0.0060
4 2 38 -9.0966 0.1538
4 2 41 8.8699 0.4414
4 3 -41 0.9525 0.4450
4 3 -38 -10.2147 0.2921
4 3 -35 6.3593 -0.1140
4 3 -32 -13.3770 -0.3219
4 3 -29 5.6690 0.0022
4 3 -26 0.6769 0.1528
4 3 -23 -1.2927 0.1192
4 3 -20 0.4014 -0.1735
4 3 -17 5.9269 -0.0534
4 3 -14 -26.7760 -0.1020
4 3 -11 32.2387 0.4743
4 3 -8 -30.5706 0.2512
4 3 -5 30.2230 -0.2243
4 3 -2 -21.5700 0.0075
4 3 1 24.3221 -0.3447
4 3 4 -16.9728 0.0595
4 3 7 18.1639 0.4172
4 3 10 -10.6141 -0.2005
4 3 13 -0.8257 -0.3408
4 3 16 5.7863 -0.0854
4 3 19 -8.0872 -0.0204
4 3 22 13.9294 0.3794
4 3 25 -9.3852 0.1390
4 3 28 3.8560 -0.2642
4 3 31 0.7069 -0.0436
4 3 34 2.5435 0.2882
4 3 37 -0.0895 0.3657
4 3 40 1.3407 -0.4046
4 4 -39 -3.4556 -0.3836
4 4 -36 8.9977 0.0175
4 4 -33 -13.4627 0.0575
4 4 -30 2.6163 0.2145
4 4 -27 -4.7223 -0.0176
4 4 -24 1.7152 -0.1355
4 4 -21 14.8261 -0.2523
4 4 -18 -18.6814 0.1521
4 4 -15 7.6477 0.1568
4 4 -12 5.8406 0.0217
4 4 -9 -36.6602 -0.0594
4 4 -6 45.3147 -0.3341
4 4 -3 -44.3626 0.1357
4 4 0 28.6557 0.1729
4 4 3 -13.6409 -0.0459
4 4 6 22.0012 0.0782
4 4 9 -30.9735 -0.1488
4 4 12 19.6329 -0.1404
4 4 15 -5.1917 0.1653
4 4 18 -5.6178 0.1061
4 4 21 16.3244 -0.0526
4 4 24 -13.5124 -0.1279
4 4 27 4.9083 -0.1876
4 4 30 -0.7003 0.2122
4 4 33 -0.1556 0.1269
4 4 36 2.9992 0.0176
4 4 39 -2.1478 -0.3976
4 5 -40 0.4464 -0.2069
4 5 -37 7.9286 0.3307
4 5 -34 -10.1438 0.1155
4 5 -31 0.8924 -0.0727
4 5 -28 -7.0326 -0.3106
4 5 -25 13.0793 0.0514
4 5 -22 -6.4257 0.2557
4 5 -19 2.6547 0.0825
4 5 -16 7.9949 -0.1276
4 5 -13 -18.3102 -0.4120
4 5 -10 1.3534 -0.0834
4 5 -7 15.8143 0.3189
4 5 -4 -47.0207 0.2468
4 5 -1 45.2754 -0.1253
4 5 2 -18.2035 -0.1656
4 5 5 -4.2010 -0.0301
4 5 8 8.6064 0.1292
4 5 11 -6.3150 0.3113
4 5 14 -4.7526 0.0053
4 5 17 10.9035 -0.2711
4 5 20 3.6708 -0.1536
4 5 23 -10.1719 0.0281
4 5 26 4.4279 0.0313
4 5 29 -2.6382 0.0902
4 5 32 2.8073 -0.0855
4 5 35 -1.2903 -0.2724
4 5 38 -9.1930 0.2478
4 5 41 7.7188 0.4228
4 6 -38 12.0442 0.4476
4 6 -35 -7.8090 -0.1781
4 6 -32 2.0613 -0.2341
4 6 -29 -5.4135 0.0359
4 6 -26 1.0476 0.2404
4 6 -23 6.8572 0.0657
4 6 -20 1.0924 -0.1041
4 6 -17 2.3192 -0.2981
4 6 -14 -13.4558 -0.0068
4 6 -11 8.9359 0.2623
4 6 -8 -2.3463 0.1491
4 6 -5 -20.6911 -0.0316
4 6 -2 34.2828 -0.1469
4 6 1 -38.2511 -0.0706
4 6 4 28.8125 0.2646
4 6 7 -13.7535 0.2467
4 6 10 -1.7408 -0.0897
4 6 13 6.2497 -0.2477
4 6 16 2.4299 -0.1247
4 6 19 4.6836 0.1644
4 6 22 -6.2709 0.1460
4 6 25 3.7580 -0.0350
4 6 28 -1.0463 -0.2683
4 6 31 -1.9667 -0.0947
4 6 34 -2.9724 0.1791
4 6 37 -5.7162 0.4640
4 6 40 6.9074 -0.4418
4 7 -39 8.8093 0.1695
4 7 -36 -4.8736 -0.4577
4 7 -33 2.8810 0.1143
4 7 -30 0.0972 0.0524
4 7 -27 -0.9382 0.1521
4 7 -24 6.8214 -0.2378
4 7 -21 -6.1351 -0.0325
4 7 -18 5.7908 0.1208
4 7 -15 -6.2196 0.1717
4 7 -12 6.6265 0.0605
4 7 -9 -7.0921 -0.1406
4 7 -6 3.1753 -0.0842
4 7 -3 -2.1613 0.2417
4 7 0 -6.5198 0.2222
4 7 3 17.4125 -0.0952
4 7 6 -16.2333 -0.1976
4 7 9 8.8520 -0.1295
4 7 12 -0.6809 -0.0064
4 7 15 7.0437 0.2352
4 7 18 1.8999 0.1046
4 7 21 3.0472 -0.1184
4 7 24 -2.6847 -0.2269
4 7 27 -1.4017 0.0449
4 7 30 0.1217 0.3679
4 7 33 -1.2612 0.2322
4 7 36 -5.8734 -0.4273
4 7 39 6.5347 0.1225
4 8 -37 -1.5269 -0.3491
4 8 -34 11.2365 0.2779
4 8 -31 -2.5451 0.0186
4 8 -28 -0.5657 -0.0309
4 8 -25 1.6612 -0.2067
4 8 -22 -3.1927 0.1475
4 8 -19 7.8499 0.2076
4 8 -16 -6.5416 -0.0393
4 8 -13 4.1195 -0.0693
4 8 -10 0.6836 -0.0556
4 8 -7 -4.4574 0.1098
4 8 -4 6.2102 0.3081
4 8 -1 -2.9308 -0.1107
4 8 2 3.0662 -0.3717
4 8 5 -0.1852 0.0195
4 8 8 4.2401 0.0189
4 8 11 0.1070 0.1410
4 8 14 9.4084 0.0961
4 8 17 3.3236 -0.2909
4 8 20 -2.1757 -0.0073
4 8 23 2.0145 0.2547
4 8 26 -1.1430 0.2122
4 8 29 2.0018 0.0681
4 8 32 -3.6280 -0.1896
4 8 35 1.0363 -0.0941
4 8 38 0.7047 0.6051
4 9 -35 9.7083 0.5259
4 9 -32 3.0336 -0.2108
4 9 -29 -4.4162 -0.1022
4 9 -26 1.0231 -0.0438
4 9 -23 1.7595 0.1360
4 9 -20 3.7100 0.0882
4 9 -17 -9.0939 -0.1040
4 9 -14 8.4626 -0.0647
4 9 -11 2.9158 0.0478
4 9 -8 -3.2211 0.0821
4 9 -5 2.9957 -0.0579
4 9 -2 -5.1412 -0.0568
4 9 1 8.1784 -0.1438
4 9 4 2.3474 0.1189
4 9 7 2.2671 0.1196
4 9 10 1.8272 -0.2105
4 9 13 8.1501 0.0121
4 9 16 -2.7801 0.0612
4 9 19 10.1303 0.1415
4 9 22 -5.8721 0.1267
4 9 25 -0.5853 -0.1122
4 9 28 0.9559 -0.0990
4 9 31 5.3941 0.2039
4 9 34 -3.0466 0.3286
4 9 37 2.1990 -0.4580
4 10 -33 3.3527 -0.6052
4 10 -30 -6.0589 0.1773
4 10 -27 7.5852 0.1570
4 10 -24 -4.0546 0.1127
4 10 -21 0.7547 -0.1483
4 10 -18 -1.3097 -0.1851
4 10 -15 7.2473 0.1000
4 10 -12 -0.9900 -0.0277
4 10 -9 0.8781 -0.0617
4 10 -6 -0.4130 0.0493
4 10 -3 -5.6307 -0.0232
4 10 0 15.7884 -0.0589
4 10 3 -7.1519 0.0841
4 10 6 6.6128 -0.0013
4 10 9 1.0773 0.0685
4 10 12 5.2301 0.1677
4 10 15 4.2348 -0.0530
4 10 18 -0.7917 -0.0804
4 10 21 -2.4608 -0.0634
4 10 24 1.5670 0.0412
4 10 27 2.9198 0.2312
4 10 30 3.3631 0.1519
4 10 33 -4.0780 -0.7824
4 11 -34 8.0059 -0.3935
4 11 -31 -7.0397 0.7777
4 11 -28 4.1805 0.0338
4 11 -25 -6.1319 -0.2889
4 11 -22 2.7966 -0.1338
4 11 -19 4.0410 -0.0833
4 11 -16 1.8040 0.2082
4 11 -13 -3.2639 0.1048
4 11 -10 3.7964 -0.1470
4 11 -7 -2.0026 -0.0559
4 11 -4 1.8965 -0.0638
4 11 -1 1.6392 -0.0300
4 11 2 -5.3338 0.3119
4 11 5 14.6345 0.1924
4 11 8 -3.6680 -0.1109
4 11 11 1.0426 -0.0076
4 11 14 5.3495 -0.1208
4 11 17 -3.6012 -0.0099
4 11 20 5.1131 0.2584
4 11 23 -2.9605 0.0784
4 11 26 3.2617 -0.2092
4 11 29 -1.7444 -0.3720
4 11 32 6.2159 0.0184
4 12 -32 -12.7269 0.5598
4 12 -29 1.6112 -0.4583
4 12 -26 -0.6894 -0.3016
4 12 -23 4.8081 0.1091
4 12 -20 0.7502 0.2947
4 12 -17 -7.3158 0.1587
4 12 -14 3.7916 -0.0918
4 12 -11 6.3742 -0.2644
4 12 -8 -3.5846 -0.0103
4 12 -5 -3.8082 0.1645
4 12 -2 0.9882 0.2137
4 12 1 -1.1555 0.1171
4 12 4 12.3189 -0.0989
4 12 7 -9.8947 -0.1890
4 12 10 10.4028 0.0438
4 12 13 -5.3171 0.1353
4 12 16 5.9762 0.1763
4 12 19 -0.9678 0.0383
4 12 22 0.2830 -0.3410
4 12 25 -1.0602 -0.1521
4 12 28 10.0130 0.2590
4 12 31 -5.1258 0.3659
4 13 -30 0.4092 -0.5278
4 13 -27 -3.1260 -0.0073
4 13 -24 4.5456 0.3260
4 13 -21 -7.5506 0.3066
4 13 -18 -2.2236 -0.1758
4 13 -15 11.0283 -0.1648
4 13 -12 -5.4638 -0.0375
4 13 -9 -0.7932 0.2721
4 13 -6 -3.7332 0.1446
4 13 -3 -1.7280 -0.0188
4 13 0 5.1640 -0.1064
4 13 3 5.9832 -0.1079
4 13 6 -7.7289 -0.0357
4 13 9 8.1238 0.2131
4 13 12 -1.2374 0.0727
4 13 15 0.9581 -0.2357
4 13 18 2.4568 -0.0404
4 13 21 2.1190 0.1544
4 13 24 2.7048 0.1814
4 13 27 0.5754 0.1214
4 13 30 -2.7088 -0.8039
4 14 -28 -6.3499 0.1056
4 14 -25 0.9178 0.4420
4 14 -22 -1.5120 0.1394
4 14 -19 4.0053 -0.4041
4 14 -16 -5.3964 -0.0170
4 14 -13 -2.2371 0.1555
4 14 -10 2.0989 0.2039
4 14 -7 -3.3969 0.0058
4 14 -4 2.9974 -0.1035
4 14 -1 2.0837 -0.0292
4 14 2 -1.4194 0.0353
4 14 5 3.4480 0.0162
4 14 8 2.7027 -0.1094
4 14 11 -1.6895 -0.0965
4 14 14 4.1584 0.1604
4 14 17 3.6154 0.1491
4 14 20 -2.3807 -0.0774
4 14 23 2.5864 -0.0777
4 14 26 1.3250 -0.3412
4 15 -23 -1.6061 -0.2493
4 15 -20 -2.0155 -0.5598
4 15 -17 -2.8606 0.0684
4 15 -14 -1.6342 0.3736
4 15 -11 4.0733 0.0784
4 15 -8 -4.5558 -0.0457
4 15 -5 5.2582 -0.0826
4 15 -2 0.2596 -0.0630
4 15 1 -0.4507 0.0957
4 15 4 7.0579 0.0316
4 15 7 -0.7681 0.1406
4 15 10 -0.8237 0.0079
4 15 13 2.9016 -0.1632
4 15 16 1.8764 0.0330
4 15 19 -0.6850 -0.1889
4 15 22 0.1663 -0.1106
4 15 25 0.3739 1.0229
4 16 -21 -1.1613 -0.2853
4 16 -18 -2.4410 0.3978
4 16 -15 -0.0824 0.3470
4 16 -12 -4.6598 -0.2198
4 16 -9 7.7704 -0.1565
4 16 -6 -0.7234 -0.0809
4 16 -3 4.3200 0.1790
4 16 0 0.1562 0.3624
4 16 3 4.1090 0.0937
4 16 6 -2.4431 -0.1013
4 16 9 -0.8638 -0.0054
4 16 12 5.3979 -0.1063
4 16 15 -0.1342 -0.0487
4 16 18 -3.9797 0.1212
4 16 21 -1.7351 0.3920
4 17 -16 -3.1316 0.2186
4 17 -13 2.5518 -0.5294
4 17 -10 5.3526 0.1608
4 17 -7 0.5212 0.1297
4 17 -4 2.9662 0.1842
4 17 -1 -2.8175 0.2016
4 17 2 6.2494 -0.0703
4 17 5 -3.3907 -0.0308
4 17 8 0.3139 0.2407
4 17 11 2.5465 0.1699
4 17 14 -2.3179 0.0158
4 17 17 -3.8524 -0.7552
4 18 -11 -0.0043 0.0949
4 18 -8 2.3686 0.1723
4 18 -5 -0.2620 -0.0359
4 18 -2 1.2215 0.1468
4 18 1 0.9930 -0.1894
4 18 4 -0.3931 0.3510
4 18 7 -2.1822 0.3091
4 18 10 2.2012 -0.3140
4 18 13 -3.3834 -0.4582
4 19 0 1.2041 -0.7404
5 1 -41 -0.4327 0.0900
5 1 -38 -0.4681 0.2623
5 1 -35 1.1844 0.0991
5 1 -32 -8.8283 -0.1562
5 1 -29 2.8856 -0.0085
5 1 -26 5.4230 0.0862
5 1 -23 -7.9612 -0.1763
5 1 -20 6.3737 0.0570
5 1 -17 -0.7568 0.0653
5 1 -14 -27.4241 -0.1841
5 1 -11 30.8350 0.5306
5 1 -8 -0.5726 0.1435
5 1 -5 0.9025 -0.2817
5 1 -2 40.2052 0.3474
5 1 1 -41.7960 -0.2306
5 1 4 18.5270 -0.0507
5 1 7 -8.2159 0.3992
5 1 10 -12.4323 -0.1720
5 1 13 5.7367 -0.0811
5 1 16 4.7619 -0.0574
5 1 19 -5.2865 -0.1460
5 1 22 3.0345 0.3048
5 1 25 4.5736 0.2492
5 1 28 -8.5012 -0.0572
5 1 31 10.8335 -0.0944
5 1 34 3.6440 0.1797
5 1 37 -7.7273 0.1680
5 1 40 11.4701 -0.0133
5 2 -42 -3.5819 0.5010
5 2 -39 1.7632 -0.0986
5 2 -36 -4.2017 -0.0411
5 2 -33 -5.1444 -0.1179
5 2 -30 3.5243 0.0604
5 2 -27 -4.9349 0.1649
5 2 -24 -1.0139 -0.0795
5 2 -21 8.9607 -0.1232
5 2 -18 -10.7710 0.1458
5 2 -15 -8.4574 -0.0904
5 2 -12 27.9639 0.3037
5 2 -9 -39.7258 0.1807
5 2 -6 35.9361 -0.3484
5 2 -3 11.0058 0.2409
5 2 0 -44.2765 -0.2026
5 2 3 62.1114 -0.1143
5 2 6 -58.4998 0.3023
5 2 9 9.1884 -0.2801
5 2 12 15.5335 -0.0394
5 2 15 -23.7600 0.2101
5 2 18 15.9997 -0.1401
5 2 21 2.1430 0.1644
5 2 24 -12.0058 0.1115
5 2 27 9.3826 -0.1236
5 2 30 1.8967 0.2271
5 2 33 -1.1691 0.1862
5 2 36 7.5600 -0.0506
5 2 39 -2.9088 -0.4476
5 2 42 7.7708 0.5585
5 3 -40 -1.4774 -0.2983
5 3 -37 3.2434 0.4001
5 3 -34 -8.1436 -0.0471
5 3 -31 -4.3166 -0.0351
5 3 -28 -6.0344 -0.0993
5 3 -25 6.1317 -0.1021
5 3 -22 10.1270 0.2217
5 3 -19 -14.3850 0.1179
5 3 -16 10.5545 -0.1649
5 3 -13 -11.3378 -0.0237
5 3 -10 -6.9675 0.0742
5 3 -7 23.2975 -0.0411
5 3 -4 -17.3485 0.2897
5 3 -1 6.5279 -0.2164
5 3 2 11.5543 -0.4319
5 3 5 -26.9514 0.1794
5 3 8 16.0109 0.0496
5 3 11 -7.4561 0.1061
5 3 14 -9.0173 0.0921
5 3 17 11.9056 -0.3632
5 3 20 -6.6109 -0.0113
5 3 23 -1.7388 0.2863
5 3 26 4.9668 0.0893
5 3 29 1.7670 0.0813
5 3 32 -0.6600 -0.1708
5 3 35 2.3501 -0.2222
5 3 38 -3.3643 0.2413
5 3 41 6.3992 0.3537
5 4 -41 6.5068 0.5259
5 4 -38 -3.0992 0.1566
5 4 -35 -5.2027 -0.3234
5 4 -32 -1.9666 -0.1263
5 4 -29 -4.5035 0.0592
5 4 -26 5.9273 0.1869
5 4 -23 -0.4283 0.2029
5 4 -20 3.7521 -0.3307
5 4 -17 -1.1159 -0.2272
5 4 -14 -7.7450 0.0733
5 4 -11 12.1342 0.2416
5 4 -8 -17.8250 0.1479
5 4 -5 8.8308 -0.1317
5 4 -2 2.0658 -0.3564
5 4 1 0.1676 -0.0498
5 4 4 -8.8860 0.3439
5 4 7 23.0845 0.1025
5 4 10 -35.4235 -0.0550
5 4 13 15.2811 -0.1994
5 4 16 2.9925 -0.3219
5 4 19 -10.6119 0.2828
5 4 22 6.5064 0.2911
5 4 25 1.0582 -0.1520
5 4 28 1.7842 -0.2496
5 4 31 -2.9953 -0.0543
5 4 34 -5.4774 0.0090
5 4 37 2.7697 0.4763
5 4 40 4.7643 -0.3574
5 5 -39 -6.3613 -0.2214
5 5 -36 3.9340 -0.1683
5 5 -33 1.3403 0.1604
5 5 -30 -7.2769 0.2107
5 5 -27 -2.2450 -0.0820
5 5 -24 14.9367 -0.1881
5 5 -21 -8.6166 -0.1623
5 5 -18 7.7751 0.1297
5 5 -15 -2.2792 0.1889
5 5 -12 -5.1846 -0.0427
5 5 -9 -1.7826 -0.1632
5 5 -6 5.8868 -0.1740
5 5 -3 -6.5062 0.1813
5 5 0 1.3035 0.2221
5 5 3 13.8168 0.1159
5 5 6 -14.8940 -0.1103
5 5 9 -2.5260 -0.3217
5 5 12 10.9603 0.0624
5 5 15 -12.7527 0.1851
5 5 18 7.3574 0.1082
5 5 21 0.0004 -0.1179
5 5 24 2.0382 -0.2703
5 5 27 2.4665 -0.1219
5 5 30 -12.1563 0.1756
5 5 33 2.4116 0.3504
5 5 36 3.0465 -0.2001
5 5 39 -6.3990 -0.3397
5 6 -37 7.0545 0.0930
5 6 -34 3.4654 0.2809
5 6 -31 -3.5181 -0.1632
5 6 -28 0.0962 -0.0922
5 6 -25 7.6735 -0.1048
5 6 -22 -6.8780 0.1904
5 6 -19 10.9128 0.1734
5 6 -16 -3.1568 -0.1669
5 6 -13 -6.9163 -0.1922
5 6 -10 8.9278 -0.0532
5 6 -7 -2.6181 0.1873
5 6 -4 -11.2516 0.3429
5 6 -1 18.7964 -0.0848
5 6 2 -10.0824 -0.2671
5 6 5 3.9015 -0.0938
5 6 8 -1.1425 0.1190
5 6 11 -0.9536 0.2814
5 6 14 0.5478 -0.0371
5 6 17 3.2790 -0.2454
5 6 20 5.7352 -0.1279
5 6 23 -2.0745 0.0099
5 6 26 -1.5563 0.3147
5 6 29 -7.3117 0.1548
5 6 32 6.5550 -0.2706
5 6 35 -6.3785 -0.3250
5 6 38 -2.9393 0.6415
5 7 -38 6.7455 0.2918
5 7 -35 9.5189 0.0436
5 7 -32 -5.2535 -0.1515
5 7 -29 4.7881 0.0534
5 7 -26 2.4248 0.0271
5 7 -23 -3.9568 0.1328
5 7 -20 6.4664 -0.0430
5 7 -17 -0.8514 -0.1998
5 7 -14 -2.4196 0.1060
5 7 -11 7.5737 0.1323
5 7 -8 -10.4040 0.0413
5 7 -5 9.2889 0.0054
5 7 -2 -2.3575 -0.2433
5 7 1 -2.1359 -0.0713
5 7 4 12.1968 0.2328
5 7 7 -12.2169 -0.0271
5 7 10 7.2676 0.0184
5 7 13 2.1016 -0.2088
5 7 16 6.2293 -0.1435
5 7 19 1.6411 0.3707
5 7 22 0.8027 0.2421
5 7 25 -5.6544 -0.1537
5 7 28 -2.7273 -0.1747
5 7 31 6.6619 -0.0269
5 7 34 -3.9210 0.4723
5 7 37 -5.3316 -0.0342
5 8 -36 5.1439 -0.1800
5 8 -33 6.8375 -0.1005
5 8 -30 -2.3993 0.1749
5 8 -27 3.7776 -0.0182
5 8 -24 -4.2531 -0.0163
5 8 -21 5.4167 -0.0346
5 8 -18 -0.8834 0.0268
5 8 -15 -0.7977 0.1074
5 8 -12 5.2287 -0.0056
5 8 -9 -4.1446 -0.0925
5 8 -6 2.7509 -0.1315
5 8 -3 2.8475 0.0532
5 8 0 0.8359 0.0197
5 8 3 4.3682 -0.0337
5 8 6 -7.0819 -0.1450
5 8 9 12.8169 -0.1384
5 8 12 -2.4696 0.1736
5 8 15 10.7480 0.1847
5 8 18 2.0402 0.0712
5 8 21 -8.8365 -0.1473
5 8 24 -0.1064 -0.0585
5 8 27 1.6940 0.1961
5 8 30 8.4854 0.2963
5 8 33 -8.9130 -0.1280
5 8 36 0.4775 -0.3922
5 9 -34 6.2577 0.0976
5 9 -31 -3.9516 0.2741
5 9 -28 8.5728 -0.1654
5 9 -25 -8.5804 -0.0712
5 9 -22 7.5995 -0.0385
5 9 -19 0.0248 0.0902
5 9 -16 -7.6916 0.0803
5 9 -13 9.3085 -0.1801
5 9 -10 1.2532 0.0059
5 9 -7 -1.0905 -0.0178
5 9 -4 2.8092 -0.0413
5 9 -1 1.0725 -0.0310
5 9 2 -0.5741 -0.1207
5 9 5 4.6255 0.0035
5 9 8 7.1326 0.1913
5 9 11 0.9742 0.0062
5 9 14 8.7121 -0.1134
5 9 17 -10.7009 0.0350
5 9 20 5.6048 0.0135
5 9 23 -2.6027 0.2489
5 9 26 2.7981 0.0770
5 9 29 1.3330 -0.3313
5 9 32 -3.3494 -0.2318
5 9 35 7.1331 0.7439
5 10 -32 -1.5034 0.0215
5 10 -29 2.8182 -0.4545
5 10 -26 -4.0569 -0.0574
5 10 -23 5.4960 0.2251
5 10 -20 -3.7169 0.0462
5 10 -17 -1.5625 -0.0352
5 10 -14 7.9341 -0.1393
5 10 -11 -1.1709 -0.0565
5 10 -8 1.1716 -0.0753
5 10 -5 1.4613 0.0713
5 10 -2 -7.7187 0.0678
5 10 1 9.4256 0.0546
5 10 4 9.1884 -0.0191
5 10 7 -3.4728 -0.0931
5 10 10 1.5632 0.0552
5 10 13 4.8815 0.0522
5 10 16 -4.9887 0.1904
5 10 19 5.5759 0.0173
5 10 22 -6.8937 -0.2473
5 10 25 1.8944 -0.0819
5 10 28 1.5450 -0.0498
5 10 31 5.9822 0.5318
5 10 34 0.4096 -0.4258
5 11 -33 -1.9526 -0.6855
5 11 -30 -0.3727 -0.1702
5 11 -27 1.5274 0.2708
5 11 -24 0.4053 0.2787
5 11 -21 -6.1527 -0.0518
5 11 -18 4.6160 -0.2942
5 11 -15 6.7975 -0.1055
5 11 -12 -5.4512 0.0337
5 11 -9 2.0197 0.1350
5 11 -6 -5.0083 0.2035
5 11 -3 0.1508 -0.0706
5 11 0 7.8410 -0.1755
5 11 3 -0.0638 0.0358
5 11 6 0.4341 0.0623
5 11 9 5.9131 0.2226
5 11 12 -6.6365 0.0937
5 11 15 3.9062 -0.1022
5 11 18 -2.7143 -0.2704
5 11 21 -1.0768 -0.0183
5 11 24 1.3315 0.2694
5 11 27 5.7438 0.0910
5 11 30 -5.3665 -0.1644
5 11 33 8.1229 -0.4547
5 12 -31 -2.7551 0.3144
5 12 -28 -2.4181 0.2621
5 12 -25 -1.9205 0.1139
5 12 -22 -3.8877 -0.3202
5 12 -19 13.7486 -0.1453
5 12 -16 -7.4850 0.1333
5 12 -13 -4.4164 0.2220
5 12 -10 4.6135 0.0736
5 12 -7 -7.3227 -0.1133
5 12 -4 0.6109 -0.1787
5 12 -1 4.9214 0.0587
5 12 2 -1.2574 0.1825
5 12 5 2.8657 0.0788
5 12 8 -1.0830 0.0069
5 12 11 0.0653 -0.1788
5 12 14 -3.1809 -0.0918
5 12 17 3.9750 0.1369
5 12 20 -0.8275 0.1425
5 12 23 2.0695 0.1099
5 12 26 -4.9316 -0.3611
5 12 29 6.2663 0.0036
5 13 -29 -4.6048 0.1714
5 13 -26 -3.0554 0.0981
5 13 -23 6.5002 -0.4897
5 13 -20 3.8209 0.2198
5 13 -17 -18.4521 0.2381
5 13 -14 9.7098 0.0578
5 13 -11 -2.6914 -0.1119
5 13 -8 -2.7957 -0.1281
5 13 -5 -0.4764 -0.0126
5 13 -2 -1.8187 0.2179
5 13 1 2.0640 0.0045
5 13 4 6.5488 -0.1207
5 13 7 -7.3449 -0.1690
5 13 10 3.2846 0.0373
5 13 13 -0.2438 0.1894
5 13 16 1.0424 -0.0658
5 13 19 0.4937 -0.1442
5 13 22 -2.5525 0.1955
5 13 25 4.5762 -0.0519
5 13 28 2.3509 0.4587
5 14 -24 1.8432 -0.4795
5 14 -21 -2.5693 0.5182
5 14 -18 -5.1672 0.2056
5 14 -15 1.0165 -0.0745
5 14 -12 -2.7740 -0.1572
5 14 -9 0.6486 -0.0657
5 14 -6 -3.7911 0.0148
5 14 -3 3.6080 0.1150
5 14 0 2.4663 0.0319
5 14 3 2.5441 -0.0452
5 14 6 -2.6516 -0.0216
5 14 9 0.8095 -0.1414
5 14 12 -0.3022 -0.0688
5 14 15 3.5262 -0.0049
5 14 18 -0.8854 0.0999
5 14 21 -1.4314 0.3049
5 14 24 2.3121 -0.0505
5 15 -22 0.3883 0.7257
5 15 -19 -7.4049 0.0133
5 15 -16 -2.7622 -0.4252
5 15 -13 -0.8257 -0.0877
5 15 -10 6.7816 -0.0572
5 15 -7 -7.7049 0.2606
5 15 -4 12.1678 0.1817
5 15 -1 -2.8475 0.0547
5 15 2 0.1457 -0.1083
5 15 5 2.0146 -0.1749
5 15 8 1.8344 0.0547
5 15 11 0.9050 0.0637
5 15 14 -1.8458 -0.1087
5 15 17 -0.1874 0.2912
5 15 20 -1.5697 -0.1068
5 15 23 2.0040 -0.6972
5 16 -20 -8.2503 -0.3548
5 16 -17 -0.6859 -0.3944
5 16 -14 5.2812 0.1612
5 16 -11 -1.0800 0.1365
5 16 -8 0.5137 0.3026
5 16 -5 6.8661 -0.0132
5 16 -2 -2.5008 -0.0299
5 16 1 5.9590 0.0204
5 16 4 0.4614 0.1480
5 16 7 1.0102 0.1619
5 16 10 -4.3306 0.0702
5 16 13 1.3918 -0.2930
5 16 16 -0.0457 -0.1581
5 16 19 -1.0218 0.1963
5 17 -15 2.9233 0.4143
5 17 -12 -4.5902 -0.0751
5 17 -9 6.1905 0.3712
5 17 -6 6.2415 -0.1473
5 17 -3 -2.6376 0.0924
5 17 0 1.6805 0.1503
5 17 3 4.0519 0.3553
5 17 6 -4.7288 -0.0938
5 17 9 0.6734 -0.0186
5 17 12 0.2128 -0.0962
5 17 15 1.0129 0.5632
5 18 -7 3.8111 -0.2949
5 18 -4 -4.3590 0.1884
5 18 -1 0.8914 -0.0480
5 18 2 2.8885 0.4250
5 18 5 -1.2988 -0.1034
5 18 8 -1.0912 0.6026
6 1 -40 -0.3065 -0.0981
6 1 -37 -2.6337 0.0050
6 1 -34 2.2828 -0.0617
6 1 -31 -1.3028 0.1609
6 1 -28 -8.2478 0.1041
6 1 -25 6.5404 0.0629
6 1 -22 0.9366 0.1397
6 1 -19 -8.1323 -0.1904
6 1 -16 5.0829 -0.1248
6 1 -13 -4.3098 0.3031
6 1 -10 -9.5372 -0.0298
6 1 -7 36.0252 -0.0853
6 1 -4 -35.2729 0.0834
6 1 -1 42.2003 -0.4787
6 1 2 -38.5337 -0.0141
6 1 5 -16.9178 0.4146
6 1 8 14.6006 -0.1249
6 1 11 -19.4367 0.1881
6 1 14 1.3659 0.2838
6 1 17 2.6939 -0.3195
6 1 20 4.3425 0.1436
6 1 23 -16.4066 0.3106
6 1 26 18.3002 0.0101
6 1 29 -3.5820 0.1172
6 1 32 -0.3874 -0.1614
6 1 35 4.8434 -0.1653
6 1 38 3.2518 -0.0465
6 1 41 8.2893 0.2773
6 2 -41 -0.3704 0.1636
6 2 -38 5.7940 0.2605
6 2 -35 -8.7137 -0.2217
6 2 -32 -5.3435 0.0385
6 2 -29 -3.6116 -0.0734
6 2 -26 8.3237 0.1076
6 2 -23 -0.2990 0.3003
6 2 -20 -7.3219 -0.2828
6 2 -17 6.5327 -0.0260
6 2 -14 -13.7328 0.2659
6 2 -11 14.7700 -0.0806
6 2 -8 -0.4505 0.1238
6 2 -5 -12.7236 0.0150
6 2 -2 41.3190 -0.5996
6 2 1 -68.3008 -0.0111
6 2 4 53.8560 0.4253
6 2 7 -34.7972 -0.1089
6 2 10 -13.5574 0.0649
6 2 13 22.8983 -0.0583
6 2 16 -24.2196 -0.2811
6 2 19 10.1994 0.4575
6 2 22 -4.4566 0.3412
6 2 25 4.2339 -0.1749
6 2 28 4.3138 -0.0954
6 2 31 -2.7270 -0.0878
6 2 34 -4.2456 0.0105
6 2 37 11.7513 0.3025
6 2 40 3.3862 -0.4297
6 3 -39 -6.6252 -0.4973
6 3 -36 -0.8427 -0.2361
6 3 -33 -2.0157 0.1659
6 3 -30 -3.5851 0.1824
6 3 -27 -1.1807 -0.0796
6 3 -24 0.1959 0.0062
6 3 -21 3.4550 -0.2444
6 3 -18 3.0669 0.1671
6 3 -15 -4.2953 0.2552
6 3 -12 3.2919 -0.0841
6 3 -9 -10.2451 0.0015
6 3 -6 12.7585 -0.1261
6 3 -3 3.3763 -0.2860
6 3 0 -21.1473 0.3022
6 3 3 36.1661 0.1565
6 3 6 -38.5555 -0.3274
6 3 9 6.5202 -0.0347
6 3 12 7.7079 -0.0115
6 3 15 -24.2107 -0.0207
6 3 18 17.1095 0.3596
6 3 21 -10.7292 -0.0336
6 3 24 7.4894 -0.3427
6 3 27 2.4167 0.1139
6 3 30 -7.7690 0.2356
6 3 33 -0.3675 -0.0525
6 3 36 12.0625 -0.2174
6 3 39 -5.3213 -0.2233
6 4 -40 -0.6820 -0.6317
6 4 -37 2.9281 0.4205
6 4 -34 -1.0310 0.1968
6 4 -31 -6.5794 -0.0996
6 4 -28 -2.4996 -0.4066
6 4 -25 10.5883 0.1536
6 4 -22 -5.1886 0.1174
6 4 -19 12.1974 0.1105
6 4 -16 -9.6451 -0.0548
6 4 -13 -3.6627 -0.3036
6 4 -10 14.7276 0.1156
6 4 -7 -17.0338 0.1209
6 4 -4 17.5538 -0.0241
6 4 -1 -16.2979 0.1290
6 4 2 28.3902 -0.1698
6 4 5 -36.1614 -0.1844
6 4 8 32.3633 0.1713
6 4 11 -25.9941 0.1375
6 4 14 -5.0792 -0.0961
6 4 17 17.6333 -0.1192
6 4 20 -18.3315 -0.1075
6 4 23 14.1113 0.0060
6 4 26 -2.2797 0.2522
6 4 29 -10.2939 -0.0406
6 4 32 11.5686 -0.1644
6 4 35 -4.8653 -0.3145
6 4 38 -6.5162 0.4340
6 5 -38 -4.6256 0.6043
6 5 -35 5.3655 -0.1985
6 5 -32 0.7826 -0.2409
6 5 -29 -2.2343 0.0053
6 5 -26 2.4296 0.3258
6 5 -23 1.3754 0.0207
6 5 -20 7.2874 -0.2501
6 5 -17 -3.6553 -0.1285
6 5 -14 0.6824 -0.0172
6 5 -11 5.8907 0.2254
6 5 -8 -11.5876 0.1030
6 5 -5 9.6939 -0.2273
6 5 -2 -3.5154 -0.1178
6 5 1 10.3434 0.0602
6 5 4 -6.8192 0.1574
6 5 7 4.5640 0.2091
6 5 10 -16.1042 -0.1797
6 5 13 12.3705 -0.3207
6 5 16 -3.0960 0.0804
6 5 19 0.3812 0.1683
6 5 22 2.4459 0.0818
6 5 25 -6.0112 -0.0063
6 5 28 3.5982 -0.2610
6 5 31 4.3689 -0.2608
6 5 34 -14.1708 0.4554
6 5 37 3.8799 0.2299
6 6 -36 10.8742 -0.3761
6 6 -33 2.2028 0.1337
6 6 -30 -2.0481 0.1427
6 6 -27 2.9871 0.1000
6 6 -24 -0.0898 -0.1755
6 6 -21 8.2059 -0.1240
6 6 -18 -2.7516 0.1175
6 6 -15 -0.5975 0.1471
6 6 -12 0.9983 -0.0011
6 6 -9 -2.0185 -0.2659
6 6 -6 10.3801 -0.0803
6 6 -3 -11.4459 0.0988
6 6 0 15.5664 0.1344
6 6 3 -12.3366 0.0862
6 6 6 3.2745 -0.2604
6 6 9 -0.7613 -0.1430
6 6 12 3.9059 0.0870
6 6 15 3.8338 0.2369
6 6 18 -3.6140 0.1813
6 6 21 2.6370 -0.2087
6 6 24 -6.1793 -0.3315
6 6 27 8.5377 0.1532
6 6 30 -3.3531 0.3321
6 6 33 -6.6068 0.1467
6 6 36 -1.8764 -0.6189
6 7 -37 6.3220 -0.4361
6 7 -34 10.8422 0.3869
6 7 -31 -8.5238 -0.0326
6 7 -28 9.5981 -0.0836
6 7 -25 -1.9824 -0.0216
6 7 -22 6.2780 0.1047
6 7 -19 -9.3621 0.1138
6 7 -16 3.9352 -0.0375
6 7 -13 3.7926 -0.1400
6 7 -10 1.6265 -0.0579
6 7 -7 0.4142 0.0858
6 7 -4 3.2008 0.0427
6 7 -1 -2.3702 -0.1088
6 7 2 -4.6563 -0.1737
6 7 5 11.7861 -0.1577
6 7 8 -6.0034 0.1372
6 7 11 4.5900 0.2681
6 7 14 7.5939 -0.0318
6 7 17 -4.9005 -0.1879
6 7 20 -1.4181 -0.0561
6 7 23 2.1703 0.2461
6 7 26 3.5048 0.2363
6 7 29 -6.7050 -0.0918
6 7 32 -1.8286 -0.4479
6 7 35 1.1429 0.3153
6 8 -35 3.7583 0.3606
6 8 -32 1.0890 -0.2838
6 8 -29 8.6986 -0.0924
6 8 -26 -6.4008 0.1695
6 8 -23 3.8612 0.0567
6 8 -20 -8.5100 -0.0297
6 8 -17 4.0610 0.0013
6 8 -14 7.6909 -0.1485
6 8 -11 -0.0092 0.1471
6 8 -8 -1.3531 0.0433
6 8 -5 0.9858 -0.1762
6 8 -2 1.9429 -0.0937
6 8 1 -0.9245 -0.0896
6 8 4 10.9646 0.0053
6 8 7 -11.0012 0.1215
6 8 10 14.7642 -0.1178
6 8 13 -4.4981 -0.0350
6 8 16 -0.4161 0.1388
6 8 19 8.1082 0.1186
6 8 22 -10.3565 0.0603
6 8 25 2.1117 -0.1889
6 8 28 -5.3787 -0.1551
6 8 31 5.7888 0.3148
6 8 34 5.0609 0.3168
6 9 -33 4.4645 -0.5960
6 9 -30 -2.6118 0.0391
6 9 -27 0.7138 0.3178
6 9 -24 -1.3430 -0.0143
6 9 -21 -5.4957 -0.2318
6 9 -18 12.3104 0.0150
6 9 -15 -5.9126 -0.0489
6 9 -12 2.4624 0.0778
6 9 -9 2.1969 0.0619
6 9 -6 -0.0858 -0.0818
6 9 -3 -0.5584 -0.0528
6 9 0 6.8712 -0.0320
6 9 3 5.8371 -0.1377
6 9 6 -12.0631 0.0445
6 9 9 15.1865 0.1526
6 9 12 -4.6598 0.0767
6 9 15 4.7401 -0.0269
6 9 18 -4.3229 -0.1554
6 9 21 -8.6004 -0.1833
6 9 24 2.3010 0.2559
6 9 27 -0.0297 0.2711
6 9 30 7.8325 -0.1606
6 9 33 -1.2935 -0.6431
6 10 -31 -1.1802 0.5179
6 10 -28 1.8879 0.2396
6 10 -25 -4.2910 -0.3707
6 10 -22 -1.3816 -0.2390
6 10 -19 12.3037 0.0398
6 10 -16 -11.1759 0.1252
6 10 -13 5.2544 0.0900
6 10 -10 -0.1618 -0.0123
6 10 -7 -0.1821 -0.1229
6 10 -4 1.9691 -0.1046
6 10 -1 0.5723 0.0207
6 10 2 2.4637 0.1581
6 10 5 0.7708 0.0800
6 10 8 9.2401 0.0560
6 10 11 -13.5913 -0.0950
6 10 14 8.7215 -0.2348
6 10 17 -9.3590 0.0692
6 10 20 -2.5989 0.2626
6 10 23 1.2464 -0.0607
6 10 26 -1.1053 -0.1065
6 10 29 3.0713 -0.4548
6 10 32 6.1383 0.4936
6 11 -29 -5.7277 -0.0925
6 11 -26 -1.0853 -0.5839
6 11 -23 5.7684 0.0453
6 11 -20 5.4568 0.3506
6 11 -17 -15.2855 0.0784
6 11 -14 12.2381 -0.0906
6 11 -11 -5.3759 -0.2806
6 11 -8 -0.7912 -0.0589
6 11 -5 -2.5671 0.1832
6 11 -2 1.8267 0.1517
6 11 1 4.5077 0.0515
6 11 4 -2.1570 -0.1039
6 11 7 4.3790 -0.1172
6 11 10 -7.8561 0.0279
6 11 13 0.6307 0.0879
6 11 16 -2.1267 0.1584
6 11 19 -6.0337 -0.1224
6 11 22 0.1159 -0.2441
6 11 25 -0.5954 0.0893
6 11 28 9.0718 0.1202
6 11 31 -1.8367 0.1471
6 12 -27 2.1626 -0.4455
6 12 -24 6.8162 0.3691
6 12 -21 -8.9697 0.3688
6 12 -18 -5.0722 -0.0886
6 12 -15 13.3206 -0.3046
6 12 -12 -11.7875 -0.1101
6 12 -9 1.0792 0.1328
6 12 -6 -6.1594 0.1445
6 12 -3 1.4320 -0.0069
6 12 0 4.1862 -0.1467
6 12 3 0.2992 -0.0952
6 12 6 -0.7467 0.0687
6 12 9 -5.0156 0.1177
6 12 12 1.0477 -0.1029
6 12 15 -5.1632 -0.0573
6 12 18 -3.3806 0.0673
6 12 21 0.7319 0.0081
6 12 24 8.5192 0.2568
6 12 27 -6.0124 -0.3904
6 13 -25 -1.1816 0.8166
6 13 -22 -3.8699 0.1029
6 13 -19 3.9995 -0.1087
6 13 -16 -2.8387 -0.2743
6 13 -13 -5.0668 0.0111
6 13 -10 -2.5198 0.1094
6 13 -7 -1.9420 -0.0179
6 13 -4 5.3244 -0.0524
6 13 -1 -4.1125 -0.0227
6 13 2 4.7402 -0.0384
6 13 5 0.9607 -0.0694
6 13 8 -9.5908 -0.1731
6 13 11 4.8616 -0.0095
6 13 14 -1.5935 0.2205
6 13 17 -7.6563 0.1343
6 13 20 10.6469 -0.2568
6 13 23 -6.3003 0.0051
6 13 26 0.9710 -0.0446
6 14 -23 -2.5520 -0.2899
6 14 -20 -2.3013 -0.2376
6 14 -17 0.4035 -0.1549
6 14 -14 -7.2019 0.1358
6 14 -11 0.3308 0.1406
6 14 -8 5.6932 0.0426
6 14 -5 0.5918 -0.1147
6 14 -2 -5.4519 -0.1301
6 14 1 9.1801 -0.0408
6 14 4 -0.0535 -0.0711
6 14 7 -3.1796 0.0851
6 14 10 1.0578 -0.0317
6 14 13 -5.7117 -0.0533
6 14 16 1.8889 0.0377
6 14 19 4.5238 -0.3823
6 14 22 -6.1258 0.4658
6 15 -21 2.3349 -0.0713
6 15 -18 -1.7640 0.2034
6 15 -15 -7.2636 0.1408
6 15 -12 2.2949 0.1164
6 15 -9 12.1845 -0.2331
6 15 -6 -10.4736 -0.0190
6 15 -3 8.7389 -0.0350
6 15 0 9.1548 0.2186
6 15 3 -5.8301 0.0814
6 15 6 -0.3413 -0.0699
6 15 9 -1.2216 -0.1088
6 15 12 1.0925 -0.2823
6 15 15 -0.0692 0.0769
6 15 18 0.3081 0.2018
6 15 21 -6.7761 0.1833
6 16 -16 -3.2903 -0.0291
6 16 -13 5.8994 0.0313
6 16 -10 9.5279 -0.2006
6 16 -7 -5.6133 0.1570
6 16 -4 8.0224 0.1812
6 16 -1 1.7516 0.2131
6 16 2 2.1528 0.0662
6 16 5 -5.2559 -0.1842
6 16 8 7.5004 0.0742
6 16 11 -5.4152 -0.1082
6 16 14 0.1508 0.2564
6 16 17 -3.3150 -0.5089
6 17 -8 -1.2552 0.2819
6 17 -5 6.8314 0.3031
6 17 -2 -1.2088 0.0006
6 17 1 2.7785 0.2492
6 17 4 -0.8582 0.0001
6 17 7 2.2090 0.1847
6 17 10 -5.6469 -0.5154
7 1 -39 4.9556 0.0203
7 1 -36 -5.6958 -0.1524
7 1 -33 -3.1225 0.0972
7 1 -30 4.2274 -0.0218
7 1 -27 -1.1105 0.0382
7 1 -24 -3.7274 0.3327
7 1 -21 -3.1033 -0.1387
7 1 -18 5.9010 -0.0207
7 1 -15 -3.3900 0.3141
7 1 -12 -2.5098 -0.3010
7 1 -9 3.9548 -0.0312
7 1 -6 14.2489 0.2656
7 1 -3 -23.5226 -0.5712
7 1 0 8.5831 0.0572
7 1 3 -1.5373 0.3727
7 1 6 -38.8888 -0.3132
7 1 9 18.6218 0.2532
7 1 12 -9.6205 0.0945
7 1 15 -11.2884 -0.0590
7 1 18 6.1408 0.4425
7 1 21 2.5404 -0.0114
7 1 24 -9.7986 -0.1711
7 1 27 9.8382 0.1683
7 1 30 -3.0056 -0.0065
7 1 33 -1.1724 -0.0948
7 1 36 7.2127 -0.0678
7 1 39 2.2758 -0.2303
7 2 -40 -2.1950 -0.6638
7 2 -37 5.1816 0.1909
7 2 -34 -2.9969 0.1957
7 2 -31 -1.8739 -0.0298
7 2 -28 -8.7693 -0.2449
7 2 -25 5.7033 0.2134
7 2 -22 0.9753 -0.0302
7 2 -19 5.4485 0.1227
7 2 -16 -5.5362 0.1743
7 2 -13 -7.9789 -0.2295
7 2 -10 13.9904 0.0730
7 2 -7 3.9629 0.2076
7 2 -4 -20.8121 -0.2918
7 2 -1 35.5136 0.0609
7 2 2 -40.9951 0.0353
7 2 5 11.2976 -0.2238
7 2 8 3.1688 0.2974
7 2 11 -26.9329 0.0494
7 2 14 13.6554 -0.1729
7 2 17 -5.2878 0.1268
7 2 20 -7.5092 0.0157
7 2 23 4.3101 0.0738
7 2 26 2.1929 0.2584
7 2 29 -2.1393 -0.1249
7 2 32 5.8491 -0.2653
7 2 35 -3.8769 -0.1358
7 2 38 -2.3551 0.4659
7 3 -38 -1.9842 0.6952
7 3 -35 -0.3050 -0.2900
7 3 -32 -4.3636 -0.3586
7 3 -29 -2.9299 -0.0161
7 3 -26 7.9340 0.3817
7 3 -23 -5.3329 -0.0746
7 3 -20 11.2287 -0.0450
7 3 -17 -8.9221 -0.0615
7 3 -14 -2.2323 -0.1334
7 3 -11 18.4869 0.3925
7 3 -8 -19.9037 0.0653
7 3 -5 14.5506 -0.3387
7 3 -2 2.4556 0.0371
7 3 1 -13.1343 0.0201
7 3 4 17.3991 0.0557
7 3 7 -11.1101 0.3098
7 3 10 -15.8291 -0.2618
7 3 13 18.0714 -0.3241
7 3 16 -18.9383 0.1657
7 3 19 -0.1443 0.1823
7 3 22 5.1957 0.1479
7 3 25 0.8105 -0.1100
7 3 28 0.3719 -0.3416
7 3 31 6.4522 0.1143
7 3 34 -16.1246 0.2746
7 3 37 5.1405 0.0027
7 3 40 7.5579 -0.7534
7 4 -39 -7.7972 0.1892
7 4 -36 6.7777 -0.5683
7 4 -33 2.0905 0.0772
7 4 -30 -4.9333 0.3561
7 4 -27 3.2651 0.0629
7 4 -24 -0.1991 -0.2424
7 4 -21 10.5408 -0.1631
7 4 -18 -3.4087 0.0843
7 4 -15 -4.2792 0.1280
7 4 -12 8.7378 0.1329
7 4 -9 -3.1417 -0.1995
7 4 -6 -2.6582 -0.2512
7 4 -3 16.4875 0.1079
7 4 0 -15.9333 0.2761
7 4 3 20.4403 0.0490
7 4 6 -25.0504 -0.0656
7 4 9 17.6408 -0.2599
7 4 12 -5.8978 -0.0347
7 4 15 -15.0551 0.3129
7 4 18 13.1813 0.0060
7 4 21 -8.8049 -0.1326
7 4 24 6.2785 -0.2117
7 4 27 6.7941 -0.0182
7 4 30 -7.0379 0.2267
7 4 33 -7.9267 0.2060
7 4 36 6.5090 -0.5683
7 4 39 -0.3766 -0.0313
7 5 -37 6.5297 -0.0779
7 5 -34 2.1938 0.3039
7 5 -31 -1.1120 0.1006
7 5 -28 6.5360 -0.1673
7 5 -25 -3.0509 -0.0734
7 5 -22 12.5325 0.0965
7 5 -19 -10.9347 0.0764
7 5 -16 1.2861 0.0012
7 5 -13 10.4834 -0.1334
7 5 -10 -5.6126 -0.2366
7 5 -7 5.7268 0.1715
7 5 -4 1.1449 0.1255
7 5 -1 -6.9830 -0.1261
7 5 2 11.9405 -0.0330
7 5 5 -9.5345 -0.0706
7 5 8 11.6328 0.0950
7 5 11 -15.2297 0.1656
7 5 14 8.3281 -0.0330
7 5 17 -4.9100 -0.1452
7 5 20 4.9874 -0.0786
7 5 23 1.2196 0.0484
7 5 26 0.1545 0.1786
7 5 29 -2.7239 0.0155
7 5 32 0.4097 -0.4157
7 5 35 -6.2140 0.0390
7 5 38 6.2648 0.4120
7 6 -35 6.4529 0.2499
7 6 -32 1.4968 -0.2111
7 6 -29 6.4877 0.0483
7 6 -26 -2.6001 0.1308
7 6 -23 3.2429 0.0661
7 6 -20 -7.8553 -0.0469
7 6 -17 8.9536 -0.0919
7 6 -14 4.8066 -0.0254
7 6 -11 -7.4298 0.0826
7 6 -8 8.7034 0.0381
7 6 -5 -0.3991 -0.1070
7 6 -2 -8.6495 -0.2159
7 6 1 18.7034 0.0117
7 6 4 -14.7299 0.1257
7 6 7 5.1523 0.0922
7 6 10 -4.0629 -0.0559
7 6 13 7.5451 -0.1707
7 6 16 -1.3920 0.0369
7 6 19 3.6783 0.2720
7 6 22 -0.8755 0.0950
7 6 25 -7.0560 -0.2746
7 6 28 5.9918 -0.2052
7 6 31 -1.7157 0.1232
7 6 34 -2.6522 0.4720
7 6 37 4.1763 -0.5746
7 7 -36 1.0445 -0.2058
7 7 -33 11.2639 -0.1695
7 7 -30 -1.7382 0.2794
7 7 -27 -2.6076 0.0176
7 7 -24 1.0444 -0.0708
7 7 -21 -0.3224 -0.0172
7 7 -18 1.5652 0.0220
7 7 -15 3.4584 0.0334
7 7 -12 -5.6719 0.1357
7 7 -9 9.2363 -0.0644
7 7 -6 -3.1895 -0.1119
7 7 -3 7.6936 -0.1009
7 7 0 -1.0369 0.0325
7 7 3 -10.3110 -0.0006
7 7 6 11.1585 -0.0957
7 7 9 -4.0642 -0.0286
7 7 12 2.3570 0.0766
7 7 15 8.5156 0.1557
7 7 18 -0.4758 -0.0038
7 7 21 -13.7945 -0.1782
7 7 24 2.5602 -0.0837
7 7 27 6.1466 0.2441
7 7 30 -4.3915 0.2556
7 7 33 6.8782 -0.5132
7 7 36 -6.7513 -0.2080
7 8 -34 2.4571 -0.0826
7 8 -31 -3.2816 0.3595
7 8 -28 4.1916 -0.2237
7 8 -25 -4.3335 -0.1210
7 8 -22 3.5496 0.0117
7 8 -19 0.6071 0.0719
7 8 -16 -8.3256 0.0854
7 8 -13 6.4163 0.0392
7 8 -10 7.5631 -0.0073
7 8 -7 -2.5541 -0.0424
7 8 -4 3.1340 -0.0684
7 8 -1 0.3067 -0.0066
7 8 2 -2.4442 -0.0751
7 8 5 5.2674 0.0576
7 8 8 -4.5023 0.0738
7 8 11 10.8935 -0.1097
7 8 14 -2.3811 -0.0512
7 8 17 -7.7328 -0.0399
7 8 20 -3.3462 0.0781
7 8 23 -0.8804 0.2480
7 8 26 3.6517 -0.1437
7 8 29 -1.4387 -0.4316
7 8 32 2.8175 0.0396
7 8 35 -1.3487 0.6619
7 9 -32 5.0702 0.3084
7 9 -29 -3.9087 -0.5805
7 9 -26 -1.3785 -0.1155
7 9 -23 5.0233 0.2353
7 9 -20 -4.0140 0.0520
7 9 -17 -4.3455 0.0227
7 9 -14 7.8939 -0.0791
7 9 -11 1.5768 -0.1178
7 9 -8 -1.1044 0.0996
7 9 -5 1.9676 0.0235
7 9 -2 -2.0121 0.0621
7 9 1 4.8168 0.0765
7 9 4 6.3460 -0.1581
7 9 7 -6.5474 -0.0327
7 9 10 1.4509 -0.0479
7 9 13 -0.0399 0.0831
7 9 16 -6.5803 0.1571
7 9 19 -3.6831 -0.0677
7 9 22 -4.4025 -0.3795
7 9 25 0.6124 -0.0838
7 9 28 2.4103 0.3056
7 9 31 4.3169 0.3556
7 10 -30 -8.3929 -0.7527
7 10 -27 4.3590 0.2084
7 10 -24 6.0437 0.4572
7 10 -21 -10.8692 -0.0494
7 10 -18 3.9915 -0.3158
7 10 -15 6.7216 -0.1165
7 10 -12 -5.2651 -0.0085
7 10 -9 -1.9899 0.2367
7 10 -6 0.9241 0.0895
7 10 -3 1.5330 -0.1089
7 10 0 4.0171 -0.0365
7 10 3 0.4212 -0.0833
7 10 6 -0.5439 0.0854
7 10 9 -0.6145 0.1654
7 10 12 -7.4182 0.0498
7 10 15 -0.9488 -0.2024
7 10 18 -9.0405 -0.2480
7 10 21 -3.2422 0.0704
7 10 24 3.3886 0.1688
7 10 27 1.3914 0.1534
7 10 30 1.1340 -0.5488
7 11 -28 1.0150 0.6683
7 11 -25 -0.3376 0.2274
7 11 -22 -7.0812 -0.2134
7 11 -19 10.8655 -0.3511
7 11 -16 0.8128 0.0692
7 11 -13 -9.1499 0.2270
7 11 -10 -2.2328 -0.0348
7 11 -7 1.8602 -0.1116
7 11 -4 -2.7002 -0.0859
7 11 -1 3.6212 0.0155
7 11 2 4.7129 0.0689
7 11 5 -5.3861 0.1126
7 11 8 -0.1911 -0.0689
7 11 11 -8.8674 -0.1280
7 11 14 -0.9462 0.0636
7 11 17 -6.3614 0.0680
7 11 20 -1.3766 0.0259
7 11 23 2.3806 -0.2311
7 11 26 -3.8229 -0.0703
7 11 29 5.4562 0.2892
7 12 -26 0.0418 0.0823
7 12 -23 3.8795 -0.3072
7 12 -20 4.0854 -0.1661
7 12 -17 -7.1276 0.2781
7 12 -14 -4.7759 0.1258
7 12 -11 -1.7533 -0.1724
7 12 -8 4.4988 -0.1657
7 12 -5 -6.8923 -0.0034
7 12 -2 0.7004 0.0484
7 12 1 8.0697 -0.0452
7 12 4 -4.4878 -0.1439
7 12 7 -5.7473 0.0394
7 12 10 -1.2590 0.1127
7 12 13 -0.5341 0.0384
7 12 16 -9.2808 -0.1633
7 12 19 6.1208 -0.0168
7 12 22 -11.0593 -0.0770
7 12 25 13.8793 0.6589
7 13 -24 -0.2357 -0.1651
7 13 -21 0.1850 -0.1007
7 13 -18 -3.6391 0.5823
7 13 -15 -8.4672 0.0567
7 13 -12 7.8031 -0.2448
7 13 -9 1.3050 -0.1983
7 13 -6 -11.8773 -0.0750
7 13 -3 7.8495 0.0308
7 13 0 5.0549 0.0124
7 13 3 -0.8399 -0.0733
7 13 6 -2.4136 0.0583
7 13 9 -7.0034 -0.2065
7 13 12 1.0884 -0.1377
7 13 15 1.5675 0.1312
7 13 18 -6.7546 0.2132
7 13 21 3.1859 0.1567
7 13 24 3.7388 -0.1768
7 14 -19 -10.9138 0.5631
7 14 -16 2.6732 -0.1401
7 14 -13 4.3217 -0.4802
7 14 -10 -1.8617 -0.0826
7 14 -7 -5.3230 0.1993
7 14 -4 16.0873 0.1093
7 14 -1 -1.7270 -0.0074
7 14 2 -0.9146 -0.1921
7 14 5 -1.7854 -0.1561
7 14 8 -0.0359 -0.0788
7 14 11 2.2282 -0.1371
7 14 14 -4.6345 0.4010
7 14 17 -3.0110 0.0903
7 14 20 3.0724 -0.4632
7 15 -17 8.2521 -0.2815
7 15 -14 -2.3693 -0.3203
7 15 -11 1.2166 0.2241
7 15 -8 6.9930 0.1373
7 15 -5 2.9489 0.1982
7 15 -2 0.8841 -0.1966
7 15 1 7.6545 -0.1304
7 15 4 -8.0964 -0.0344
7 15 7 10.7188 0.1195
7 15 10 -10.6739 -0.1544
7 15 13 0.5354 0.1322
7 15 16 -1.7157 -0.3170
7 16 -12 2.5326 0.2669
7 16 -9 8.7117 0.0784
7 16 -6 1.0755 0.2365
7 16 -3 2.6874 -0.2254
7 16 0 3.0800 0.1205
7 16 3 -0.5739 0.0721
7 16 6 2.2826 -0.0049
7 16 9 -7.4301 -0.3138
7 16 12 5.1166 0.4548
8 1 -38 1.8673 0.1712
8 1 -35 2.7510 0.0212
8 1 -32 -4.1200 -0.1599
8 1 -29 -6.1006 0.0166
8 1 -26 9.6432 0.1865
8 1 -23 -4.5572 -0.0775
8 1 -20 3.5765 0.1204
8 1 -17 -9.4146 0.0548
8 1 -14 6.2059 -0.0717
8 1 -11 5.6498 0.2233
8 1 -8 -6.4338 0.0318
8 1 -5 13.1198 -0.1767
8 1 -2 -15.6678 0.1105
8 1 1 -2.1793 0.0145
8 1 4 -2.7402 -0.0061
8 1 7 -8.6928 0.3458
8 1 10 -9.0747 -0.1612
8 1 13 11.1465 -0.1791
8 1 16 -12.5518 0.1945
8 1 19 -13.8883 0.1323
8 1 22 20.2906 0.0375
8 1 25 -8.5169 0.0490
8 1 28 0.6520 -0.1223
8 1 31 1.8789 -0.1034
8 1 34 -10.5356 0.2598
8 1 37 3.1654 0.1106
8 1 40 10.2654 -0.7417
8 2 -39 -8.9825 0.0784
8 2 -36 9.3642 -0.4748
8 2 -33 -3.4366 -0.0419
8 2 -30 -1.7177 0.2810
8 2 -27 4.4220 0.1165
8 2 -24 -3.6428 -0.2580
8 2 -21 5.8407 0.0079
8 2 -18 -8.6500 0.0740
8 2 -15 9.5527 0.0437
8 2 -12 0.3401 0.3566
8 2 -9 -6.9368 -0.1307
8 2 -6 21.7193 -0.2875
8 2 -3 -30.6722 0.3057
8 2 0 33.7498 0.0812
8 2 3 -28.7189 -0.0029
8 2 6 9.3091 0.2854
8 2 9 0.5431 -0.3678
8 2 12 -8.4521 -0.1165
8 2 15 -8.4884 0.3371
8 2 18 -2.1201 -0.0465
8 2 21 8.7456 -0.0516
8 2 24 -1.6224 0.0143
8 2 27 -0.5061 -0.0461
8 2 30 0.0580 0.1732
8 2 33 -8.1161 0.1754
8 2 36 6.4906 -0.5854
8 2 39 0.1715 0.0597
8 3 -37 13.4584 -0.0051
8 3 -34 1.0468 0.3870
8 3 -31 -6.5867 0.0854
8 3 -28 4.2152 -0.1632
8 3 -25 2.4690 -0.2351
8 3 -22 3.6365 0.0673
8 3 -19 -4.3353 0.2219
8 3 -16 6.4947 -0.0316
8 3 -13 -3.1635 0.0149
8 3 -10 3.5978 -0.1252
8 3 -7 2.0938 -0.0764
8 3 -4 0.4144 0.2229
8 3 -1 10.2733 0.1272
8 3 2 -17.3617 -0.1385
8 3 5 19.5908 0.1210
8 3 8 -4.0333 0.0024
8 3 11 -16.2511 -0.0553
8 3 14 7.4202 0.0704
8 3 17 -5.4775 -0.1561
8 3 20 2.1900 -0.0263
8 3 23 3.3602 0.1987
8 3 26 0.2191 0.0021
8 3 29 0.0430 -0.1470
8 3 32 0.1589 -0.1073
8 3 35 -1.9606 0.0118
8 3 38 -4.2951 0.3782
8 4 -38 11.4839 0.7123
8 4 -35 -2.7534 -0.0989
8 4 -32 1.5730 -0.1003
8 4 -29 5.8726 -0.0538
8 4 -26 1.8360 0.0174
8 4 -23 -0.7108 0.2139
8 4 -20 -2.3752 -0.0694
8 4 -17 12.7394 -0.2077
8 4 -14 -9.2197 0.0680
8 4 -11 1.6291 -0.0554
8 4 -8 13.9212 0.0862
8 4 -5 -16.4897 -0.0466
8 4 -2 20.7825 -0.1854
8 4 1 -14.7427 0.1377
8 4 4 20.0455 0.2466
8 4 7 -18.6794 -0.0421
8 4 10 4.9576 -0.1066
8 4 13 5.3334 -0.0814
8 4 16 -13.2994 0.0044
8 4 19 16.0692 0.1683
8 4 22 -9.2108 0.0900
8 4 25 2.5403 -0.2838
8 4 28 11.8087 -0.2219
8 4 31 -7.7480 0.1315
8 4 34 -5.7606 0.4605
8 4 37 4.3330 -0.4272
8 5 -36 -2.9077 -0.3030
8 5 -33 6.5265 -0.0493
8 5 -30 3.2197 0.2562
8 5 -27 4.5519 0.0272
8 5 -24 -8.9674 0.0419
8 5 -21 11.2892 -0.1464
8 5 -18 3.6704 -0.0885
8 5 -15 -14.1195 0.1875
8 5 -12 11.1634 -0.0204
8 5 -9 5.0252 -0.1151
8 5 -6 -5.9066 -0.1231
8 5 -3 14.1167 0.0193
8 5 0 -12.0607 0.0856
8 5 3 7.4140 0.0975
8 5 6 -7.5287 -0.0801
8 5 9 7.5711 -0.1107
8 5 12 -3.0163 0.0951
8 5 15 5.4952 0.1497
8 5 18 -0.7260 0.0177
8 5 21 -3.2240 -0.1817
8 5 24 3.6029 -0.1585
8 5 27 9.5530 0.0720
8 5 30 -10.4458 0.2884
8 5 33 5.2778 -0.2798
8 5 36 -2.8843 -0.2874
8 6 -34 10.5841 0.4790
8 6 -31 -0.1274 0.1130
8 6 -28 2.3869 -0.1922
8 6 -25 -2.5794 -0.0074
8 6 -22 9.7383 0.0201
8 6 -19 -9.3818 0.0729
8 6 -16 -4.4050 0.0712
8 6 -13 11.5785 -0.0264
8 6 -10 -1.1704 0.0001
8 6 -7 5.9212 -0.0903
8 6 -4 5.9952 0.0630
8 6 -1 -20.2023 -0.0211
8 6 2 19.3778 -0.0673
8 6 5 -9.5688 0.0176
8 6 8 -0.0845 0.0507
8 6 11 4.9145 0.0196
8 6 14 7.2955 -0.0037
8 6 17 -8.0139 -0.0979
8 6 20 -1.2662 0.0203
8 6 23 7.8595 0.1636
8 6 26 -2.4250 -0.0277
8 6 29 -2.2797 -0.2735
8 6 32 9.9658 -0.1613
8 6 35 -14.2219 0.4980
8 7 -35 0.3345 0.5478
8 7 -32 5.4489 -0.2883
8 7 -29 2.3488 -0.2843
8 7 -26 -4.0328 0.1351
8 7 -23 5.9471 0.1498
8 7 -20 -8.8468 0.0333
8 7 -17 -4.9990 -0.0399
8 7 -14 16.4253 0.0090
8 7 -11 -6.8971 0.0821
8 7 -8 8.5273 -0.0175
8 7 -5 -5.0394 0.0957
8 7 -2 1.5878 -0.0245
8 7 1 9.5907 -0.0616
8 7 4 -18.6112 0.0353
8 7 7 13.9407 -0.1075
8 7 10 1.5943 -0.0128
8 7 13 -5.5212 0.0591
8 7 16 -0.3560 0.0447
8 7 19 4.8574 0.0461
8 7 22 -7.4796 -0.0712
8 7 25 -0.2792 -0.3221
8 7 28 4.6710 0.0334
8 7 31 -2.5564 0.6004
8 7 34 2.0913 -0.3200
8 8 -33 4.8396 -0.6778
8 8 -30 -3.8238 -0.0916
8 8 -27 2.5684 0.3176
8 8 -24 -1.2442 0.1371
8 8 -21 -5.6752 -0.2082
8 8 -18 4.2516 -0.1029
8 8 -15 4.3530 0.0618
8 8 -12 -7.6593 0.0703
8 8 -9 10.7946 0.1991
8 8 -6 -4.6191 0.0352
8 8 -3 4.7494 -0.0447
8 8 0 4.4909 -0.0680
8 8 3 -8.1922 -0.1344
8 8 6 10.5695 0.1373
8 8 9 -13.3968 0.1233
8 8 12 10.0714 -0.0131
8 8 15 -6.0032 -0.1162
8 8 18 -2.7892 -0.2752
8 8 21 -7.9157 -0.0656
8 8 24 -0.7651 0.3097
8 8 27 5.7725 0.2273
8 8 30 -1.1410 -0.3376
8 8 33 5.5364 -0.5728
8 9 -31 -1.3411 0.2242
8 9 -28 0.5162 0.4243
8 9 -25 -1.1959 -0.1045
8 9 -22 -1.6836 -0.3706
8 9 -19 8.4454 -0.0501
8 9 -16 -5.3661 0.1735
8 9 -13 -5.4044 0.1039
8 9 -10 9.7516 0.0695
8 9 -7 -5.0481 -0.0669
8 9 -4 5.7384 -0.1416
8 9 -1 0.7884 0.0981
8 9 2 -1.5520 0.0938
8 9 5 8.7679 0.1408
8 9 8 -13.4800 0.0052
8 9 11 5.0237 -0.2493
8 9 14 -5.7707 -0.1334
8 9 17 -6.7661 0.0744
8 9 20 -6.4553 0.1648
8 9 23 -1.1937 -0.0687
8 9 26 4.4678 -0.3607
8 9 29 2.0445 -0.0369
8 9 32 1.7322 0.5463
8 10 -29 -5.7634 0.2421
8 10 -26 -0.3835 -0.4945
8 10 -23 8.9661 -0.1469
8 10 -20 0.3745 0.2412
8 10 -17 -4.9990 0.1179
8 10 -14 -4.0457 -0.0454
8 10 -11 6.5923 -0.1586
8 10 -8 -5.9394 -0.0736
8 10 -5 0.3933 0.0694
8 10 -2 5.3006 0.1135
8 10 1 2.0947 0.0322
8 10 4 -0.1642 0.0345
8 10 7 -5.8715 -0.1072
8 10 10 -0.0822 -0.0588
8 10 13 -5.5767 0.2348
8 10 16 -7.2482 -0.1012
8 10 19 -5.0165 -0.2227
8 10 22 -2.1576 -0.1176
8 10 25 5.5740 0.0942
8 10 28 -1.4453 0.5102
8 11 -27 3.6292 -0.3299
8 11 -24 6.1495 0.0255
8 11 -21 -4.6714 0.5156
8 11 -18 -3.4432 -0.0739
8 11 -15 1.6203 -0.1570
8 11 -12 0.7720 -0.0431
8 11 -9 -7.1021 -0.1358
8 11 -6 -0.7877 0.0910
8 11 -3 4.2040 0.0243
8 11 0 1.1513 -0.0617
8 11 3 3.0673 0.0141
8 11 6 -8.8095 0.1174
8 11 9 5.1764 -0.0975
8 11 12 -10.2955 -0.0051
8 11 15 -7.2527 -0.0696
8 11 18 3.9533 0.0791
8 11 21 -9.5410 0.2073
8 11 24 13.7938 -0.0210
8 11 27 -9.4578 -0.5109
8 12 -25 0.1237 0.3946
8 12 -22 0.7639 0.5116
8 12 -19 -2.5552 -0.0934
8 12 -16 0.3498 -0.1835
8 12 -13 0.3661 -0.0620
8 12 -10 -8.0904 -0.0623
8 12 -7 -1.5345 0.0676
8 12 -4 6.8154 0.0128
8 12 -1 -1.6357 -0.0340
8 12 2 6.1992 -0.0577
8 12 5 -6.9252 -0.1477
8 12 8 -1.9653 -0.1076
8 12 11 -3.9677 0.2271
8 12 14 -0.1313 0.2311
8 12 17 -2.7418 -0.0484
8 12 20 2.5523 0.0457
8 12 23 -4.0328 -0.6127
8 13 -20 -4.8299 -0.4556
8 13 -17 6.2916 -0.0931
8 13 -14 -10.9339 0.0076
8 13 -11 2.2073 0.2810
8 13 -8 2.5182 0.0280
8 13 -5 4.9730 -0.1920
8 13 -2 -2.8458 -0.1220
8 13 1 2.3581 -0.1578
8 13 4 0.0395 -0.0364
8 13 7 3.8768 0.1255
8 13 10 -11.1598 0.0581
8 13 13 1.4939 0.1283
8 13 16 5.7725 -0.2383
8 13 19 -7.1439 0.0477
8 13 22 2.9307 0.3756
8 14 -18 -2.3529 0.1067
8 14 -15 -5.6016 0.3832
8 14 -12 9.4066 0.0366
8 14 -9 0.5577 -0.1258
8 14 -6 0.5619 -0.1580
8 14 -3 3.6693 -0.0747
8 14 0 4.7459 -0.0068
8 14 3 -1.3034 0.0462
8 14 6 5.9818 -0.0263
8 14 9 -17.4413 -0.0994
8 14 12 12.5191 -0.0656
8 14 15 -0.8712 0.0751
8 14 18 -5.9824 0.4393
8 15 -13 3.3624 -0.1010
8 15 -10 1.1546 -0.0347
8 15 -7 9.1783 -0.1967
8 15 -4 -2.4067 0.1363
8 15 -1 2.2418 0.0452
8 15 2 8.0433 -0.0104
8 15 5 -6.0131 -0.1791
8 15 8 -4.9081 -0.0545
8 15 11 10.8426 0.2371
8 15 14 -10.3520 -0.2630
8 16 -5 -5.5498 0.4885
8 16 -2 3.5506 -0.0376
8 16 1 7.9446 0.0878
8 16 4 -5.4900 -0.2443
9 1 -37 12.5578 -0.1283
9 1 -34 -0.5034 0.2130
9 1 -31 -0.0928 0.0298
9 1 -28 0.1158 -0.0978
9 1 -25 -1.1303 -0.1643
9 1 -22 2.1285 0.1458
9 1 -19 -2.1545 0.0925
9 1 -16 4.0802 -0.0450
9 1 -13 -1.1933 0.2472
9 1 -10 -0.2814 0.0180
9 1 -7 5.2612 -0.2193
9 1 -4 -3.5847 0.4478
9 1 -1 2.7406 0.0994
9 1 2 -8.3359 -0.0762
9 1 5 2.0497 0.2767
9 1 8 0.2735 -0.1665
9 1 11 -8.3437 -0.1584
9 1 14 -0.6663 0.2276
9 1 17 2.5532 -0.1656
9 1 20 -10.2901 0.0330
9 1 23 11.5666 0.1015
9 1 26 -5.3503 -0.0617
9 1 29 -1.8647 0.1371
9 1 32 -2.3096 -0.0638
9 1 35 -1.8946 -0.0888
9 1 38 -9.1058 0.6238
9 2 -38 11.4988 0.5810
9 2 -35 -0.0651 0.0875
9 2 -32 -2.7448 -0.2266
9 2 -29 2.3358 -0.1363
9 2 -26 3.0703 0.0794
9 2 -23 2.3974 0.1409
9 2 -20 -0.5562 -0.0283
9 2 -17 -1.1537 -0.1291
9 2 -14 -0.4075 0.1272
9 2 -11 2.8549 0.0708
9 2 -8 -0.2400 -0.0243
9 2 -5 12.8230 0.0967
9 2 -2 -16.3156 0.0990
9 2 1 15.2852 0.0001
9 2 4 -6.2877 0.1966
9 2 7 1.3891 0.0899
9 2 10 -0.1715 -0.2581
9 2 13 -0.1771 0.0190
9 2 16 -6.7753 0.0547
9 2 19 -1.7384 0.0164
9 2 22 7.4348 0.0874
9 2 25 0.6759 -0.1160
9 2 28 3.6985 -0.0731
9 2 31 -5.7186 0.0476
9 2 34 -5.6033 0.5098
9 2 37 -3.0675 -0.2664
9 3 -36 -5.5855 -0.6834
9 3 -33 9.8878 0.0369
9 3 -30 0.6838 0.0975
9 3 -27 1.5733 0.2770
9 3 -24 1.4621 -0.0716
9 3 -21 3.0093 -0.2894
9 3 -18 -0.3563 -0.0061
9 3 -15 -4.0205 0.2283
9 3 -12 4.5550 -0.0796
9 3 -9 6.0763 -0.0326
9 3 -6 -3.5812 -0.0996
9 3 -3 5.2127 -0.0281
9 3 0 6.6519 0.2866
9 3 3 -9.5039 0.0850
9 3 6 11.5284 -0.1224
9 3 9 1.2537 -0.0149
9 3 12 -7.5652 0.0153
9 3 15 -1.7313 0.0718
9 3 18 7.2528 0.0372
9 3 21 -3.8122 -0.1301
9 3 24 9.2689 -0.1396
9 3 27 5.3514 0.1415
9 3 30 -9.4152 0.2168
9 3 33 0.6934 -0.1470
9 3 36 2.0551 -0.3798
9 4 -37 -4.1962 -0.5221
9 4 -34 12.3784 0.3534
9 4 -31 -1.2793 0.2959
9 4 -28 3.6081 -0.0271
9 4 -25 2.1443 -0.2676
9 4 -22 6.9371 -0.0415
9 4 -19 -9.9204 0.1072
9 4 -16 2.5544 0.1031
9 4 -13 5.5583 -0.1432
9 4 -10 -2.8335 -0.0778
9 4 -7 12.1166 -0.0566
9 4 -4 -7.2795 0.0349
9 4 -1 7.8881 0.0718
9 4 2 -8.5235 0.0113
9 4 5 18.6319 0.0536
9 4 8 -15.4244 -0.0269
9 4 11 6.6942 0.0346
9 4 14 4.9505 0.0156
9 4 17 -5.4856 -0.0995
9 4 20 6.8489 -0.0049
9 4 23 4.0096 0.1260
9 4 26 3.1394 -0.0520
9 4 29 0.7049 -0.2088
9 4 32 1.4159 -0.2352
9 4 35 -4.4015 0.6140
9 5 -35 10.2110 0.8906
9 5 -32 -2.0098 -0.3208
9 5 -29 3.3237 -0.2604
9 5 -26 10.9407 0.0325
9 5 -23 -6.5470 0.1946
9 5 -20 -7.6996 0.0171
9 5 -17 11.6373 -0.0564
9 5 -14 -5.6591 -0.0722
9 5 -11 4.1774 0.0546
9 5 -8 10.1843 -0.0713
9 5 -5 -11.0629 0.0247
9 5 -2 8.9626 0.0989
9 5 1 -0.1325 -0.0603
9 5 4 0.9056 0.0755
9 5 7 -9.2232 -0.0392
9 5 10 14.4119 -0.1302
9 5 13 -4.6026 0.1160
9 5 16 3.5306 0.0886
9 5 19 1.4815 0.0085
9 5 22 3.9414 -0.1282
9 5 25 2.2147 -0.1806
9 5 28 3.8981 -0.0822
9 5 31 -1.8139 0.4061
9 5 34 -3.4856 -0.0206
9 6 -33 4.1675 -0.7213
9 6 -30 3.3931 0.0669
9 6 -27 2.6703 0.3738
9 6 -24 -4.6396 0.0120
9 6 -21 -0.2066 -0.2076
9 6 -18 5.2596 -0.0080
9 6 -15 -6.6513 0.0391
9 6 -12 5.2388 0.1287
9 6 -9 2.8652 0.0542
9 6 -6 -0.9765 0.0468
9 6 -3 12.7633 0.0445
9 6 0 -14.8406 -0.1199
9 6 3 2.7230 0.0060
9 6 6 4.5809 -0.0073
9 6 9 -4.1324 0.0692
9 6 12 0.0346 0.1031
9 6 15 11.1237 -0.0840
9 6 18 -5.2771 -0.1783
9 6 21 -2.8004 -0.0908
9 6 24 7.5177 0.1354
9 6 27 -2.0447 0.2682
9 6 30 -1.9620 -0.1047
9 6 33 13.2672 -0.5687
9 7 -31 0.7659 0.6034
9 7 -28 3.9365 0.1495
9 7 -25 -5.5971 -0.3621
9 7 -22 6.4763 -0.2121
9 7 -19 0.8939 0.2163
9 7 -16 -13.3408 0.1024
9 7 -13 10.4153 0.1079
9 7 -10 1.7774 0.0688
9 7 -7 3.4440 -0.0564
9 7 -4 -0.0105 -0.0136
9 7 -1 -2.2212 0.0130
9 7 2 7.0353 0.1013
9 7 5 -10.1468 0.1458
9 7 8 -2.1632 -0.1124
9 7 11 14.6240 -0.0975
9 7 14 -7.1072 -0.1586
9 7 17 -7.1487 -0.0224
9 7 20 2.1579 0.2255
9 7 23 -0.6929 0.1476
9 7 26 0.3032 -0.2593
9 7 29 6.4419 -0.3900
9 7 32 2.1741 0.4489
9 8 -32 -1.6576 0.5893
9 8 -29 1.2304 -0.2362
9 8 -26 3.3898 -0.4112
9 8 -23 2.1917 0.0582
9 8 -20 -3.1144 0.3250
9 8 -17 -6.7153 -0.0108
9 8 -14 9.2483 -0.0606
9 8 -11 -2.4954 -0.1169
9 8 -8 1.5415 0.0853
9 8 -5 0.4490 0.0222
9 8 -2 5.0938 0.2407
9 8 1 1.0377 0.0419
9 8 4 -6.2973 -0.1327
9 8 7 5.1085 -0.0880
9 8 10 -2.4627 -0.0127
9 8 13 -0.8424 0.0638
9 8 16 -9.6983 0.0989
9 8 19 -0.5695 -0.1945
9 8 22 -2.3133 -0.1848
9 8 25 2.6807 -0.0212
9 8 28 3.8939 0.4033
9 8 31 -3.5477 0.0818
9 9 -30 0.8329 -0.6511
9 9 -27 4.2619 -0.1825
9 9 -24 2.1796 0.4394
9 9 -21 -5.9271 0.2323
9 9 -18 5.3574 -0.2640
9 9 -15 -0.7909 -0.2003
9 9 -12 -4.1042 -0.0224
9 9 -9 1.3657 0.1862
9 9 -6 -1.2043 0.0843
9 9 -3 9.8456 -0.0141
9 9 0 -3.0977 -0.0646
9 9 3 -2.0715 0.0137
9 9 6 8.0753 0.0796
9 9 9 -11.0268 0.0790
9 9 12 4.2650 -0.0277
9 9 15 -15.2111 -0.2599
9 9 18 3.3471 -0.0690
9 9 21 -3.9606 0.1361
9 9 24 -1.4367 0.1990
9 9 27 1.6971 -0.1371
9 9 30 8.0255 -0.4250
9 10 -28 0.4049 0.3911
9 10 -25 -3.4214 0.4503
9 10 -22 4.5566 0.0664
9 10 -19 3.0711 -0.3836
9 10 -16 -1.7014 -0.0910
9 10 -13 -8.5998 0.1445
9 10 -10 3.5701 0.0540
9 10 -7 -2.6299 0.0069
9 10 -4 4.8594 -0.0889
9 10 -1 -1.7181 -0.0084
9 10 2 6.2298 0.0936
9 10 5 -0.6269 0.1093
9 10 8 -5.3131 -0.1626
9 10 11 -0.6276 -0.0175
9 10 14 -12.5347 0.1171
9 10 17 10.8519 0.1326
9 10 20 -14.3110 -0.1371
9 10 23 4.5945 -0.2342
9 10 26 2.5323 -0.1904
9 11 -23 7.0018 -0.4104
9 11 -20 0.3725 -0.0665
9 11 -17 -5.8754 -0.0037
9 11 -14 -2.9811 0.2187
9 11 -11 0.6851 0.0983
9 11 -8 -6.0650 -0.0797
9 11 -5 5.4594 -0.1198
9 11 -2 -0.2608 -0.0441
9 11 1 4.6828 0.0108
9 11 4 -0.7642 0.0230
9 11 7 -8.0309 0.0890
9 11 10 6.1012 0.1544
9 11 13 -9.1817 0.0009
9 11 16 5.5662 -0.0808
9 11 19 -5.6213 -0.1627
9 11 22 -4.6156 0.1135
9 11 25 14.0674 0.5751
9 12 -21 0.5887 0.0978
9 12 -18 -5.6778 0.2680
9 12 -15 -3.7347 0.2733
9 12 -12 4.7957 0.0770
9 12 -9 -6.4611 -0.2050
9 12 -6 3.3444 -0.2309
9 12 -3 -0.8740 0.0440
9 12 0 0.6649 0.1063
9 12 3 6.4194 0.1267
9 12 6 -4.3957 -0.1013
9 12 9 -5.4319 -0.0362
9 12 12 2.2233 0.0842
9 12 15 5.3223 0.1335
9 12 18 -8.2950 0.0276
9 12 21 5.3267 0.5466
9 13 -19 -9.4222 0.2976
9 13 -16 7.3833 0.2100
9 13 -13 -2.5153 -0.3246
9 13 -10 -3.9292 0.0774
9 13 -7 4.5992 -0.1380
9 13 -4 -0.1083 0.1238
9 13 -1 4.7195 0.0626
9 13 2 -0.7537 -0.0988
9 13 5 -0.6038 -0.1707
9 13 8 -4.4552 0.0760
9 13 11 6.5539 0.1720
9 13 14 -3.2910 0.2436
9 13 17 1.9780 -0.0631
9 14 -14 -7.7027 0.0100
9 14 -11 6.1797 -0.0045
9 14 -8 6.4677 -0.0773
9 14 -5 -5.5522 0.1703
9 14 -2 5.2685 -0.0742
9 14 1 3.0275 -0.1115
9 14 4 -4.1030 -0.0943
9 14 7 3.3939 0.0062
9 14 10 0.0265 0.2925
9 14 13 -6.5863 -0.3098
9 15 -6 0.2796 0.1952
9 15 -3 4.3547 -0.1295
9 15 0 -0.0292 -0.1154
9 15 3 1.3562 -0.1384
9 15 6 -0.1476 -0.0121
10 1 -36 -1.8431 -0.2221
10 1 -33 3.3824 0.0310
10 1 -30 1.8529 0.0483
10 1 -27 3.5399 0.0220
10 1 -24 1.1305 -0.0516
10 1 -21 -2.2876 -0.0478
10 1 -18 -2.7877 -0.0403
10 1 -15 0.3672 0.1711
10 1 -12 8.3458 0.1190
10 1 -9 -11.3665 -0.0363
10 1 -6 14.4949 0.0426
10 1 -3 -9.2203 0.0918
10 1 0 -0.2874 0.1410
10 1 3 7.1372 0.1561
10 1 6 -6.6205 0.0127
10 1 9 9.3919 -0.0995
10 1 12 -4.9493 -0.0446
10 1 15 -9.9082 0.0246
10 1 18 12.2516 0.0086
10 1 21 -7.8662 0.0626
10 1 24 10.3279 -0.0548
10 1 27 -1.0558 -0.0007
10 1 30 -10.8761 0.2651
10 1 33 -2.4479 0.1207
10 1 36 0.2818 -0.3835
10 2 -37 -5.1743 -0.6999
10 2 -34 13.8375 0.5036
10 2 -31 -2.6132 0.1406
10 2 -28 1.3702 -0.0653
10 2 -25 1.5273 -0.1875
10 2 -22 3.1812 -0.0340
10 2 -19 -1.5444 0.0751
10 2 -16 -3.7680 0.1507
10 2 -13 6.0869 -0.0862
10 2 -10 -5.1405 -0.1206
10 2 -7 5.4635 0.0992
10 2 -4 4.3522 -0.0738
10 2 -1 -7.2070 0.1978
10 2 2 13.5360 0.1116
10 2 5 -3.1870 -0.1058
10 2 8 2.5312 0.1235
10 2 11 -2.3865 -0.0928
10 2 14 -2.4753 -0.0602
10 2 17 10.9102 0.1840
10 2 20 -10.0567 -0.0544
10 2 23 12.8369 0.0110
10 2 26 0.3157 0.0607
10 2 29 -2.7893 0.0310
10 2 32 -2.2541 -0.3141
10 2 35 -1.2604 0.4418
10 3 -35 10.7975 0.6908
10 3 -32 -0.4731 -0.1272
10 3 -29 3.7956 -0.3627
10 3 -26 1.7346 -0.0029
10 3 -23 5.4085 0.1765
10 3 -20 -4.9944 0.0251
10 3 -17 0.2637 -0.0387
10 3 -14 1.3239 -0.1107
10 3 -11 -3.0138 -0.1023
10 3 -8 12.8391 0.0744
10 3 -5 -8.2523 -0.0717
10 3 -2 5.0322 0.0493
10 3 1 10.3233 0.1394
10 3 4 -7.1481 -0.0297
10 3 7 1.9105 -0.0878
10 3 10 8.5623 0.0165
10 3 13 -4.5863 -0.0162
10 3 16 3.1142 0.1670
10 3 19 0.7703 0.0560
10 3 22 6.6779 -0.0774
10 3 25 8.1173 -0.3149
10 3 28 -1.1064 -0.0034
10 3 31 -3.2915 0.4467
10 3 34 -0.9123 0.2253
10 4 -33 1.8661 -0.8844
10 4 -30 4.7049 0.0733
10 4 -27 3.9517 0.3164
10 4 -24 -0.2014 0.0847
10 4 -21 0.9139 -0.1367
10 4 -18 1.0083 -0.1883
10 4 -15 -5.3824 0.0105
10 4 -12 6.9721 0.0457
10 4 -9 0.6613 0.0344
10 4 -6 1.1108 -0.0188
10 4 -3 5.0156 0.0081
10 4 0 5.1302 -0.0228
10 4 3 -13.2975 0.0048
10 4 6 15.4507 -0.0312
10 4 9 -3.4118 -0.0166
10 4 12 -2.1501 0.1399
10 4 15 10.0706 0.0712
10 4 18 -4.1546 -0.2232
10 4 21 10.7158 -0.1281
10 4 24 5.0773 0.0652
10 4 27 -4.7423 0.2293
10 4 30 7.1433 0.1320
10 4 33 -1.3217 -0.7187
10 5 -34 6.3481 -0.3967
10 5 -31 -1.0541 0.6822
10 5 -28 -0.2438 -0.0287
10 5 -25 13.3732 -0.2413
10 5 -22 -3.8033 -0.1723
10 5 -19 -5.7520 -0.0165
10 5 -16 0.6715 0.2190
10 5 -13 3.2359 0.0801
10 5 -10 -0.4349 -0.0205
10 5 -7 10.4476 -0.0790
10 5 -4 -3.7588 -0.0344
10 5 -1 -2.7573 0.0594
10 5 2 0.9861 0.1076
10 5 5 7.5838 0.0195
10 5 8 -14.8557 -0.0301
10 5 11 12.9703 -0.1144
10 5 14 4.5238 -0.0690
10 5 17 -2.7870 0.0143
10 5 20 3.3795 0.1626
10 5 23 3.8887 0.0246
10 5 26 0.1622 -0.1044
10 5 29 10.7114 -0.2616
10 5 32 -1.1374 0.0649
10 6 -32 -1.0887 0.5780
10 6 -29 7.4492 -0.7653
10 6 -26 6.2098 -0.0721
10 6 -23 -3.0525 0.1219
10 6 -20 -5.6986 0.1659
10 6 -17 3.7702 0.1401
10 6 -14 -0.9962 -0.1365
10 6 -11 4.0967 -0.1035
10 6 -8 2.3095 0.0413
10 6 -5 -4.4305 0.1226
10 6 -2 8.9465 0.1867
10 6 1 -5.0955 0.0641
10 6 4 -6.2878 -0.1619
10 6 7 3.0456 -0.1637
10 6 10 8.2137 0.0124
10 6 13 -7.7585 0.1295
10 6 16 3.9196 0.1150
10 6 19 -0.5327 -0.0376
10 6 22 0.2778 -0.2767
10 6 25 7.0267 -0.0557
10 6 28 5.1771 0.3746
10 6 31 -8.6706 0.1883
10 7 -30 6.3256 -0.7317
10 7 -27 6.1253 0.4493
10 7 -24 -10.0469 0.1758
10 7 -21 6.6327 0.0055
10 7 -18 3.6396 -0.1455
10 7 -15 -9.3741 -0.1862
10 7 -12 5.2869 0.0567
10 7 -9 -0.8177 0.2359
10 7 -6 5.1098 0.0770
10 7 -3 -0.0770 0.0293
10 7 0 -3.2664 -0.1196
10 7 3 2.6919 -0.1078
10 7 6 0.0490 0.1303
10 7 9 -6.8137 0.1245
10 7 12 8.1621 0.0028
10 7 15 -4.2549 -0.1642
10 7 18 -6.4563 -0.2557
10 7 21 3.8332 0.1767
10 7 24 2.9442 0.2767
10 7 27 -0.4046 0.1779
10 7 30 0.6740 -0.5486
10 8 -28 2.4594 0.7785
10 8 -25 -1.8861 0.1113
10 8 -22 9.0341 -0.2270
10 8 -19 -1.5595 -0.2822
10 8 -16 -10.3686 0.0378
10 8 -13 8.3619 0.2165
10 8 -10 -2.4351 0.0268
10 8 -7 1.6397 -0.0544
10 8 -4 -0.4161 -0.1813
10 8 -1 4.7915 0.1045
10 8 2 0.6068 0.1588
10 8 5 -0.9792 0.0342
10 8 8 -4.8626 -0.0579
10 8 11 7.5343 -0.1560
10 8 14 -9.6120 -0.0780
10 8 17 -1.7171 0.1462
10 8 20 -1.6584 0.0978
10 8 23 -2.9553 -0.0915
10 8 26 7.4668 -0.1472
10 8 29 5.8623 0.1716
10 9 -26 2.3022 -0.1970
10 9 -23 11.2060 -0.3595
10 9 -20 -9.3219 -0.1339
10 9 -17 -0.1132 0.3014
10 9 -14 1.4428 0.1107
10 9 -11 -1.4095 -0.1932
10 9 -8 -2.8266 -0.0561
10 9 -5 0.2515 -0.0226
10 9 -2 8.6053 0.0947
10 9 1 1.9457 0.0664
10 9 4 -4.6580 -0.0376
10 9 7 2.1103 -0.0697
10 9 10 -1.2903 0.0777
10 9 13 -1.6801 0.0644
10 9 16 -2.4106 -0.1309
10 9 19 -8.0377 -0.1313
10 9 22 5.7070 0.0302
10 9 25 2.4991 0.2864
10 9 28 -1.4012 0.3080
10 10 -24 1.7263 -0.4228
10 10 -21 -1.7403 0.3912
10 10 -18 -3.1313 0.3063
10 10 -15 5.8040 -0.0296
10 10 -12 -11.2122 -0.1839
10 10 -9 0.9325 -0.0419
10 10 -6 1.0133 0.0537
10 10 -3 6.0402 0.0095
10 10 0 -1.2634 0.0411
10 10 3 0.1048 0.0593
10 10 6 0.2812 0.0777
10 10 9 1.6187 -0.0761
10 10 12 0.1757 -0.1213
10 10 15 -7.3197 0.0233
10 10 18 4.0208 0.2282
10 10 21 -4.5210 0.1875
10 10 24 7.6467 -0.0906
10 11 -22 1.1689 0.3116
10 11 -19 -3.0331 0.4014
10 11 -16 2.1251 -0.2524
10 11 -13 -8.0425 -0.0670
10 11 -10 1.5292 0.0311
10 11 -7 -4.0332 0.1463
10 11 -4 3.1079 0.0863
10 11 -1 0.0023 0.0029
10 11 2 4.2414 -0.0514
10 11 5 -0.7882 -0.0954
10 11 8 -7.0539 0.0525
10 11 11 11.9303 0.2157
10 11 14 -10.0875 0.1158
10 11 17 7.5052 0.1629
10 11 20 -1.5864 -0.0106
10 11 23 1.8170 -0.4906
10 12 -17 4.3157 -0.4046
10 12 -14 -10.8990 0.1239
10 12 -11 2.7071 0.2791
10 12 -8 -3.9806 0.1670
10 12 -5 2.8041 -0.0652
10 12 -2 2.6174 -0.1641
10 12 1 -5.9178 -0.0550
10 12 4 5.1167 0.1700
10 12 7 -2.7707 0.0568
10 12 10 4.0004 0.2132
10 12 13 -4.8782 -0.0188
10 12 16 10.8947 0.2537
10 12 19 -4.9358 -0.1162
10 13 -15 -6.0281 0.6057
10 13 -12 5.3116 -0.1320
10 13 -9 -2.0262 0.3431
10 13 -6 -0.2371 -0.2626
10 13 -3 -1.1290 -0.1119
10 13 0 1.0792 0.0953
10 13 3 1.1684 0.0553
10 13 6 -0.7839 -0.0843
10 13 9 0.6992 0.3451
10 13 12 -3.0660 -0.1859
10 13 15 9.0712 0.6477
10 14 -7 3.5615 -0.2902
10 14 -4 -3.6712 -0.0314
10 14 -1 1.3047 -0.0171
10 14 2 2.1341 0.0153
10 14 5 -2.2911 0.0860
10 14 8 0.1070 0.1116
11 1 -35 6.3874 0.2137
11 1 -32 -1.6539 0.0475
11 1 -29 -0.1106 -0.0682
11 1 -26 3.4333 -0.0631
11 1 -23 -0.0510 0.1115
11 1 -20 5.6971 0.0008
11 1 -17 -10.4132 0.0501
11 1 -14 -0.3117 -0.0405
11 1 -11 6.9781 -0.0998
11 1 -8 -10.0482 0.1737
11 1 -5 9.4915 -0.0212
11 1 -2 -2.9058 -0.0075
11 1 1 0.6371 0.1135
11 1 4 4.7222 -0.0678
11 1 7 -5.2148 0.0190
11 1 10 6.0490 0.0629
11 1 13 0.2548 0.0097
11 1 16 -0.0241 0.0638
11 1 19 -0.4006 0.0892
11 1 22 5.4924 0.0394
11 1 25 0.4971 -0.0860
11 1 28 1.6270 -0.0328
11 1 31 -10.2182 0.2051
11 1 34 -1.7502 0.3037
11 1 37 3.4381 -0.2505
11 2 -36 3.2532 0.0404
11 2 -33 3.2154 -0.2762
11 2 -30 -0.5815 -0.0467
11 2 -27 3.7950 0.1073
11 2 -24 1.6757 0.1462
11 2 -21 2.8281 -0.0830
11 2 -18 -6.4006 -0.0861
11 2 -15 -2.2780 -0.0053
11 2 -12 5.7934 -0.0344
11 2 -9 -3.8220 0.0606
11 2 -6 3.5295 0.0078
11 2 -3 2.2491 -0.1152
11 2 0 -1.9227 0.0599
11 2 3 7.4957 -0.0213
11 2 6 -2.6620 -0.0666
11 2 9 7.2090 0.1781
11 2 12 -4.4146 0.0031
11 2 15 0.0890 -0.0256
11 2 18 5.7226 0.1327
11 2 21 4.8816 -0.1071
11 2 24 4.3875 -0.0526
11 2 27 -1.9774 0.2113
11 2 30 -1.8464 0.2832
11 2 33 -1.4348 -0.5189
11 2 36 4.3413 -0.0116
11 3 -34 3.5027 -0.2289
11 3 -31 1.2167 0.3738
11 3 -28 6.3998 0.0716
11 3 -25 -1.3073 -0.1216
11 3 -22 5.9300 -0.2116
11 3 -19 -3.6826 -0.0346
11 3 -16 -5.3293 0.1739
11 3 -13 8.5395 0.0183
11 3 -10 -8.5436 -0.0554
11 3 -7 12.5542 -0.0844
11 3 -4 -4.8454 -0.0973
11 3 -1 1.3124 0.0652
11 3 2 8.1609 0.0878
11 3 5 -2.3141 -0.0458
11 3 8 -1.3695 -0.0313
11 3 11 2.2048 0.0056
11 3 14 5.7893 -0.1183
11 3 17 -0.0980 0.0905
11 3 20 7.2902 0.1576
11 3 23 -0.7830 0.1219
11 3 26 5.3706 -0.2158
11 3 29 5.0545 -0.3663
11 3 32 -4.9316 0.1734
11 3 35 4.1014 0.7321
11 4 -32 -1.7664 0.0183
11 4 -29 9.9147 -0.3859
11 4 -26 5.4753 -0.2552
11 4 -23 -3.1936 0.0696
11 4 -20 -0.4744 0.2244
11 4 -17 0.5406 0.1127
11 4 -14 0.7949 -0.1673
11 4 -11 -1.5561 -0.1502
11 4 -8 9.9613 -0.0288
11 4 -5 -8.6607 0.1458
11 4 -2 5.1391 0.1458
11 4 1 9.2851 -0.0099
11 4 4 -14.5885 -0.1620
11 4 7 4.9280 -0.1386
11 4 10 6.9471 -0.0421
11 4 13 0.0108 0.1423
11 4 16 0.8062 0.2325
11 4 19 -0.4697 -0.0510
11 4 22 7.6711 -0.3172
11 4 25 9.8814 -0.1707
11 4 28 -2.9170 0.2213
11 4 31 0.5355 0.6381
11 4 34 -0.7483 -0.5638
11 5 -33 5.9575 -0.6988
11 5 -30 7.5358 -0.2994
11 5 -27 -5.2954 0.1525
11 5 -24 7.7922 0.3271
11 5 -21 2.4844 0.0016
11 5 -18 -2.5328 -0.2037
11 5 -15 -3.4928 -0.2075
11 5 -12 5.5852 0.0811
11 5 -9 -1.4138 0.2092
11 5 -6 1.6596 0.1244
11 5 -3 5.1319 -0.0248
11 5 0 -5.2408 -0.1481
11 5 3 -8.4183 -0.1557
11 5 6 14.4053 0.0861
11 5 9 -7.5388 0.1524
11 5 12 -0.3775 0.0527
11 5 15 4.0283 -0.1125
11 5 18 0.4062 -0.1939
11 5 21 6.8449 -0.0461
11 5 24 0.8210 0.3552
11 5 27 1.3812 0.1788
11 5 30 3.7210 -0.2039
11 5 33 1.8632 -0.5094
11 6 -31 -0.9271 0.3801
11 6 -28 3.0272 0.2743
11 6 -25 2.8614 -0.0133
11 6 -22 12.7396 -0.2977
11 6 -19 -14.1805 -0.1257
11 6 -16 1.6290 0.1191
11 6 -13 4.0630 0.1920
11 6 -10 0.0824 0.0280
11 6 -7 2.4406 -0.1299
11 6 -4 -6.0667 -0.0864
11 6 -1 4.6883 -0.0170
11 6 2 -2.2546 0.1358
11 6 5 -0.6408 0.1217
11 6 8 -6.2541 -0.0408
11 6 11 10.0059 -0.2242
11 6 14 -5.1697 -0.0380
11 6 17 0.0462 0.1073
11 6 20 2.7981 0.2508
11 6 23 -3.1803 0.0022
11 6 26 8.3253 -0.2363
11 6 29 5.3245 0.1151
11 7 -29 6.5799 0.2598
11 7 -26 6.1650 -0.2671
11 7 -23 1.9853 -0.2292
11 7 -20 -8.8910 0.1373
11 7 -17 8.8707 0.1792
11 7 -14 -1.2512 -0.0205
11 7 -11 -2.8324 -0.1900
11 7 -8 -2.3557 -0.1194
11 7 -5 4.8253 0.0600
11 7 -2 3.0331 0.1085
11 7 1 -6.8409 0.0772
11 7 4 3.6196 -0.1045
11 7 7 -2.2571 -0.0990
11 7 10 2.8680 -0.0234
11 7 13 -4.2903 0.1474
11 7 16 4.7312 0.0390
11 7 19 -8.8483 -0.1714
11 7 22 -1.2429 0.1002
11 7 25 15.7325 0.1274
11 7 28 -4.1785 0.3834
11 8 -27 5.5242 -0.6178
11 8 -24 0.4701 0.1160
11 8 -21 -1.7165 0.3664
11 8 -18 6.3389 -0.0515
11 8 -15 -6.1018 -0.1279
11 8 -12 -1.3342 -0.1566
11 8 -9 -0.5366 -0.0044
11 8 -6 6.7272 0.1069
11 8 -3 -4.4299 -0.0987
11 8 0 3.5896 0.0460
11 8 3 1.3974 -0.0021
11 8 6 -0.9009 -0.0391
11 8 9 -0.5585 0.0406
11 8 12 2.1309 -0.1148
11 8 15 1.8780 -0.0837
11 8 18 -12.3943 0.0551
11 8 21 5.3291 0.3839
11 8 24 4.0443 -0.0963
11 8 27 -1.7815 -0.0454
11 9 -25 -1.5385 0.6378
11 9 -22 7.6532 0.3716
11 9 -19 -5.8979 -0.3702
11 9 -16 3.6997 -0.0942
11 9 -13 -11.0410 -0.0224
11 9 -10 10.6788 0.0997
11 9 -7 -4.4944 0.0564
11 9 -4 -2.4656 -0.0491
11 9 -1 5.8273 0.0329
11 9 2 4.5078 0.0138
11 9 5 -3.9722 -0.1298
11 9 8 4.0024 -0.0545
11 9 11 -2.7111 -0.0305
11 9 14 5.5345 0.2073
11 9 17 -7.0912 0.0340
11 9 20 -2.2612 0.0584
11 9 23 9.5742 -0.3447
11 10 -23 2.5572 -0.3173
11 10 -20 -1.8971 -0.2251
11 10 -17 -1.4123 -0.0391
11 10 -14 -3.5042 0.2492
11 10 -11 2.3827 0.1951
11 10 -8 -6.8098 0.0256
11 10 -5 -0.2888 -0.0117
11 10 -2 7.2043 -0.0677
11 10 1 2.7852 -0.1068
11 10 4 -5.6870 0.0175
11 10 7 1.2135 0.2074
11 10 10 2.7225 0.0080
11 10 13 7.3133 -0.0370
11 10 16 -7.3712 -0.0521
11 10 19 3.0491 0.1963
11 10 22 3.2321 -0.0301
11 11 -18 -0.5362 0.0931
11 11 -15 -5.2087 0.4965
11 11 -12 -2.4636 0.1647
11 11 -9 -0.8475 -0.0882
11 11 -6 -2.0484 -0.0496
11 11 -3 3.1824 0.0085
11 11 0 -4.9823 0.0562
11 11 3 2.7193 0.1333
11 11 6 2.1578 0.0227
11 11 9 -6.9683 -0.0495
11 11 12 17.9053 0.0915
11 11 15 -11.8752 0.2407
11 11 18 7.3272 0.1387
11 12 -13 -0.3245 -0.1145
11 12 -10 1.3467 0.0183
11 12 -7 -8.6674 -0.0422
11 12 -4 -0.0082 0.1717
11 12 -1 3.1192 0.0114
11 12 2 -3.7606 -0.0749
11 12 5 0.3803 0.1755
11 12 8 -0.8853 0.0638
11 12 11 7.8791 0.1644
11 12 14 -6.1188 0.1931
11 13 -8 -6.0156 0.3019
11 13 -5 -0.2579 0.0306
11 13 -2 -0.1907 -0.0715
11 13 1 -1.7603 0.0672
11 13 4 -0.0107 0.2136
11 13 7 -1.4503 -0.2617
12 1 -34 0.5972 -0.1339
12 1 -31 -1.7593 -0.0005
12 1 -28 0.9138 0.0435
12 1 -25 4.5195 0.0260
12 1 -22 -3.5884 0.0227
12 1 -19 1.8127 0.0515
12 1 -16 -4.0547 0.0811
12 1 -13 -3.1603 -0.0742
12 1 -10 6.6290 -0.0204
12 1 -7 -10.1829 0.0100
12 1 -4 2.0150 -0.0751
12 1 -1 5.2982 -0.0116
12 1 2 -1.7674 0.0600
12 1 5 4.0293 -0.0539
12 1 8 -4.9209 0.0312
12 1 11 -0.2200 0.0580
12 1 14 9.2126 0.0029
12 1 17 -5.4842 0.1332
12 1 20 5.8369 0.1319
12 1 23 3.6474 0.1253
12 1 26 -5.5067 -0.0685
12 1 29 2.1221 -0.2212
12 1 32 -7.0148 -0.0536
12 1 35 2.2011 0.6168
12 2 -32 2.9271 -0.0768
12 2 -29 -1.0920 -0.0391
12 2 -26 2.6919 -0.1894
12 2 -23 1.7805 0.0719
12 2 -20 2.4768 0.1602
12 2 -17 -6.5788 0.0820
12 2 -14 1.0263 -0.1618
12 2 -11 -0.1879 -0.0469
12 2 -8 -2.0607 -0.0154
12 2 -5 1.4877 0.0622
12 2 -2 7.1910 0.0626
12 2 1 -5.0486 -0.0048
12 2 4 4.7117 -0.1887
12 2 7 -6.2629 -0.0921
12 2 10 6.6709 0.1254
12 2 13 6.6784 0.0937
12 2 16 -11.3985 0.1710
12 2 19 8.7791 0.1069
12 2 22 3.9414 -0.2339
12 2 25 1.0444 -0.2016
12 2 28 1.8869 0.0876
12 2 31 -5.7342 0.6288
12 2 34 2.7617 -0.1783
12 3 -33 0.1127 -0.7770
12 3 -30 2.5394 -0.1631
12 3 -27 7.6420 0.0457
12 3 -24 -4.3159 0.3038
12 3 -21 6.1944 0.0061
12 3 -18 -1.3316 -0.1303
12 3 -15 -4.6528 -0.1803
12 3 -12 4.7335 0.0603
12 3 -9 -3.2366 0.1480
12 3 -6 3.6880 0.0960
12 3 -3 3.7227 -0.0398
12 3 0 -4.8342 -0.1316
12 3 3 4.0073 -0.1823
12 3 6 -1.7150 0.0166
12 3 9 5.8559 0.1741
12 3 12 -2.8817 0.1239
12 3 15 -6.4383 -0.0959
12 3 18 7.7645 -0.2210
12 3 21 11.5280 -0.0925
12 3 24 -5.7920 0.3920
12 3 27 0.9049 0.2759
12 3 30 2.6286 -0.4532
12 3 33 0.2965 -0.4083
12 4 -31 -2.5915 0.4154
12 4 -28 6.4662 0.2947
12 4 -25 7.3313 -0.0766
12 4 -22 0.4836 -0.3244
12 4 -19 -1.6072 -0.0294
12 4 -16 -2.0247 0.0589
12 4 -13 7.1038 0.2157
12 4 -10 -8.2779 0.0585
12 4 -7 9.2021 -0.1750
12 4 -4 -3.3089 -0.0499
12 4 -1 -5.2700 0.0047
12 4 2 10.5188 -0.0253
12 4 5 -6.9787 0.1200
12 4 8 -0.9029 -0.0268
12 4 11 -0.6391 -0.1676
12 4 14 -0.0444 -0.0822
12 4 17 9.3252 0.0885
12 4 20 -2.1519 0.2391
12 4 23 -8.2051 0.0863
12 4 26 17.1952 -0.3213
12 4 29 -1.7103 -0.3427
12 4 32 -0.5246 0.6772
12 5 -29 11.4091 -0.0195
12 5 -26 -3.0864 -0.6829
12 5 -23 9.9067 0.0476
12 5 -20 -7.0757 0.3145
12 5 -17 6.2413 0.1183
12 5 -14 -0.2732 -0.0886
12 5 -11 -1.8760 -0.1596
12 5 -8 0.0930 -0.1150
12 5 -5 -2.4281 0.1033
12 5 -2 5.2683 0.1272
12 5 1 -2.5711 -0.0337
12 5 4 -11.1796 -0.1319
12 5 7 8.9357 -0.0461
12 5 10 -0.3629 -0.0672
12 5 13 -3.6465 0.2228
12 5 16 5.0233 0.0385
12 5 19 -6.9730 -0.0302
12 5 22 2.4097 -0.2169
12 5 25 10.6926 0.2223
12 5 28 0.7647 0.1626
12 5 31 -3.0832 0.2416
12 6 -27 1.5593 -0.6584
12 6 -24 0.2563 0.6063
12 6 -21 7.9239 0.1423
12 6 -18 -0.1324 -0.1115
12 6 -15 -2.1497 -0.2064
12 6 -12 -3.8363 -0.0539
12 6 -9 2.1511 0.0050
12 6 -6 6.8081 0.0913
12 6 -3 -9.5336 -0.0266
12 6 0 -2.7320 -0.1271
12 6 3 2.9641 -0.0682
12 6 6 1.4741 0.1038
12 6 9 -3.7857 0.0636
12 6 12 -0.0289 -0.0113
12 6 15 6.5751 -0.1323
12 6 18 -12.7797 0.0640
12 6 21 4.3469 0.2155
12 6 24 8.5001 0.2300
12 6 27 -1.0327 -0.2922
12 7 -25 0.6194 0.9624
12 7 -22 4.5172 -0.1824
12 7 -19 -3.8906 -0.2494
12 7 -16 3.8585 -0.0615
12 7 -13 -3.9656 -0.0023
12 7 -10 4.9738 0.0601
12 7 -7 -0.4332 -0.0667
12 7 -4 -10.5144 -0.0737
12 7 -1 10.6363 -0.0309
12 7 2 -2.5932 -0.0016
12 7 5 -1.4168 0.0204
12 7 8 0.7751 -0.0489
12 7 11 1.4836 -0.0917
12 7 14 3.9761 0.1148
12 7 17 -10.6178 0.1479
12 7 20 3.7904 -0.0384
12 7 23 -0.9989 -0.0619
12 7 26 8.9607 0.1211
12 8 -23 3.0525 -0.6440
12 8 -20 -2.5865 -0.1377
12 8 -17 6.4715 -0.0011
12 8 -14 -8.7356 0.1791
12 8 -11 10.1049 0.1164
12 8 -8 -10.3124 -0.1337
12 8 -5 3.4467 -0.0559
12 8 -2 3.8578 -0.1067
12 8 1 1.6989 0.0187
12 8 4 -2.9237 -0.0181
12 8 7 4.3814 0.0055
12 8 10 -4.4902 -0.0001
12 8 13 11.5934 -0.0285
12 8 16 -8.7484 -0.0831
12 8 19 -0.9932 -0.0794
12 8 22 1.7737 0.3727
12 8 25 3.3850 0.3189
12 9 -21 6.0227 0.3591
12 9 -18 -6.9079 0.0961
12 9 -15 3.7797 0.2844
12 9 -12 -4.2687 -0.0034
12 9 -9 2.3553 -0.1096
12 9 -6 -2.2712 -0.0792
12 9 -3 4.8988 0.0544
12 9 0 -0.3319 -0.0134
12 9 3 -1.1134 0.1255
12 9 6 1.9522 -0.0889
12 9 9 1.3456 -0.2010
12 9 12 8.5765 -0.1081
12 9 15 -6.3210 0.1727
12 9 18 1.7362 0.1564
12 9 21 -2.7969 0.2418
12 10 -19 -2.8110 0.1459
12 10 -16 -1.1329 0.2651
12 10 -13 -4.2422 -0.1721
12 10 -10 6.1538 0.1154
12 10 -7 -7.9806 0.0103
12 10 -4 2.3624 0.2129
12 10 -1 -3.0042 -0.0063
12 10 2 6.3015 -0.0944
12 10 5 -1.8214 -0.1270
12 10 8 -3.4048 -0.0368
12 10 11 11.7847 0.1689
12 10 14 -6.6244 0.1285
12 10 17 6.6395 -0.0904
12 11 -14 0.0590 -0.0091
12 11 -11 -1.6463 0.2567
12 11 -8 -9.1164 0.0563
12 11 -5 3.4371 0.2148
12 11 -2 -0.6290 -0.0840
12 11 1 -1.9185 -0.1345
12 11 4 -1.8717 0.1484
12 11 7 3.0617 -0.0323
12 11 10 -2.9297 0.1757
12 11 13 8.1479 -0.0680
12 12 -9 -2.3658 0.3152
12 12 -6 -1.5298 -0.0810
12 12 -3 -5.3452 0.0434
12 12 0 1.8008 -0.0330
12 12 3 -2.7327 0.0146
12 12 6 -1.0989 -0.0654
12 12 9 2.0482 0.3966
13 1 -33 -3.5176 -0.2599
13 1 -30 -3.7077 0.1299
13 1 -27 2.0348 0.0190
13 1 -24 4.0673 0.0317
13 1 -21 -1.0137 0.0473
13 1 -18 -3.3093 0.0077
13 1 -15 0.8804 -0.0015
13 1 -12 -7.2630 0.1314
13 1 -9 5.8866 -0.0031
13 1 -6 -4.8064 -0.0506
13 1 -3 1.4893 0.0814
13 1 0 -1.4985 -0.0959
13 1 3 1.4822 -0.1021
13 1 6 0.6941 0.1029
13 1 9 0.4085 0.0938
13 1 12 -1.8317 0.1088
13 1 15 -1.4104 0.0305
13 1 18 5.4774 -0.0913
13 1 21 -1.5083 -0.0248
13 1 24 5.7167 0.2681
13 1 27 -9.2805 0.1623
13 1 30 0.6292 -0.1674
13 1 33 -2.2883 -0.5171
13 2 -31 6.4038 0.1976
13 2 -28 0.3643 0.1816
13 2 -25 -1.0020 -0.0054
13 2 -22 4.1643 -0.1684
13 2 -19 0.5438 0.0542
13 2 -16 -3.7078 0.0759
13 2 -13 0.3694 0.1160
13 2 -10 0.1225 0.0037
13 2 -7 -3.1103 -0.0610
13 2 -4 1.0110 0.0593
13 2 -1 5.4940 -0.0367
13 2 2 -1.8332 -0.0021
13 2 5 1.1612 0.0570
13 2 8 -1.2974 -0.0321
13 2 11 -5.9872 -0.0389
13 2 14 4.3676 -0.0539
13 2 17 2.7056 0.0930
13 2 20 1.4897 0.2334
13 2 23 -3.0302 0.0479
13 2 26 -5.1599 -0.2259
13 2 29 10.5685 -0.4630
13 2 32 -5.1632 0.5479
13 3 -32 3.4435 0.8049
13 3 -29 -2.2605 -0.3365
13 3 -26 9.7792 -0.2486
13 3 -23 -2.8373 -0.1458
13 3 -20 4.5748 0.2943
13 3 -17 0.0811 0.1302
13 3 -14 -1.8031 0.0192
13 3 -11 -2.3314 -0.1666
13 3 -8 2.7337 -0.0561
13 3 -5 -0.3981 0.1597
13 3 -2 3.9643 0.0872
13 3 1 -2.7192 -0.0535
13 3 4 0.0350 -0.1139
13 3 7 -2.8648 -0.1752
13 3 10 -0.8804 0.0691
13 3 13 5.8520 0.1935
13 3 16 -3.0252 0.1224
13 3 19 -9.4193 -0.1750
13 3 22 5.1351 -0.3043
13 3 25 7.6015 0.0925
13 3 28 2.2749 0.4416
13 3 31 -8.3668 0.0242
13 4 -30 -2.8059 -0.9575
13 4 -27 5.5333 -0.0789
13 4 -24 8.2049 0.2863
13 4 -21 -2.8155 0.3544
13 4 -18 5.3573 -0.1104
13 4 -15 -5.4432 -0.2569
13 4 -12 5.5505 -0.0437
13 4 -9 -4.5532 0.1328
13 4 -6 1.8378 0.0975
13 4 -3 2.6778 -0.0010
13 4 0 -10.9271 -0.1773
13 4 3 7.6391 -0.1463
13 4 6 -1.3348 0.1032
13 4 9 -4.1554 0.1013
13 4 12 4.0607 0.0692
13 4 15 -8.1721 -0.1542
13 4 18 -1.4825 -0.1705
13 4 21 7.4882 0.2031
13 4 24 -4.7078 0.2790
13 4 27 10.7422 -0.0959
13 4 30 -10.9325 -0.4830
13 5 -28 9.7042 0.5884
13 5 -25 -2.0489 0.2412
13 5 -22 9.3071 -0.0272
13 5 -19 -3.4570 -0.2395
13 5 -16 0.2647 -0.0722
13 5 -13 3.3887 0.1032
13 5 -10 0.6164 0.0638
13 5 -7 -3.4809 -0.0301
13 5 -4 -6.4690 -0.1610
13 5 -1 1.6436 -0.0471
13 5 2 6.9723 0.0046
13 5 5 -12.8037 0.0375
13 5 8 2.4261 0.0204
13 5 11 4.7195 -0.0100
13 5 14 -3.6445 0.0587
13 5 17 -4.5447 0.0538
13 5 20 -0.6285 0.0807
13 5 23 3.0999 -0.2701
13 5 26 3.2548 0.1687
13 5 29 -3.0073 0.1141
13 6 -26 -1.1063 -0.0210
13 6 -23 0.2458 -0.2566
13 6 -20 4.9146 -0.2305
13 6 -17 1.1788 0.2606
13 6 -14 2.9520 0.0609
13 6 -11 -1.2156 -0.0048
13 6 -8 -8.0519 -0.1828
13 6 -5 3.3401 -0.0785
13 6 -2 2.7867 -0.0225
13 6 1 -5.6119 -0.0262
13 6 4 -5.0874 0.0340
13 6 7 6.3267 0.0897
13 6 10 2.7117 0.0914
13 6 13 -3.2890 -0.0331
13 6 16 -3.6987 -0.1964
13 6 19 -0.4724 0.0670
13 6 22 -0.9281 0.0596
13 6 25 5.2042 0.6593
13 7 -24 -0.2033 -0.4153
13 7 -21 3.7290 0.1375
13 7 -18 -1.9358 0.3845
13 7 -15 4.9428 0.0388
13 7 -12 -0.3475 -0.1514
13 7 -9 -6.5771 -0.1925
13 7 -6 10.4612 -0.0214
13 7 -3 -10.0322 0.0153
13 7 0 4.7873 0.0752
13 7 3 -3.2071 0.0216
13 7 6 2.9645 0.0079
13 7 9 0.8537 -0.0854
13 7 12 4.8484 -0.1978
13 7 15 -6.3652 0.0363
13 7 18 2.1870 0.3456
13 7 21 -4.3588 0.0548
13 7 24 0.2907 0.1111
13 8 -22 1.6376 0.5625
13 8 -19 -5.1923 0.3071
13 8 -16 11.9192 -0.3730
13 8 -13 -6.8969 -0.0729
13 8 -10 4.8639 0.0412
13 8 -7 -3.9965 0.1526
13 8 -4 3.4474 0.0795
13 8 -1 -0.4226 -0.1442
13 8 2 0.0858 0.0234
13 8 5 0.5775 -0.1742
13 8 8 6.4790 -0.0879
13 8 11 -3.1747 0.0481
13 8 14 0.7163 0.0526
13 8 17 4.4678 0.1747
13 8 20 -7.3529 -0.3294
13 9 -17 -2.0158 -0.3577
13 9 -14 1.4762 0.1400
13 9 -11 -1.5905 0.3262
13 9 -8 0.8593 0.1655
13 9 -5 1.2047 -0.1323
13 9 -2 -1.7660 -0.0997
13 9 1 4.1618 -0.0754
13 9 4 -1.2210 0.0170
13 9 7 0.4572 -0.0896
13 9 10 0.7541 0.0633
13 9 13 2.6130 -0.2433
13 9 16 7.7386 0.2061
13 9 19 -9.7339 -0.0159
13 10 -15 1.5861 0.6473
13 10 -12 -8.1844 0.0221
13 10 -9 6.2671 0.2779
13 10 -6 -0.6448 -0.2002
13 10 -3 -5.2049 0.0411
13 10 0 1.3232 -0.0234
13 10 3 0.5408 -0.0306
13 10 6 1.7862 -0.1370
13 10 9 -6.0881 0.1104
13 10 12 12.0255 -0.2016
13 10 15 -0.6016 0.5354
13 11 -7 -7.7497 -0.3681
13 11 -4 -4.8002 0.2505
13 11 -1 5.2727 -0.0409
13 11 2 -4.2524 -0.1182
13 11 5 -0.6514 0.0884
13 11 8 1.4640 0.1730
14 1 -32 6.8795 -0.0317
14 1 -29 -10.1274 -0.0522
14 1 -26 5.0011 0.0462
14 1 -23 -0.5866 0.1166
14 1 -20 5.4092 0.0587
14 1 -17 -4.5181 -0.0936
14 1 -14 -1.6767 0.1150
14 1 -11 -4.3845 0.0419
14 1 -8 1.4369 0.0152
14 1 -5 2.3770 0.1688
14 1 -2 1.0444 0.0230
14 1 1 -2.4427 -0.0234
14 1 4 0.3839 0.0357
14 1 7 1.4227 -0.0248
14 1 10 -2.9157 0.0022
14 1 13 -2.0773 0.2041
14 1 16 6.3362 0.0533
14 1 19 -2.8333 -0.0767
14 1 22 -10.6190 -0.1341
14 1 25 10.5996 -0.0100
14 1 28 -2.1911 0.2353
14 1 31 -4.7873 0.2218
14 2 -30 -5.7110 -0.8316
14 2 -27 12.0908 0.2886
14 2 -24 -9.0960 0.0508
14 2 -21 13.3392 0.1781
14 2 -18 -6.2705 -0.0370
14 2 -15 -4.9994 -0.0219
14 2 -12 3.1846 -0.0408
14 2 -9 2.7978 0.0660
14 2 -6 -2.3376 0.2327
14 2 -3 -2.6576 -0.0152
14 2 0 6.2604 -0.1225
14 2 3 -0.3865 0.0166
14 2 6 -0.9337 -0.0143
14 2 9 -1.2974 0.1427
14 2 12 -0.7323 0.0773
14 2 15 -1.6882 -0.1771
14 2 18 -8.7035 -0.1116
14 2 21 3.4961 0.1294
14 2 24 13.8610 0.1459
14 2 27 -18.5648 0.1522
14 2 30 2.5001 -0.5921
14 3 -28 3.5571 0.6456
14 3 -25 1.6092 0.1940
14 3 -22 4.9244 0.0525
14 3 -19 -0.4222 -0.3212
14 3 -16 -1.7663 -0.0942
14 3 -13 6.5907 0.2684
14 3 -10 -6.9267 0.0549
14 3 -7 -0.0085 0.0702
14 3 -4 1.3728 -0.1586
14 3 -1 2.2472 -0.0886
14 3 2 1.7350 0.0860
14 3 5 -2.2123 0.0283
14 3 8 -4.0416 -0.0654
14 3 11 1.3982 -0.0048
14 3 14 -3.5220 -0.0045
14 3 17 -1.1990 0.1574
14 3 20 -2.7170 -0.0227
14 3 23 0.5564 -0.3180
14 3 26 -2.8741 -0.0715
14 3 29 4.5826 0.3163
14 4 -26 -0.9896 -0.2569
14 4 -23 14.9564 -0.3589
14 4 -20 -9.4560 -0.0455
14 4 -17 5.9601 0.2130
14 4 -14 2.5278 0.2445
14 4 -11 -2.5093 -0.1404
14 4 -8 -3.5006 -0.0766
14 4 -5 0.5066 -0.1987
14 4 -2 3.2299 0.0936
14 4 1 -4.0243 0.0140
14 4 4 -3.5051 -0.0828
14 4 7 3.1375 0.0663
14 4 10 -2.4067 0.1428
14 4 13 4.9383 0.0212
14 4 16 -11.5840 -0.1135
14 4 19 -5.1828 -0.3582
14 4 22 9.0034 0.2022
14 4 25 -8.6017 0.3501
14 4 28 11.3676 0.1077
14 5 -24 2.3843 -0.3235
14 5 -21 1.6349 0.3742
14 5 -18 2.9706 0.3166
14 5 -15 2.6486 -0.0202
14 5 -12 -2.4168 -0.2930
14 5 -9 -0.1316 -0.1253
14 5 -6 -0.2910 0.0465
14 5 -3 -4.9549 0.0145
14 5 0 -1.3054 0.0475
14 5 3 1.3139 0.0424
14 5 6 -0.9275 0.0553
14 5 9 -0.8400 -0.0187
14 5 12 4.2514 -0.1020
14 5 15 -9.0457 -0.0029
14 5 18 0.9213 0.1491
14 5 21 -2.7165 0.2771
14 5 24 -1.6934 -0.3158
14 6 -22 -3.3329 0.7309
14 6 -19 7.3417 -0.1307
14 6 -16 0.6446 -0.1507
14 6 -13 1.6794 -0.1827
14 6 -10 1.3680 0.0068
14 6 -7 -3.4349 0.1636
14 6 -4 -6.9604 0.0377
14 6 -1 9.6106 -0.0073
14 6 2 -7.4706 -0.0900
14 6 5 -1.1496 -0.0199
14 6 8 1.7362 0.0671
14 6 11 8.5719 0.1500
14 6 14 -9.0783 0.1206
14 6 17 2.1108 -0.0904
14 6 20 -8.1954 -0.1514
14 6 23 1.9516 -0.2383
14 7 -20 5.8356 -0.5512
14 7 -17 0.2879 -0.1898
14 7 -14 4.0954 0.3431
14 7 -11 2.4241 0.0589
14 7 -8 -8.3338 0.1347
14 7 -5 9.6537 -0.1224
14 7 -2 -5.5017 -0.2011
14 7 1 -0.4970 0.0985
14 7 4 1.8249 0.0714
14 7 7 1.4516 0.1438
14 7 10 0.3398 0.0323
14 7 13 3.1866 -0.2579
14 7 16 -3.0746 -0.0889
14 7 19 -2.9743 0.1179
14 8 -18 -8.0850 0.3856
14 8 -15 11.5325 0.2508
14 8 -12 -1.7399 0.0910
14 8 -9 2.3801 -0.0715
14 8 -6 -1.1469 -0.0946
14 8 -3 0.0433 0.0040
14 8 0 3.1811 0.0530
14 8 3 0.5863 0.0561
14 8 6 -4.7760 -0.1121
14 8 9 7.3554 -0.0871
14 8 12 0.2357 -0.1582
14 8 15 -0.5243 0.1404
14 8 18 -1.8372 0.2161
14 9 -13 0.1124 -0.3314
14 9 -10 1.8671 0.2121
14 9 -7 -0.7280 0.0444
14 9 -4 -2.2321 -0.0714
14 9 -1 5.7413 -0.0457
14 9 2 -1.9165 -0.0886
14 9 5 -0.7426 0.0671
14 9 8 0.8787 -0.1811
14 9 11 3.6133 -0.0515
14 9 14 -3.6685 0.0903
14 10 -8 -1.0895 0.1226
14 10 -5 1.1496 0.0164
14 10 -2 3.1101 -0.0315
14 10 1 -5.6983 -0.0198
14 10 4 1.4667 0.0051
14 10 7 2.1627 -0.3112
15 1 -28 1.0661 0.4685
15 1 -25 -3.6865 -0.2564
15 1 -22 7.4708 0.1344
15 1 -19 -3.6433 0.0116
15 1 -16 -2.2077 -0.0982
15 1 -13 2.7143 0.1054
15 1 -10 -6.2714 0.0494
15 1 -7 4.0068 0.1601
15 1 -4 -2.7734 -0.0202
15 1 -1 10.3963 0.0249
15 1 2 -4.2342 0.1187
15 1 5 0.4478 0.0413
15 1 8 1.7692 0.0855
15 1 11 -1.2151 -0.0945
15 1 14 -5.1374 0.0686
15 1 17 -1.0265 0.0085
15 1 20 8.3090 0.0410
15 1 23 -6.1811 -0.0464
15 1 26 -7.0913 -0.1488
15 1 29 3.1024 0.1816
15 2 -29 -6.3193 0.4508
15 2 -26 8.3979 -0.2669
15 2 -23 -3.1920 -0.0455
15 2 -20 7.3579 -0.1402
15 2 -17 -2.7742 0.1299
15 2 -14 -3.1878 0.2881
15 2 -11 -4.9212 -0.1558
15 2 -8 8.8727 -0.0167
15 2 -5 -0.9559 -0.0163
15 2 -2 -0.6403 0.0350
15 2 1 5.7371 0.0770
15 2 4 -1.1835 -0.0104
15 2 7 -0.9377 -0.0151
15 2 10 -1.8946 0.0423
15 2 13 0.6242 0.1058
15 2 16 -0.0468 -0.1419
15 2 19 -6.5988 -0.1442
15 2 22 -9.3072 0.0646
15 2 25 17.5180 0.0089
15 2 28 -9.1257 0.4473
15 3 -27 5.6907 -0.8852
15 3 -24 1.6863 0.1712
15 3 -21 -0.7813 0.4190
15 3 -18 3.6787 0.0481
15 3 -15 -2.1692 -0.0106
15 3 -12 0.6841 -0.2580
15 3 -9 2.6564 -0.0260
15 3 -6 -4.3584 0.0695
15 3 -3 0.9271 0.0682
15 3 0 6.7802 -0.0355
15 3 3 -4.9658 -0.0592
15 3 6 3.1616 0.0596
15 3 9 -5.5274 0.0028
15 3 12 9.4342 -0.1227
15 3 15 -13.0924 -0.0498
15 3 18 -4.0522 0.1323
15 3 21 2.0993 0.2290
15 3 24 3.5127 -0.4568
15 3 27 -5.7556 -0.0736
15 4 -25 -7.1998 0.8018
15 4 -22 12.4265 0.1833
15 4 -19 -1.8613 -0.2023
15 4 -16 1.3211 -0.1529
15 4 -13 -0.1969 -0.1912
15 4 -10 2.9183 0.1748
15 4 -7 -5.5919 0.1578
15 4 -4 0.2299 -0.0962
15 4 -1 5.5261 -0.0017
15 4 2 -8.0648 -0.1209
15 4 5 2.6998 -0.0158
15 4 8 0.2813 0.0458
15 4 11 1.2048 0.1304
15 4 14 -1.6514 0.2316
15 4 17 -4.1232 -0.0355
15 4 20 -8.5183 -0.5710
15 4 23 5.9286 -0.1851
15 5 -23 5.5470 -0.3313
15 5 -20 2.6116 -0.3197
15 5 -17 -2.3255 0.0885
15 5 -14 3.9870 0.1172
15 5 -11 4.5892 0.1007
15 5 -8 -5.3863 0.0472
15 5 -5 -2.4584 -0.1077
15 5 -2 3.0309 -0.1373
15 5 1 -8.4724 -0.0174
15 5 4 5.7374 0.2488
15 5 7 -1.4422 0.2839
15 5 10 3.4848 0.0209
15 5 13 -1.4147 -0.0621
15 5 16 -5.0915 -0.3796
15 5 19 -5.0283 -0.1377
15 5 22 4.0736 0.6055
15 6 -21 -2.7971 -0.1201
15 6 -18 3.4160 0.2458
15 6 -15 4.1277 0.3102
15 6 -12 3.8383 -0.1007
15 6 -9 -3.6595 -0.1061
15 6 -6 1.7525 -0.0967
15 6 -3 -7.7934 -0.0008
15 6 0 6.6364 0.2922
15 6 3 -0.3874 0.2059
15 6 6 -3.6259 0.0336
15 6 9 -0.3686 -0.2056
15 6 12 8.2506 0.0694
15 6 15 -7.1645 0.0090
15 6 18 1.4740 0.1601
15 6 21 -6.3874 0.1775
15 7 -16 5.4000 -0.1788
15 7 -13 5.3970 0.1411
15 7 -10 -0.8145 -0.2474
15 7 -7 -4.9232 0.1586
15 7 -4 5.9577 0.0460
15 7 -1 0.5503 0.0907
15 7 2 -1.2359 0.0042
15 7 5 -3.2458 0.0251
15 7 8 4.6449 -0.0106
15 7 11 0.4886 0.2108
15 7 14 1.9479 -0.1989
15 7 17 -4.4995 -0.0216
15 8 -14 7.4838 -0.3127
15 8 -11 -1.8027 0.2265
15 8 -8 2.3998 0.0368
15 8 -5 -0.2402 -0.0981
15 8 -2 4.0687 0.0338
15 8 1 -1.6407 0.0272
15 8 4 1.6741 0.0732
15 8 7 -2.4580 -0.2450
15 8 10 2.8860 0.1096
15 8 13 0.6028 -0.1545
15 9 -6 1.3656 0.0813
15 9 -3 -0.5132 -0.0967
15 9 0 1.8050 -0.1152
15 9 3 0.2249 -0.2434
15 9 6 0.1022 0.0426
16 1 -27 6.0360 -0.1747
16 1 -24 -1.0455 0.2241
16 1 -21 3.6902 0.1054
16 1 -18 -6.6138 -0.0472
16 1 -15 -1.0694 -0.1188
16 1 -12 1.6951 -0.0421
16 1 -9 -3.3313 0.0510
16 1 -6 4.6111 0.1139
16 1 -3 1.5387 -0.0457
16 1 0 7.6741 0.1408
16 1 3 -0.5504 0.0013
16 1 6 -5.2251 -0.0152
16 1 9 7.0897 0.0039
16 1 12 4.5101 0.0299
16 1 15 -7.2603 0.0840
16 1 18 -6.0818 0.0107
16 1 21 2.2745 0.0000
16 1 24 13.2409 -0.0275
16 1 27 -12.7169 -0.1521
16 2 -25 3.4287 0.9071
16 2 -22 -4.0416 -0.0414
16 2 -19 3.4171 -0.4268
16 2 -16 2.7462 0.0099
16 2 -13 -5.5634 0.0126
16 2 -10 -3.4778 0.0673
16 2 -7 6.2568 0.0726
16 2 -4 5.5831 -0.0258
16 2 -1 -0.6310 -0.0467
16 2 2 1.1095 -0.1170
16 2 5 0.5973 -0.0111
16 2 8 4.4771 0.0069
16 2 11 2.1192 0.1129
16 2 14 -12.0971 0.1523
16 2 17 3.5942 -0.1527
16 2 20 4.5004 -0.2322
16 2 23 -9.4720 -0.0552
16 2 26 4.7620 0.0558
16 3 -23 5.9704 -0.8677
16 3 -20 -4.1037 0.0053
16 3 -17 6.1969 0.0800
16 3 -14 -6.8454 0.0031
16 3 -11 3.0198 0.1896
16 3 -8 4.7802 -0.0401
16 3 -5 0.0806 -0.1591
16 3 -2 -4.5204 -0.0766
16 3 1 6.2239 -0.0743
16 3 4 -1.3416 0.0700
16 3 7 5.5205 0.0981
16 3 10 -7.6615 0.1991
16 3 13 6.0396 -0.2131
16 3 16 -3.1345 -0.3061
16 3 19 -7.2238 -0.1306
16 3 22 -1.6850 0.5051
16 4 -21 2.0145 0.2966
16 4 -18 3.5605 0.1998
16 4 -15 -0.3040 0.0999
16 4 -12 5.8962 -0.1783
16 4 -9 -3.0051 -0.0121
16 4 -6 -2.0059 -0.1427
16 4 -3 -1.4966 0.0395
16 4 0 6.6920 0.2266
16 4 3 -5.2011 0.1038
16 4 6 1.3910 -0.0562
16 4 9 0.6383 -0.0262
16 4 12 -1.2062 -0.2133
16 4 15 3.4411 0.1475
16 4 18 -5.8220 0.2530
16 4 21 -4.5616 -0.0824
16 5 -19 9.0603 0.3801
16 5 -16 -4.8595 -0.0671
16 5 -13 5.0384 -0.2605
16 5 -10 -0.1466 -0.0154
16 5 -7 1.2771 0.0622
16 5 -4 -5.4816 0.2253
16 5 -1 7.9532 0.1594
16 5 2 -10.6750 -0.0522
16 5 5 3.9188 -0.1071
16 5 8 -0.7578 0.2807
16 5 11 3.7630 0.0856
16 5 14 3.0882 0.1889
16 5 17 -6.5391 -0.2277
16 5 20 -8.1098 -0.3924
16 6 -14 8.1801 0.1231
16 6 -11 -1.9093 -0.0141
16 6 -8 2.3428 0.1640
16 6 -5 -0.0908 -0.0065
16 6 -2 -4.7236 0.0812
16 6 1 2.1600 0.0230
16 6 4 0.6595 0.1766
16 6 7 1.3062 0.3251
16 6 10 -4.2680 -0.1496
16 6 13 9.4778 -0.0102
16 6 16 -10.7336 -0.0672
16 7 -12 -0.9679 0.6786
16 7 -9 5.8405 -0.3104
16 7 -6 -6.0861 0.0145
16 7 -3 4.1004 0.0507
16 7 0 1.2364 0.1069
16 7 3 1.1590 -0.0939
16 7 6 -1.9544 0.2450
16 7 9 -2.8157 -0.0493
16 7 12 6.1097 0.2175
16 8 -4 0.2845 -0.2197
16 8 -1 5.5489 -0.0299
16 8 2 -1.2002 -0.0917
16 8 5 1.2394 0.5636
17 1 -23 -2.2906 -0.6176
17 1 -20 2.8828 0.0923
17 1 -17 -4.7186 0.2176
17 1 -14 -5.6465 -0.0791
17 1 -11 4.8452 -0.0556
17 1 -8 -3.0698 -0.0640
17 1 -5 7.8943 0.0003
17 1 -2 -0.0798 0.0069
17 1 1 5.8587 -0.0325
17 1 4 4.3339 0.0258
17 1 7 -3.3425 0.0795
17 1 10 3.1595 -0.0641
17 1 13 -1.5841 -0.0417
17 1 16 6.2472 0.0042
17 1 19 1.4931 0.1431
17 1 22 -13.2314 0.0583
17 1 25 13.7717 0.0778
17 2 -21 -4.8632 0.5473
17 2 -18 1.8696 -0.1530
17 2 -15 -1.0844 0.0525
17 2 -12 1.8556 0.0032
17 2 -9 -3.0381 -0.1475
17 2 -6 5.9100 -0.0808
17 2 -3 2.4044 0.1531
17 2 0 4.7500 -0.0288
17 2 3 -0.2281 -0.0556
17 2 6 -0.6693 -0.1036
17 2 9 0.7820 -0.1624
17 2 12 8.8290 0.0530
17 2 15 -5.8393 0.1392
17 2 18 -2.8216 0.0627
17 2 21 -0.6384 -0.1438
17 3 -19 -0.5758 0.2266
17 3 -16 2.6202 -0.0782
17 3 -13 0.5217 -0.4423
17 3 -10 -4.1583 0.1409
17 3 -7 9.3023 0.0608
17 3 -4 0.3784 0.3100
17 3 -1 -0.4662 -0.1213
17 3 2 0.7552 -0.1940
17 3 5 -2.7496 -0.1868
17 3 8 7.1959 -0.0232
17 3 11 -3.7582 0.3387
17 3 14 6.2584 -0.0550
17 3 17 -4.7186 -0.0865
17 3 20 -5.4665 -0.4092
17 4 -17 -3.5796 -0.7254
17 4 -14 6.4063 -0.0530
17 4 -11 3.6732 0.1852
17 4 -8 1.3902 0.2779
17 4 -5 -3.2731 0.0255
17 4 -2 0.1539 -0.1958
17 4 1 -0.2130 0.0624
17 4 4 -0.0117 -0.0059
17 4 7 0.9308 0.1358
17 4 10 2.9147 0.2674
17 4 13 -0.3189 -0.4084
17 4 16 -1.5549 0.0806
17 5 -15 7.7799 0.5908
17 5 -12 -3.2735 0.0889
17 5 -9 2.5153 -0.0242
17 5 -6 -0.8979 -0.1506
17 5 -3 -4.7681 0.1621
17 5 0 8.6882 0.1247
17 5 3 -7.7347 0.1724
17 5 6 2.5217 -0.0228
17 5 9 -1.6523 0.2269
17 5 12 3.3253 -0.2383
17 5 15 -0.0471 0.4425
17 6 -10 4.3075 -0.6386
17 6 -7 -1.3154 0.1531
17 6 -4 0.8247 0.0131
17 6 -1 -0.4632 0.2509
17 6 2 -0.5982 -0.0496
17 6 5 -0.1790 0.3024
17 6 8 -0.0134 0.2442
18 1 -19 1.5969 -0.0208
18 1 -16 -8.7374 0.0159
18 1 -13 -1.5552 -0.0613
18 1 -10 9.0408 -0.0282
18 1 -7 -6.5208 0.0526
18 1 -4 10.6249 0.1298
18 1 -1 -1.6837 -0.0681
18 1 2 3.1772 -0.1758
18 1 5 2.4772 -0.0444
18 1 8 2.1318 -0.0494
18 1 11 4.8839 0.1660
18 1 14 -3.9921 -0.0366
18 1 17 2.9874 -0.0128
18 1 20 3.8551 -0.0465
18 2 -17 -5.1117 -0.8025
18 2 -14 5.5174 0.0341
18 2 -11 4.0671 0.3932
18 2 -8 -3.9093 0.1166
18 2 -5 7.7977 0.0174
18 2 -2 -0.1266 -0.1416
18 2 1 3.2136 -0.2078
18 2 4 -1.5721 0.0107
18 2 7 4.4666 -0.0628
18 2 10 -3.6080 -0.0621
18 2 13 9.7687 -0.0745
18 2 16 -4.2813 0.2119
18 2 19 -0.9848 -0.1800
18 3 -15 12.9589 0.9943
18 3 -12 2.4234 -0.0449
18 3 -9 -9.7713 -0.0128
18 3 -6 13.0081 -0.2154
18 3 -3 -3.4300 0.2065
18 3 0 0.2290 -0.0068
18 3 3 3.2177 -0.0176
18 3 6 -3.9686 -0.2599
18 3 9 3.2273 -0.0308
18 3 12 1.4748 0.0126
18 3 15 2.0631 0.2093
18 4 -13 -3.7256 -0.5107
18 4 -10 2.0929 -0.3707
18 4 -7 7.4567 0.2691
18 4 -4 -7.4552 0.3327
18 4 -1 6.0014 -0.1293
18 4 2 -5.3311 0.1429
18 4 5 0.4482 -0.2548
18 4 8 -1.0338 0.0572
18 4 11 6.2594 0.1041
18 5 -8 3.0134 0.5980
18 5 -5 -6.0215 -0.0993
18 5 -2 0.2826 0.2948
18 5 1 2.5622 -0.1458
18 5 4 -2.3351 0.2097
18 5 7 -0.2196 -0.1595
19 1 -15 -6.1096 0.6004
19 1 -12 -0.9001 0.1009
19 1 -9 7.8767 0.0014
19 1 -6 -4.2823 0.0049
19 1 -3 8.5587 0.0256
19 1 0 -1.8386 0.0647
19 1 3 0.8339 -0.0172
19 1 6 4.2498 -0.1896
19 1 9 -6.4651 -0.1005
19 1 12 16.5896 0.1051
19 1 15 -8.8823 0.1128
19 2 -13 3.9895 -0.6220
19 2 -10 2.3762 0.0120
19 2 -7 2.4692 0.2453
19 2 -4 0.9340 0.2468
19 2 -1 2.0966 0.1439
19 2 2 3.1315 -0.3296
19 2 5 -5.0334 -0.3329
19 2 8 0.6422 0.0810
19 2 11 7.6063 -0.2586
19 2 14 -0.7818 0.1845
19 3 -8 -3.9613 0.6872
19 3 -5 3.6515 -0.1233
19 3 -2 2.8334 0.1719
19 3 1 -7.3241 -0.3337
19 3 4 5.2589 -0.1722
19 3 7 -3.8528 -0.1165
19 3 10 7.5530 -0.1958
19 4 0 0.8357 -0.6783
20 1 -11 -4.1675 0.3477
20 1 -8 10.1338 0.4050
20 1 -5 -7.1847 0.1203
20 1 -2 7.4149 0.1601
20 1 1 1.7754 -0.2245
20 1 4 -8.1198 -0.1578
20 1 7 7.0099 0.0392
20 1 10 1.5156 -0.2087
20 2 -6 -1.8962 -0.1663
20 2 -3 2.5131 0.1897
20 2 0 -2.3914 -0.1179
20 2 3 3.2263 -0.1038
20 2 6 -1.3224 -0.3271
0 0 0 0.0 0.0
;
_shelx_fab_checksum              55840
_olex2_submission_special_instructions 'No special instructions were received'
_oxdiff_exptl_absorpt_empirical_details
;
Empirical correction (ABSPACK) includes:
- Absorption correction using spherical harmonics
- Frame scaling
;
loop_
_space_group_symop_operation_xyz
'x, y, z'
'-y, x-y, z'
'-x+y, -x, z'
'x+2/3, y+1/3, z+1/3'
'-y+2/3, x-y+1/3, z+1/3'
'-x+y+2/3, -x+1/3, z+1/3'
'x+1/3, y+2/3, z+2/3'
'-y+1/3, x-y+2/3, z+2/3'
'-x+y+1/3, -x+2/3, z+2/3'
'-x, -y, -z'
'y, -x+y, -z'
'x-y, x, -z'
'-x+2/3, -y+1/3, -z+1/3'
'y+2/3, -x+y+1/3, -z+1/3'
'x-y+2/3, x+1/3, -z+1/3'
'-x+1/3, -y+2/3, -z+2/3'
'y+1/3, -x+y+2/3, -z+2/3'
'x-y+1/3, x+2/3, -z+2/3'
loop_
_atom_site_label
_atom_site_type_symbol
_atom_site_fract_x
_atom_site_fract_y
_atom_site_fract_z
_atom_site_U_iso_or_equiv
_atom_site_adp_type
_atom_site_occupancy
_atom_site_site_symmetry_order
_atom_site_calc_flag
_atom_site_refinement_flags_posn
_atom_site_refinement_flags_adp
_atom_site_refinement_flags_occupancy
_atom_site_disorder_assembly
_atom_site_disorder_group
Sb1 Sb 0.666667 0.333333 0.63863(2) 0.0358(2) Uani 1 3 d S T P . .
Mg1 Mg 0.833333 0.666667 0.666667 0.0300(5) Uani 1 2 d S . P . .
N1 N 0.8245(2) 0.55263(19) 0.67661(10) 0.0320(9) Uani 1 1 d . . . . .
N2 N 0.73552(19) 0.6264(2) 0.69474(9) 0.0314(9) Uani 1 1 d . . . . .
N3 N 0.7745(2) 0.6300(2) 0.61991(9) 0.0312(9) Uani 1 1 d . . . . .
C1 C 0.7534(2) 0.4213(2) 0.66888(12) 0.0334(11) Uani 1 1 d . . . . .
C2 C 0.7726(2) 0.4929(2) 0.66025(12) 0.0335(11) Uani 1 1 d . . . . .
H2 H 0.747158 0.499764 0.641442 0.040 Uiso 1 1 calc R U . . .
C3 C 0.8613(3) 0.5414(3) 0.70251(13) 0.0391(12) Uani 1 1 d . . . . .
H3 H 0.898357 0.582633 0.714547 0.047 Uiso 1 1 calc R U . . .
C4 C 0.8479(3) 0.4731(3) 0.71239(13) 0.0445(13) Uani 1 1 d . . . . .
H4 H 0.875674 0.468017 0.730628 0.053 Uiso 1 1 calc R U . . .
C5 C 0.7934(3) 0.4116(3) 0.69554(12) 0.0393(12) Uani 1 1 d . . . . .
H5 H 0.783507 0.364063 0.701943 0.047 Uiso 1 1 calc R U . . .
C6 C 0.7292(3) 0.6246(2) 0.73096(12) 0.0356(11) Uani 1 1 d . . . . .
C7 C 0.6514(3) 0.5835(3) 0.73992(14) 0.0436(13) Uani 1 1 d . . . . .
H7 H 0.631424 0.573639 0.762950 0.052 Uiso 1 1 calc R U . . .
C8 C 0.6128(3) 0.5620(3) 0.70941(14) 0.0430(12) Uani 1 1 d . . . . .
H8 H 0.561135 0.535082 0.707111 0.052 Uiso 1 1 calc R U . . .
C9 C 0.6661(3) 0.5885(2) 0.68082(12) 0.0343(11) Uani 1 1 d . . . . .
C10 C 0.6485(2) 0.5745(2) 0.64469(13) 0.0357(11) Uani 1 1 d . . . . .
C11 C 0.6981(3) 0.5935(2) 0.61654(13) 0.0349(11) Uani 1 1 d . . . . .
C12 C 0.6795(3) 0.5808(3) 0.57959(13) 0.0459(13) Uani 1 1 d . . . . .
H12 H 0.631667 0.557246 0.569929 0.055 Uiso 1 1 calc R U . . .
C13 C 0.7435(3) 0.6091(3) 0.56125(14) 0.0518(14) Uani 1 1 d . . . . .
H13 H 0.748177 0.608387 0.536467 0.062 Uiso 1 1 calc R U . . .
C14 C 0.8034(3) 0.6405(3) 0.58659(12) 0.0370(12) Uani 1 1 d . . . . .
C15 C 0.8787(3) 0.6781(3) 0.57818(12) 0.0344(11) Uani 1 1 d . . . . .
C16 C 0.8993(3) 0.6881(3) 0.53961(14) 0.0457(13) Uani 1 1 d . . . . .
C17 C 0.8857(3) 0.7333(3) 0.51813(16) 0.0613(16) Uani 1 1 d . . . . .
H17 H 0.860073 0.755608 0.527598 0.074 Uiso 1 1 calc R U . . .
C18 C 0.9082(4) 0.7467(4) 0.48339(16) 0.077(2) Uani 1 1 d . . . . .
H18 H 0.898139 0.777673 0.469268 0.092 Uiso 1 1 calc R U . . .
C19 C 0.9457(4) 0.7143(5) 0.46965(17) 0.083(2) Uani 1 1 d . . . . .
H19 H 0.961621 0.723171 0.445921 0.100 Uiso 1 1 calc R U . . .
C20 C 0.9601(4) 0.6693(4) 0.49007(17) 0.082(2) Uani 1 1 d . . . . .
H20 H 0.986337 0.647724 0.480486 0.098 Uiso 1 1 calc R U . . .
C21 C 0.9360(4) 0.6551(4) 0.52510(15) 0.0637(17) Uani 1 1 d . . . . .
H21 H 0.944717 0.622826 0.538903 0.076 Uiso 1 1 calc R U . . .
C22 C 0.5677(3) 0.5324(3) 0.63541(14) 0.0457(13) Uani 1 1 d . . . . .
C23 C 0.5251(4) 0.5634(5) 0.6399(2) 0.103(3) Uani 1 1 d . . . . .
H23 H 0.546761 0.612607 0.647648 0.123 Uiso 1 1 calc R U . . .
C24 C 0.4489(5) 0.5235(8) 0.6331(3) 0.147(5) Uani 1 1 d . . . . .
H24 H 0.419915 0.545628 0.637053 0.176 Uiso 1 1 calc R U . . .
C25 C 0.4178(5) 0.4550(8) 0.6213(3) 0.137(5) Uani 1 1 d . . . . .
H25 H 0.367415 0.429721 0.615321 0.164 Uiso 1 1 calc R U . . .
C26 C 0.4582(5) 0.4211(5) 0.6178(2) 0.104(3) Uani 1 1 d . . . . .
H26 H 0.435360 0.371250 0.610938 0.125 Uiso 1 1 calc R U . . .
C27 C 0.5347(4) 0.4611(3) 0.62447(18) 0.078(2) Uani 1 1 d . . . . .
H27 H 0.563110 0.438235 0.621322 0.093 Uiso 1 1 calc R U . . .
Cl2S Cl 0.4548(8) 0.6867(10) 0.5586(4) 0.519(17) Uani 0.5 1 d D U P . .
Cl3S Cl 0.5587(6) 0.8334(5) 0.5465(2) 0.234(4) Uani 0.5 1 d D U P . .
Cl4S Cl 0.5705(6) 0.7538(5) 0.6006(2) 0.269(6) Uani 0.5 1 d D U P . .
C2S C 0.5376(10) 0.7547(9) 0.5630(6) 0.195(12) Uani 0.5 1 d D U P . .
H2S H 0.565513 0.739321 0.547325 0.234 Uiso 0.5 1 calc R U P . .
Cl1S Cl 0.69260(12) 0.42207(11) 0.78201(5) 0.0962(6) Uani 1 1 d . . . . .
C1S C 0.666667 0.333333 0.7689(4) 0.086(4) Uani 1 3 d S T P . .
H1S H 0.666667 0.333331 0.742590 0.104 Uiso 1 3 calc R U P . .
loop_
_atom_site_aniso_label
_atom_site_aniso_U_11
_atom_site_aniso_U_22
_atom_site_aniso_U_33
_atom_site_aniso_U_23
_atom_site_aniso_U_13
_atom_site_aniso_U_12
Sb1 0.0294(2) 0.0294(2) 0.0487(4) 0.000 0.000 0.01472(12)
Mg1 0.0244(11) 0.0255(11) 0.0360(12) 0.0000(9) -0.0048(9) 0.0094(9)
N1 0.028(2) 0.023(2) 0.040(2) 0.0048(17) -0.0036(18) 0.0091(17)
N2 0.025(2) 0.030(2) 0.037(2) 0.0012(17) -0.0016(17) 0.0116(17)
N3 0.031(2) 0.025(2) 0.034(2) -0.0020(17) -0.0047(17) 0.0119(17)
C1 0.027(2) 0.031(3) 0.043(3) -0.005(2) 0.005(2) 0.016(2)
C2 0.030(3) 0.027(3) 0.043(3) 0.004(2) -0.006(2) 0.014(2)
C3 0.039(3) 0.033(3) 0.047(3) -0.008(2) -0.013(2) 0.019(2)
C4 0.054(3) 0.039(3) 0.046(3) -0.004(2) -0.013(3) 0.027(3)
C5 0.041(3) 0.030(3) 0.049(3) 0.009(2) -0.004(2) 0.020(2)
C6 0.039(3) 0.026(2) 0.041(3) 0.004(2) 0.007(2) 0.016(2)
C7 0.044(3) 0.038(3) 0.046(3) 0.009(2) 0.011(3) 0.019(2)
C8 0.030(3) 0.037(3) 0.057(3) 0.001(3) 0.000(3) 0.013(2)
C9 0.030(3) 0.028(2) 0.046(3) 0.005(2) 0.000(2) 0.015(2)
C10 0.029(3) 0.025(2) 0.049(3) 0.001(2) -0.009(2) 0.009(2)
C11 0.030(3) 0.022(2) 0.046(3) 0.003(2) -0.010(2) 0.009(2)
C12 0.037(3) 0.043(3) 0.044(3) 0.003(2) -0.011(3) 0.010(3)
C13 0.055(4) 0.053(3) 0.038(3) -0.005(3) -0.017(3) 0.020(3)
C14 0.041(3) 0.031(3) 0.039(3) 0.001(2) -0.004(2) 0.018(2)
C15 0.041(3) 0.032(3) 0.032(3) 0.005(2) 0.001(2) 0.020(2)
C16 0.039(3) 0.040(3) 0.045(3) 0.001(2) -0.004(2) 0.010(3)
C17 0.065(4) 0.056(4) 0.059(4) 0.011(3) 0.004(3) 0.027(3)
C18 0.087(5) 0.087(5) 0.045(4) 0.030(4) 0.011(4) 0.035(4)
C19 0.088(5) 0.108(6) 0.040(4) 0.010(4) 0.013(4) 0.039(5)
C20 0.096(6) 0.117(7) 0.053(4) 0.015(4) 0.022(4) 0.069(5)
C21 0.081(5) 0.080(4) 0.045(3) 0.010(3) 0.014(3) 0.052(4)
C22 0.028(3) 0.046(3) 0.049(3) 0.010(3) -0.008(2) 0.007(2)
C23 0.052(4) 0.112(7) 0.152(8) -0.048(6) -0.035(5) 0.047(5)
C24 0.062(6) 0.206(13) 0.184(11) -0.066(10) -0.049(7) 0.075(8)
C25 0.039(5) 0.192(13) 0.112(7) 0.001(8) -0.014(5) 0.007(7)
C26 0.074(6) 0.066(5) 0.088(6) 0.029(4) -0.045(5) -0.028(4)
C27 0.064(4) 0.045(4) 0.090(5) 0.011(3) -0.042(4) 0.002(3)
Cl2S 0.282(15) 0.43(2) 0.434(19) 0.107(18) -0.141(15) -0.130(16)
Cl3S 0.263(11) 0.209(9) 0.159(6) -0.055(6) 0.019(6) 0.064(8)
Cl4S 0.282(11) 0.142(6) 0.174(6) 0.003(5) -0.032(7) -0.051(7)
C2S 0.101(16) 0.18(2) 0.24(3) -0.06(2) 0.011(17) 0.029(17)
Cl1S 0.1032(16) 0.0787(13) 0.1058(14) -0.0216(11) -0.0097(12) 0.0448(12)
C1S 0.082(6) 0.082(6) 0.094(9) 0.000 0.000 0.041(3)
loop_
_atom_type_symbol
_atom_type_description
_atom_type_scat_dispersion_real
_atom_type_scat_dispersion_imag
_atom_type_scat_source
C C 0.0033 0.0016 'International Tables Vol C Tables 4.2.6.8 and 6.1.1.4'
H H 0.0000 0.0000 'International Tables Vol C Tables 4.2.6.8 and 6.1.1.4'
Cl Cl 0.1484 0.1585 'International Tables Vol C Tables 4.2.6.8 and 6.1.1.4'
Mg Mg 0.0486 0.0363 'International Tables Vol C Tables 4.2.6.8 and 6.1.1.4'
N N 0.0061 0.0033 'International Tables Vol C Tables 4.2.6.8 and 6.1.1.4'
Sb Sb -0.5866 1.5461 'International Tables Vol C Tables 4.2.6.8 and 6.1.1.4'
loop_
_exptl_crystal_face_index_h
_exptl_crystal_face_index_k
_exptl_crystal_face_index_l
_exptl_crystal_face_perp_dist
-5 0 1 0.1248
5 0 -1 0.1248
-5 5 -1 0.2000
5 -5 1 0.2000
1 -1 -5 0.0648
-1 1 5 0.0648
-2 7 -1 0.1347
0 0 -1 0.0871
1 -1 5 0.1279
0 4 -5 0.1056
2 -4 5 0.1673
loop_
_geom_angle_atom_site_label_1
_geom_angle_atom_site_label_2
_geom_angle_atom_site_label_3
_geom_angle
_geom_angle_site_symmetry_1
_geom_angle_site_symmetry_3
_geom_angle_publ_flag
C1 Sb1 C1 94.62(16) 3_665 2_655 ?
C1 Sb1 C1 94.61(16) 3_665 . ?
C1 Sb1 C1 94.61(16) 2_655 . ?
N1 Mg1 N1 180.0 13_666 . ?
N2 Mg1 N1 86.81(14) 13_666 13_666 ?
N2 Mg1 N1 86.81(14) . . ?
N2 Mg1 N1 93.19(14) . 13_666 ?
N2 Mg1 N1 93.19(14) 13_666 . ?
N2 Mg1 N2 180.0 . 13_666 ?
N3 Mg1 N1 91.67(14) . . ?
N3 Mg1 N1 88.33(13) . 13_666 ?
N3 Mg1 N1 88.33(13) 13_666 . ?
N3 Mg1 N1 91.67(14) 13_666 13_666 ?
N3 Mg1 N2 89.99(14) 13_666 . ?
N3 Mg1 N2 89.99(14) . 13_666 ?
N3 Mg1 N2 90.01(14) . . ?
N3 Mg1 N2 90.01(14) 13_666 13_666 ?
N3 Mg1 N3 180.0 13_666 . ?
C2 N1 Mg1 119.9(3) . . ?
C2 N1 C3 116.4(4) . . ?
C3 N1 Mg1 122.7(3) . . ?
C6 N2 Mg1 125.6(3) . . ?
C9 N2 Mg1 126.0(3) . . ?
C9 N2 C6 107.9(4) . . ?
C11 N3 Mg1 126.2(3) . . ?
C14 N3 Mg1 126.3(3) . . ?
C14 N3 C11 107.5(4) . . ?
C2 C1 Sb1 117.8(3) . . ?
C2 C1 C5 117.5(4) . . ?
C5 C1 Sb1 124.7(4) . . ?
N1 C2 C1 124.7(4) . . ?
N1 C2 H2 117.7 . . ?
C1 C2 H2 117.7 . . ?
N1 C3 H3 118.3 . . ?
N1 C3 C4 123.4(5) . . ?
C4 C3 H3 118.3 . . ?
C3 C4 H4 120.2 . . ?
C3 C4 C5 119.7(5) . . ?
C5 C4 H4 120.2 . . ?
C1 C5 H5 120.8 . . ?
C4 C5 C1 118.4(4) . . ?
C4 C5 H5 120.8 . . ?
N2 C6 C7 108.2(4) . . ?
N2 C6 C15 125.8(4) . 13_666 ?
C15 C6 C7 126.0(4) 13_666 . ?
C6 C7 H7 126.0 . . ?
C8 C7 C6 107.9(4) . . ?
C8 C7 H7 126.0 . . ?
C7 C8 H8 126.6 . . ?
C7 C8 C9 106.8(4) . . ?
C9 C8 H8 126.6 . . ?
N2 C9 C8 109.2(4) . . ?
N2 C9 C10 125.9(4) . . ?
C10 C9 C8 124.8(4) . . ?
C9 C10 C22 116.6(4) . . ?
C11 C10 C9 126.8(4) . . ?
C11 C10 C22 116.6(4) . . ?
N3 C11 C10 125.0(4) . . ?
N3 C11 C12 108.8(4) . . ?
C10 C11 C12 126.2(4) . . ?
C11 C12 H12 126.4 . . ?
C13 C12 C11 107.2(4) . . ?
C13 C12 H12 126.4 . . ?
C12 C13 H13 126.1 . . ?
C12 C13 C14 107.8(4) . . ?
C14 C13 H13 126.1 . . ?
N3 C14 C13 108.7(4) . . ?
N3 C14 C15 125.7(4) . . ?
C15 C14 C13 125.6(5) . . ?
C6 C15 C16 116.2(4) 13_666 . ?
C14 C15 C6 126.4(4) . 13_666 ?
C14 C15 C16 117.5(4) . . ?
C17 C16 C15 121.5(5) . . ?
C21 C16 C15 120.5(5) . . ?
C21 C16 C17 118.0(5) . . ?
C16 C17 H17 118.9 . . ?
C18 C17 C16 122.2(6) . . ?
C18 C17 H17 118.9 . . ?
C17 C18 H18 120.6 . . ?
C19 C18 C17 118.8(7) . . ?
C19 C18 H18 120.6 . . ?
C18 C19 H19 119.7 . . ?
C20 C19 C18 120.6(6) . . ?
C20 C19 H19 119.7 . . ?
C19 C20 H20 119.9 . . ?
C19 C20 C21 120.1(7) . . ?
C21 C20 H20 119.9 . . ?
C16 C21 C20 120.2(6) . . ?
C16 C21 H21 119.9 . . ?
C20 C21 H21 119.9 . . ?
C23 C22 C10 120.6(5) . . ?
C23 C22 C27 118.0(6) . . ?
C27 C22 C10 121.2(5) . . ?
C22 C23 H23 119.4 . . ?
C22 C23 C24 121.2(9) . . ?
C24 C23 H23 119.4 . . ?
C23 C24 H24 119.9 . . ?
C25 C24 C23 120.2(10) . . ?
C25 C24 H24 119.9 . . ?
C24 C25 H25 119.9 . . ?
C24 C25 C26 120.3(9) . . ?
C26 C25 H25 119.9 . . ?
C25 C26 H26 120.3 . . ?
C25 C26 C27 119.4(9) . . ?
C27 C26 H26 120.3 . . ?
C22 C27 C26 120.7(8) . . ?
C22 C27 H27 119.6 . . ?
C26 C27 H27 119.6 . . ?
Cl2S C2S H2S 101.5 . . ?
Cl3S C2S Cl2S 119.4(13) . . ?
Cl3S C2S H2S 101.5 . . ?
Cl4S C2S Cl2S 111.4(12) . . ?
Cl4S C2S Cl3S 117.5(12) . . ?
Cl4S C2S H2S 101.5 . . ?
Cl1S C1S Cl1S 112.1(4) . 2_655 ?
Cl1S C1S Cl1S 112.1(4) 3_665 . ?
Cl1S C1S Cl1S 112.1(4) 3_665 2_655 ?
Cl1S C1S H1S 106.7 3_665 . ?
Cl1S C1S H1S 106.7 2_655 . ?
Cl1S C1S H1S 106.7 . . ?
loop_
_geom_bond_atom_site_label_1
_geom_bond_atom_site_label_2
_geom_bond_distance
_geom_bond_site_symmetry_2
_geom_bond_publ_flag
Sb1 C1 2.155(5) 3_665 ?
Sb1 C1 2.155(5) . ?
Sb1 C1 2.155(5) 2_655 ?
Mg1 N1 2.330(4) . ?
Mg1 N1 2.330(4) 13_666 ?
Mg1 N2 2.072(4) . ?
Mg1 N2 2.072(4) 13_666 ?
Mg1 N3 2.065(3) . ?
Mg1 N3 2.065(3) 13_666 ?
N1 C2 1.329(6) . ?
N1 C3 1.336(6) . ?
N2 C6 1.370(6) . ?
N2 C9 1.365(6) . ?
N3 C11 1.390(6) . ?
N3 C14 1.363(6) . ?
C1 C2 1.381(6) . ?
C1 C5 1.387(6) . ?
C2 H2 0.9400 . ?
C3 H3 0.9400 . ?
C3 C4 1.364(7) . ?
C4 H4 0.9400 . ?
C4 C5 1.376(7) . ?
C5 H5 0.9400 . ?
C6 C7 1.451(7) . ?
C6 C15 1.402(7) 13_666 ?
C7 H7 0.9400 . ?
C7 C8 1.347(7) . ?
C8 H8 0.9400 . ?
C8 C9 1.448(7) . ?
C9 C10 1.402(6) . ?
C10 C11 1.396(7) . ?
C10 C22 1.507(7) . ?
C11 C12 1.434(7) . ?
C12 H12 0.9400 . ?
C12 C13 1.353(7) . ?
C13 H13 0.9400 . ?
C13 C14 1.447(7) . ?
C14 C15 1.402(7) . ?
C15 C16 1.501(7) . ?
C16 C17 1.378(8) . ?
C16 C21 1.377(8) . ?
C17 H17 0.9400 . ?
C17 C18 1.372(8) . ?
C18 H18 0.9400 . ?
C18 C19 1.370(10) . ?
C19 H19 0.9400 . ?
C19 C20 1.362(10) . ?
C20 H20 0.9400 . ?
C20 C21 1.391(8) . ?
C21 H21 0.9400 . ?
C22 C23 1.351(9) . ?
C22 C27 1.357(8) . ?
C23 H23 0.9400 . ?
C23 C24 1.405(11) . ?
C24 H24 0.9400 . ?
C24 C25 1.321(15) . ?
C25 H25 0.9400 . ?
C25 C26 1.356(15) . ?
C26 H26 0.9400 . ?
C26 C27 1.410(10) . ?
C27 H27 0.9400 . ?
Cl2S C2S 1.610(14) . ?
Cl3S C2S 1.602(14) . ?
Cl4S C2S 1.581(14) . ?
C2S H2S 0.9900 . ?
Cl1S C1S 1.727(4) . ?
C1S H1S 0.9900 . ?
loop_
_geom_torsion_atom_site_label_1
_geom_torsion_atom_site_label_2
_geom_torsion_atom_site_label_3
_geom_torsion_atom_site_label_4
_geom_torsion
_geom_torsion_site_symmetry_1
_geom_torsion_site_symmetry_2
_geom_torsion_site_symmetry_3
_geom_torsion_site_symmetry_4
_geom_torsion_publ_flag
Sb1 C1 C2 N1 179.5(3) . . . . ?
Sb1 C1 C5 C4 179.3(4) . . . . ?
Mg1 N1 C2 C1 -167.4(4) . . . . ?
Mg1 N1 C3 C4 169.0(4) . . . . ?
Mg1 N2 C6 C7 -172.4(3) . . . . ?
Mg1 N2 C6 C15 5.7(6) . . . 13_666 ?
Mg1 N2 C9 C8 173.0(3) . . . . ?
Mg1 N2 C9 C10 -4.7(7) . . . . ?
Mg1 N3 C11 C10 -1.3(6) . . . . ?
Mg1 N3 C11 C12 177.2(3) . . . . ?
Mg1 N3 C14 C13 -177.4(3) . . . . ?
Mg1 N3 C14 C15 0.3(7) . . . . ?
N1 C3 C4 C5 -0.7(8) . . . . ?
N2 C6 C7 C8 -0.5(5) . . . . ?
N2 C9 C10 C11 3.0(8) . . . . ?
N2 C9 C10 C22 -179.0(4) . . . . ?
N3 C11 C12 C13 0.1(6) . . . . ?
N3 C14 C15 C6 2.8(8) . . . 13_666 ?
N3 C14 C15 C16 -175.9(4) . . . . ?
C2 N1 C3 C4 -0.1(7) . . . . ?
C2 C1 C5 C4 1.9(7) . . . . ?
C3 N1 C2 C1 2.0(7) . . . . ?
C3 C4 C5 C1 -0.2(8) . . . . ?
C5 C1 C2 N1 -2.9(7) . . . . ?
C6 N2 C9 C8 0.8(5) . . . . ?
C6 N2 C9 C10 -176.9(4) . . . . ?
C6 C7 C8 C9 0.9(6) . . . . ?
C6 C15 C16 C17 -110.9(6) 13_666 . . . ?
C6 C15 C16 C21 65.8(7) 13_666 . . . ?
C7 C8 C9 N2 -1.1(6) . . . . ?
C7 C8 C9 C10 176.6(5) . . . . ?
C8 C9 C10 C11 -174.3(5) . . . . ?
C8 C9 C10 C22 3.7(7) . . . . ?
C9 N2 C6 C7 -0.2(5) . . . . ?
C9 N2 C6 C15 177.9(4) . . . 13_666 ?
C9 C10 C11 N3 0.3(8) . . . . ?
C9 C10 C11 C12 -178.0(5) . . . . ?
C9 C10 C22 C23 68.5(7) . . . . ?
C9 C10 C22 C27 -107.4(6) . . . . ?
C10 C11 C12 C13 178.6(5) . . . . ?
C10 C22 C23 C24 -176.6(8) . . . . ?
C10 C22 C27 C26 176.4(6) . . . . ?
C11 N3 C14 C13 -0.6(5) . . . . ?
C11 N3 C14 C15 177.2(4) . . . . ?
C11 C10 C22 C23 -113.3(7) . . . . ?
C11 C10 C22 C27 70.8(7) . . . . ?
C11 C12 C13 C14 -0.4(6) . . . . ?
C12 C13 C14 N3 0.6(6) . . . . ?
C12 C13 C14 C15 -177.1(5) . . . . ?
C13 C14 C15 C6 -179.8(5) . . . 13_666 ?
C13 C14 C15 C16 1.4(7) . . . . ?
C14 N3 C11 C10 -178.2(4) . . . . ?
C14 N3 C11 C12 0.3(5) . . . . ?
C14 C15 C16 C17 68.0(6) . . . . ?
C14 C15 C16 C21 -115.3(6) . . . . ?
C15 C6 C7 C8 -178.6(5) 13_666 . . . ?
C15 C16 C17 C18 175.9(6) . . . . ?
C15 C16 C21 C20 -174.9(6) . . . . ?
C16 C17 C18 C19 -0.1(10) . . . . ?
C17 C16 C21 C20 1.9(9) . . . . ?
C17 C18 C19 C20 0.2(12) . . . . ?
C18 C19 C20 C21 0.8(12) . . . . ?
C19 C20 C21 C16 -1.9(11) . . . . ?
C21 C16 C17 C18 -0.9(9) . . . . ?
C22 C10 C11 N3 -177.7(4) . . . . ?
C22 C10 C11 C12 4.0(7) . . . . ?
C22 C23 C24 C25 -1.8(17) . . . . ?
C23 C22 C27 C26 0.4(10) . . . . ?
C23 C24 C25 C26 4.3(19) . . . . ?
C24 C25 C26 C27 -4.4(16) . . . . ?
C25 C26 C27 C22 2.0(12) . . . . ?
C27 C22 C23 C24 -0.6(13) . . . . ?
loop_
_smtbx_masks_void_nr
_smtbx_masks_void_average_x
_smtbx_masks_void_average_y
_smtbx_masks_void_average_z
_smtbx_masks_void_volume
_smtbx_masks_void_count_electrons
_smtbx_masks_void_content
1 0.000 0.000 0.000 168.6 25.7 '0.5 CHCl3'
2 -0.951 -0.325 0.167 865.9 152.8 '2.5 CHCl3'
3 -0.741 -0.464 0.833 865.9 152.8 '2.5 CHCl3'
4 0.495 -0.504 0.500 865.9 152.8 '2.5 CHCl3'
5 0.333 0.667 0.667 168.6 25.7 '0.5 CHCl3'
6 0.667 0.333 0.333 168.6 25.7 '0.5 CHCl3'
