#------------------------------------------------------------------------------
#$Date: 2023-06-29 12:16:13 +0300 (Thu, 29 Jun 2023) $
#$Revision: 284567 $
#$URL: file:///home/coder/svn-repositories/cod/cif/1/56/93/1569319.cif $
#------------------------------------------------------------------------------
#
# This file is available in the Crystallography Open Database (COD),
# http://www.crystallography.net/
#
# All data on this site have been placed in the public domain by the
# contributors.
#
data_1569319
loop_
_publ_author_name
'Garc&#xed;a-Romero, &#xc1;lvaro'
'Miguel, Daniel'
'Wright, Dominic S.'
'&#xc1;lvarez, Celedonio M'
'Garc&#xed;a-Rodr&#xed;guez, Ra&#xfa;l'
_publ_section_title
;
 Structural and dimensional control of porphyrin capsules using Group 15
 tris(3-pyridyl) linkers.
;
_journal_issue                   24
_journal_name_full               'Chemical science'
_journal_page_first              6522
_journal_page_last               6530
_journal_paper_doi               10.1039/d3sc02151c
_journal_volume                  14
_journal_year                    2023
_chemical_formula_moiety         'C162 H108 Mg3 N18 P2'
_chemical_formula_sum            'C162 H108 Mg3 N18 P2'
_chemical_formula_weight         2441.53
_space_group_crystal_system      trigonal
_space_group_IT_number           148
_space_group_name_Hall           '-R 3'
_space_group_name_H-M_alt        'R -3 :H'
_atom_sites_solution_hydrogens   geom
_atom_sites_solution_primary     iterative
_audit_creation_date             2022-06-05
_audit_creation_method
;
Olex2 1.3
(compiled 2020.11.12 svn.r5f609507 for OlexSys, GUI svn.r6408)
;
_audit_update_record
;
2022-08-10 deposited with the CCDC.	2023-05-17 downloaded from the CCDC.
;
_cell_angle_alpha                90
_cell_angle_beta                 90
_cell_angle_gamma                120
_cell_formula_units_Z            3
_cell_length_a                   20.6368(12)
_cell_length_b                   20.6368(12)
_cell_length_c                   37.744(2)
_cell_measurement_reflns_used    1652
_cell_measurement_temperature    219.9(6)
_cell_measurement_theta_max      24.4360
_cell_measurement_theta_min      2.4250
_cell_volume                     13920.8(14)
_computing_cell_refinement       'CrysAlisPro 1.171.38.46 (Rigaku OD, 2015)'
_computing_data_collection       'CrysAlisPro 1.171.38.46 (Rigaku OD, 2015)'
_computing_data_reduction        'CrysAlisPro 1.171.38.46 (Rigaku OD, 2015)'
_computing_molecular_graphics    'Olex2 1.3 (Dolomanov et al., 2009)'
_computing_publication_material  'Olex2 1.3 (Dolomanov et al., 2009)'
_computing_structure_refinement  'SHELXL 2018/3 (Sheldrick, 2015)'
_computing_structure_solution    'olex2.solve 1.3 (Bourhis et al., 2015)'
_diffrn_ambient_temperature      219.9(6)
_diffrn_detector_area_resol_mean 10.4757
_diffrn_detector_type            Atlas
_diffrn_measured_fraction_theta_full 0.997
_diffrn_measured_fraction_theta_max 0.997
_diffrn_measurement_details
;
List of Runs (angles in degrees, time in seconds):

  # Type    Start    End  Width  t~exp~   \w     \q     \k     \f   Frames
#--------------------------------------------------------------------------
  1  \w    -18.00  79.00   1.00   50.00    --   12.51  77.00  30.00   97
;
_diffrn_measurement_device       'four-circle diffractometer'
_diffrn_measurement_device_type  'SuperNova, Dual, Cu at zero, Atlas'
_diffrn_measurement_method       '\w scans'
_diffrn_radiation_type           MoK\a
_diffrn_radiation_wavelength     0.71073
_diffrn_reflns_av_R_equivalents  0.0522
_diffrn_reflns_av_unetI/netI     0.1022
_diffrn_reflns_Laue_measured_fraction_full 0.997
_diffrn_reflns_Laue_measured_fraction_max 0.997
_diffrn_reflns_limit_h_max       24
_diffrn_reflns_limit_h_min       -20
_diffrn_reflns_limit_k_max       10
_diffrn_reflns_limit_k_min       -24
_diffrn_reflns_limit_l_max       44
_diffrn_reflns_limit_l_min       -38
_diffrn_reflns_number            10431
_diffrn_reflns_point_group_measured_fraction_full 0.997
_diffrn_reflns_point_group_measured_fraction_max 0.997
_diffrn_reflns_theta_full        24.728
_diffrn_reflns_theta_max         24.728
_diffrn_reflns_theta_min         1.569
_exptl_absorpt_coefficient_mu    0.078
_exptl_absorpt_correction_T_max  1.000
_exptl_absorpt_correction_T_min  0.758
_exptl_absorpt_correction_type   gaussian
_exptl_absorpt_process_details
;
CrysAlisPro 1.171.38.46 (Rigaku Oxford Diffraction, 2015)
Numerical absorption correction based on gaussian integration over
			a multifaceted crystal model
Empirical absorption correction using spherical harmonics,
 implemented in SCALE3 ABSPACK scaling algorithm.
;
_exptl_crystal_colour            violet
_exptl_crystal_colour_primary    violet
_exptl_crystal_density_diffrn    0.874
_exptl_crystal_description       block
_exptl_crystal_F_000             3816
_exptl_crystal_size_max          0.458
_exptl_crystal_size_mid          0.35
_exptl_crystal_size_min          0.134
_refine_diff_density_max         0.223
_refine_diff_density_min         -0.249
_refine_diff_density_rms         0.052
_refine_ls_extinction_method     none
_refine_ls_goodness_of_fit_ref   0.948
_refine_ls_hydrogen_treatment    constr
_refine_ls_matrix_type           full
_refine_ls_number_parameters     280
_refine_ls_number_reflns         5282
_refine_ls_number_restraints     0
_refine_ls_restrained_S_all      0.948
_refine_ls_R_factor_all          0.1173
_refine_ls_R_factor_gt           0.0684
_refine_ls_shift/su_max          0.000
_refine_ls_shift/su_mean         0.000
_refine_ls_structure_factor_coef Fsqd
_refine_ls_weighting_details
'w=1/[\s^2^(Fo^2^)+(0.1077P)^2^] where P=(Fo^2^+2Fc^2^)/3'
_refine_ls_weighting_scheme      calc
_refine_ls_wR_factor_gt          0.1786
_refine_ls_wR_factor_ref         0.2074
_reflns_Friedel_coverage         0.000
_reflns_number_gt                2824
_reflns_number_total             5282
_reflns_threshold_expression     'I > 2\s(I)'
_cod_data_source_file            d3sc02151c2.cif
_cod_data_source_block           PMg
_cod_original_cell_volume        13920.8(18)
_cod_original_sg_symbol_H-M      'R -3'
_cod_database_code               1569319
_shelx_shelxl_version_number     2018/3
_shelx_space_group_comment
;
The symmetry employed for this shelxl refinement is uniquely defined
by the following loop, which should always be used as a source of
symmetry information in preference to the above space-group names.
They are only intended as comments.
;
_olex2_refinement_description
;
1.a Aromatic/amide H refined with riding coordinates:
 C2(H2), C3(H3), C4(H4), C5(H5), C7(H7), C8(H8), C12(H12), C13(H13), C14(H14),
 C15(H15), C16(H16), C18(H18), C19(H19), C23(H23), C24(H24), C25(H25), C26(H26),
  C27(H27)
;
_smtbx_masks_special_details
;
A solvent mask was calculated and 1214 electrons were  found in a volume of 6206 cubic angstroms in 2 voids per unit cell. 
The crystallization solvent was CHCl3/hexane, and this is consistent with the presence of roughly 7 CHCl3 per formula unit (i.e . roughly 21 CHCl3 per unit cell) which account for 1218 electrons per unit cell. 
The crystals were observed to lose solvent very quickly during the preparation of the sample, and therefore the exact amount of CHCl3 is expected to vary among crystals due to partial loss of CHCl3
;
_smtbx_masks_void_probe_radius   1.2
_smtbx_masks_void_truncation_radius 1.2
_shelx_res_file
;
TITL agr602e_a.res in R-3
    agr602e.res
    created by SHELXL-2018/3 at 15:00:33 on 05-Jun-2022
REM Old TITL AGR602e in R-3
REM SHELXT solution in R-3: R1 0.271, Rweak 0.031, Alpha 0.051
REM <I/s> 0.000 for 0 systematic absences, Orientation as input
REM Formula found by SHELXT: C120 N66 Mg3 P2
CELL 0.71073 20.6368 20.6368 37.7442 90 90 120
ZERR 3 0.0012 0.0012 0.0021 0 0 0
LATT 3
SYMM -Y,+X-Y,+Z
SYMM +Y-X,-X,+Z
SFAC C H Mg N P
UNIT 486 324 9 54 6

L.S. 20 0 0
PLAN  18
TEMP -53.2(6)
CONF
list 4
MORE -1
BOND $H
ABIN
fmap 2 53
acta
OMIT -1 1 4
OMIT 2 6 5
OMIT 0 4 2
OMIT 2 2 9
OMIT -3 3 12
OMIT 0 3 3
REM <olex2.extras>
REM <HklSrc "%.\\agr602e.hkl">
REM </olex2.extras>

WGHT    0.107700
FVAR       0.13300
P1    5    0.666667    0.333333    0.653520    10.33333    0.03049    0.03049 =
         0.04834    0.00000    0.00000    0.01525
MG1   3    0.833333    0.666667    0.666667    10.50000    0.03959    0.03192 =
         0.03895    0.00160    0.00544    0.02024
N1    4    0.726748    0.547593    0.677474    11.00000    0.03294    0.03723 =
         0.04356    0.00366    0.00329    0.01924
N2    4    0.890582    0.625794    0.695061    11.00000    0.03294    0.03636 =
         0.04772    0.00739    0.00740    0.01888
N3    4    0.855302    0.627851    0.620254    11.00000    0.03605    0.03032 =
         0.04313    0.00063    0.00254    0.01591
C1    1    0.667740    0.413292    0.675824    11.00000    0.03006    0.03397 =
         0.04612    0.00521    0.00338    0.01736
C2    1    0.718695    0.484514    0.664420    11.00000    0.03530    0.03214 =
         0.03861    0.00006    0.00669    0.01806
AFIX  43
H2    2    0.750527    0.488530    0.645693    11.00000   -1.20000
AFIX   0
C3    1    0.679769    0.540319    0.703753    11.00000    0.04090    0.03143 =
         0.06512   -0.00801    0.00602    0.01507
AFIX  43
H3    2    0.683712    0.583865    0.713755    11.00000   -1.20000
AFIX   0
C4    1    0.626463    0.472460    0.716622    11.00000    0.04949    0.04351 =
         0.06796   -0.00688    0.01533    0.01995
AFIX  43
H4    2    0.594010    0.469573    0.734812    11.00000   -1.20000
AFIX   0
C5    1    0.620955    0.407760    0.702405    11.00000    0.04508    0.03295 =
         0.05908    0.00154    0.01574    0.01213
AFIX  43
H5    2    0.585122    0.360566    0.711129    11.00000   -1.20000
AFIX   0
C6    1    0.896426    0.624966    0.731310    11.00000    0.03907    0.03114 =
         0.04088    0.00655    0.00127    0.01421
C7    1    0.932457    0.583723    0.740941    11.00000    0.05194    0.05176 =
         0.05611    0.00749   -0.00062    0.02754
AFIX  43
H7    2    0.942527    0.574374    0.764085    11.00000   -1.20000
AFIX   0
C8    1    0.949419    0.560584    0.710493    11.00000    0.05284    0.04168 =
         0.06441    0.00190   -0.00038    0.03110
AFIX  43
H8    2    0.973975    0.532738    0.708550    11.00000   -1.20000
AFIX   0
C9    1    0.922725    0.586707    0.681711    11.00000    0.03562    0.02943 =
         0.05259   -0.00060    0.00318    0.01587
C10   1    0.925833    0.571759    0.645745    11.00000    0.04089    0.02535 =
         0.06221    0.00278    0.01071    0.01562
C11   1    0.966667    0.530540    0.636759    11.00000    0.06341    0.04872 =
         0.06866    0.00516    0.01320    0.03782
C12   1    1.039689    0.560245    0.640430    11.00000    0.07896    0.13150 =
         0.20242   -0.06136   -0.00472    0.07466
AFIX  43
H12   2    1.066898    0.609920    0.648511    11.00000   -1.20000
AFIX   0
C13   1    1.079041    0.524150    0.633347    11.00000    0.12971    0.19147 =
         0.22505   -0.07660   -0.03640    0.13284
AFIX  43
H13   2    1.131189    0.547815    0.636310    11.00000   -1.20000
AFIX   0
C14   1    1.037928    0.451716    0.621723    11.00000    0.22412    0.17260 =
         0.15246   -0.00355    0.03591    0.17419
AFIX  43
H14   2    1.062493    0.425783    0.614769    11.00000   -1.20000
AFIX   0
C15   1    0.964287    0.417988    0.620184    11.00000    0.17627    0.06942 =
         0.10381    0.03029    0.07396    0.08398
AFIX  43
H15   2    0.936733    0.366882    0.614401    11.00000   -1.20000
AFIX   0
C16   1    0.927471    0.456389    0.626893    11.00000    0.10697    0.04235 =
         0.09580    0.00744    0.04463    0.04227
AFIX  43
H16   2    0.875111    0.432020    0.624756    11.00000   -1.20000
AFIX   0
C17   1    0.895203    0.591430    0.617334    11.00000    0.04122    0.02888 =
         0.05267    0.00109    0.01117    0.01611
C18   1    0.902406    0.578983    0.580800    11.00000    0.07124    0.05385 =
         0.04847    0.00200    0.01735    0.03988
AFIX  43
H18   2    0.927672    0.555459    0.571511    11.00000   -1.20000
AFIX   0
C19   1    0.866970    0.606609    0.562147    11.00000    0.08026    0.05987 =
         0.04680   -0.00065    0.01653    0.03763
AFIX  43
H19   2    0.862107    0.605496    0.537359    11.00000   -1.20000
AFIX   0
C20   1    0.837393    0.638559    0.586869    11.00000    0.04133    0.03707 =
         0.04314    0.00112    0.00680    0.01468
C21   1    0.798903    0.676528    0.578055    11.00000    0.04408    0.04401 =
         0.03762    0.00453    0.00471    0.01758
C22   1    0.787598    0.685142    0.539462    11.00000    0.05513    0.04968 =
         0.04800    0.00017   -0.00539    0.02189
C23   1    0.848613    0.731393    0.518298    11.00000    0.07519    0.09731 =
         0.05326    0.02945    0.01426    0.03891
AFIX  43
H23   2    0.897433    0.753823    0.527500    11.00000   -1.20000
AFIX   0
C24   1    0.836624    0.744096    0.483381    11.00000    0.09564    0.12405 =
         0.07358    0.03728    0.02614    0.04404
AFIX  43
H24   2    0.877042    0.778847    0.469570    11.00000   -1.20000
AFIX   0
C25   1    0.767622    0.707049    0.469190    11.00000    0.11204    0.16270 =
         0.05452    0.03335    0.00643    0.06762
AFIX  43
H25   2    0.760773    0.713938    0.445150    11.00000   -1.20000
AFIX   0
C26   1    0.707994    0.659985    0.489159    11.00000    0.08551    0.13783 =
         0.06351    0.02373   -0.01283    0.04399
AFIX  43
H26   2    0.659990    0.634150    0.479031    11.00000   -1.20000
AFIX   0
C27   1    0.718169    0.650025    0.524862    11.00000    0.07701    0.09169 =
         0.05376    0.01713   -0.00485    0.02846
AFIX  43
H27   2    0.676542    0.618687    0.538955    11.00000   -1.20000
AFIX   0
HKLF 4




REM  agr602e_a.res in R-3
REM wR2 = 0.2074, GooF = S = 0.948, Restrained GooF = 0.948 for all data
REM R1 = 0.0684 for 2824 Fo > 4sig(Fo) and 0.1173 for all 5282 data
REM 280 parameters refined using 0 restraints

END

WGHT      0.1077      0.0000

REM Highest difference peak  0.223,  deepest hole -0.249,  1-sigma level  0.052
Q1    1   1.0453  0.5738  0.6111  11.00000  0.05    0.22
Q2    1   0.7228  0.4845  0.6518  11.00000  0.05    0.20
Q3    1   1.0753  0.5347  0.5969  11.00000  0.05    0.20
Q4    1   0.7727  0.5391  0.6317  11.00000  0.05    0.19
Q5    1   0.9306  0.9112  0.5441  11.00000  0.05    0.19
Q6    1   0.7197  0.4478  0.6869  11.00000  0.05    0.19
Q7    1   0.6512  0.3662  0.6708  11.00000  0.05    0.18
Q8    1   0.6667  0.3333  0.6275  10.33333  0.05    0.17
Q9    1   0.6831  0.5960  0.6946  11.00000  0.05    0.16
Q10   1   0.6980  0.3786  0.6829  11.00000  0.05    0.16
Q11   1   0.7637  0.5469  0.7218  11.00000  0.05    0.16
Q12   1   0.6606  0.5964  0.6741  11.00000  0.05    0.16
Q13   1   0.7751  0.5606  0.7174  11.00000  0.05    0.16
Q14   1   0.8367  0.6010  0.6567  11.00000  0.05    0.15
Q15   1   0.9014  0.4985  0.6774  11.00000  0.05    0.15
Q16   1   1.0521  0.4822  0.6315  11.00000  0.05    0.15
Q17   1   1.3333  0.6667  0.6275  10.33333  0.05    0.15
Q18   1   0.7405  0.5974  0.5999  11.00000  0.05    0.15
;
_shelx_res_checksum              85808
_shelx_hkl_file
;
   0   0   6 4441.97   31.21
   0   0  -6 4400.33   32.22
   0   0   9  244.42    9.57
   0   0  -9  215.24    8.96
   0   0 -12 2024.86   31.30
   0   0  12 2008.81   30.08
   0   0 -15   33.03    5.24
   0   0  15   36.15    6.89
   0   0 -18  291.24   15.01
   0   0  18  279.05   15.20
   0   0  21  833.87   25.89
   0   0 -21  804.23   26.44
   0   0 -24  303.74   17.35
   0   0  24  305.82   16.93
   0   0  27  161.39   13.54
   0   0 -27  162.31   13.88
   0   0  30   48.61    9.03
   0   0 -30   43.63    8.44
   0   0  33   22.07    7.71
   0   0 -33   12.13    5.44
   0   0  36   -4.32    6.28
   0   0  39    4.72    5.25
   0   0  42    0.04    5.37
  -1   0  44   -7.79    5.93
   0   1  44   -4.28    5.89
   1  -1  44   -0.78    5.13
  -1   0  41   -0.93    5.95
   0   1  41   -5.98    6.04
   1  -1  41   -1.15    5.56
  -1   0  38    0.48    5.59
   1  -1  38    0.91    5.82
   0   1  38    0.01    5.74
   0   1  35   20.11    7.13
   1   0 -35   26.10    7.03
   1  -1  35   26.94    8.24
  -1   0  35   20.20    6.53
  -1   0  32    9.58    5.73
   1   0 -32   14.42    5.23
   0  -1 -32    8.76    5.18
  -1   1 -32   10.38    4.74
   1  -1  32   27.74    8.98
   0   1  32   12.11    6.46
   0   1  29    7.80    6.12
   0  -1 -29   16.20    5.88
  -1   0  29   13.84    6.06
   1  -1  29   13.10    6.94
   1   0 -29   11.34    4.81
  -1   1 -29    4.20    3.96
   1   0 -26   15.68    5.04
   1  -1  26   18.47    6.83
   0   1  26   20.53    6.97
  -1   1 -26   19.81    5.44
   0  -1 -26   19.54    5.81
  -1   0  26   26.87    6.72
   0  -1 -23  106.03   10.97
  -1   1 -23  105.53   10.34
   0   1  23  106.61   10.80
  -1   0  23  109.39   10.08
   1  -1  23  126.62   11.91
   1   0 -23  100.02    9.66
   0  -1 -20   84.90    9.02
   1  -1  20  123.19   11.53
   0   1  20  107.25   10.97
  -1   1 -20   98.40    9.71
   1   0 -20   97.41    9.16
  -1   0  20  113.69   10.19
   0   1  17    3.10    6.39
   1  -1  17    8.01    6.28
  -1   1 -17    1.36    4.08
  -1   0  17   19.01    6.41
   1   0 -17    3.52    4.11
   0  -1 -17   -1.42    4.65
  -1   0  14  358.99   12.90
   1   0 -14  316.07   12.62
   0  -1 -14  322.06   14.02
  -1   1 -14  337.95   14.44
   1  -1  14  343.26   14.54
   0   1  14  330.98   14.04
  -1   0  11  158.85    7.74
   1  -1  11  145.17    8.63
   0   1  11  158.69    9.07
   1   0 -11  133.09    7.26
   0  -1 -11  133.07    8.29
  -1   1 -11  136.81    8.30
   0   1   8    0.62    3.78
   1  -1   8   -7.92    5.13
   0  -1  -8    8.29    3.61
   1   0  -8   -2.75    2.87
  -1   0   8    8.16    2.90
  -1   1  -8   -0.65    2.69
   0   1   5  506.87   10.83
   1  -1   5  522.90   11.39
   1  -1   2  541.84    8.91
   1  -1  -4  306.41    6.65
   0  -1   4  325.48    7.06
   0   1  -4  307.28    7.03
   1   0   4  314.02    8.39
   1   0   7  866.23   17.49
  -1   0  -7  829.20   17.31
   0   1  -7  839.62   14.96
   0  -1   7  850.31   14.75
   1  -1  -7  838.06   14.23
  -1   1   7  848.43   14.19
   1  -1 -10  156.04    7.92
   0  -1  10  144.93    7.62
  -1   0 -10  146.50    8.56
  -1   1  10  157.61    7.77
   0   1 -10  158.26    7.88
   1   0  10  163.15    9.52
  -1   0 -13   45.10    5.53
   1   0  13   62.00    7.35
  -1   1  13   51.83    5.80
   0  -1  13   41.38    5.17
   0   1 -13   47.35    5.19
   1  -1 -13   46.73    5.26
  -1   0 -16  123.03   10.10
   1   0  16  165.77   12.01
   0  -1  16  132.19    9.92
   1  -1 -16  127.28    9.21
  -1   1  16  153.85   10.37
   0   1 -16  133.68    9.47
   1  -1 -19   34.56    5.65
   0  -1  19   59.76    8.45
  -1   0 -19   66.17    8.55
  -1   1  19   55.26    8.01
   0   1 -19   49.97    6.97
   1   0  19   86.16   10.83
  -1   0 -22   39.55    6.95
  -1   1  22   44.73    7.53
   0   1 -22   39.55    6.63
   1  -1 -22   35.36    6.38
   1   0  22   47.30    8.62
   0  -1  22   46.97    8.59
  -1   0 -25    8.80    4.36
   0   1 -25    8.24    4.14
   0  -1  25   10.93    5.88
   1  -1 -25    7.94    4.04
  -1   1  25    4.28    4.79
   1   0  25   11.45    6.40
  -1   0 -28   21.89    6.34
   1   0  28   25.02    7.89
   0   1 -28   19.09    5.47
  -1   1  28   15.47    5.67
   0  -1  28   28.64    7.81
   1  -1 -28   24.87    6.18
   1   0  31    9.94    7.37
   0   1 -31    0.02    3.56
   1  -1 -31    1.27    3.76
  -1   1  31    7.55    6.06
  -1   0 -31    6.47    5.45
   0  -1  31    2.56    5.49
   0  -1  34   25.66    8.07
  -1   1  34   14.24    6.13
   1  -1 -34   17.16    6.24
   1   0  34   11.63    6.94
   0   1 -34   24.69    6.85
  -1   1  37   -0.11    5.39
   1   0  37   -0.68    5.55
   0  -1  37   -2.07    5.31
   1   0  40   -8.47    6.59
   0  -1  40   -3.35    5.41
  -1   1  40   -6.93    6.71
   0  -1  43   -4.86    5.12
   1   0  43   -5.34    5.86
   1  -2  42    5.48    6.02
   1   1  42   -4.34    6.14
   1  -2  39   68.11   11.37
   1   1  39   45.64   10.49
  -2   1  39   54.51    9.74
   2  -1 -36   -3.06    4.36
   1  -2  36    3.96    6.32
   1   1  36   -4.34    6.77
  -2   1  36   -1.36    5.26
   2  -1 -33    1.02    3.46
  -2   1  33   -3.74    5.82
  -1   2 -33   -4.15    5.20
   1  -2  33    8.70    7.50
   1   1  33   -4.10    6.80
   1  -2  30   14.92    7.24
   2  -1 -30   -2.78    3.97
   1   1  30   -1.25    6.53
  -1  -1 -30    2.89    3.61
  -1   2 -30   -2.12    4.10
  -2   1  30   -3.16    5.02
  -1  -1 -27   40.08    8.02
   1  -2  27   50.44    9.20
  -1   2 -27   33.95    6.96
   1   1  27   36.63    8.26
   2  -1 -27   35.35    6.69
  -2   1  27   29.81    6.27
  -2   1  24    1.04    4.11
   2  -1 -24    4.79    3.77
  -1  -1 -24    1.49    3.96
   1   1  24    3.18    5.20
   1  -2  24    3.63    5.41
  -1   2 -24    0.52    3.45
  -2   1  21   87.79    8.69
  -1   2 -21  110.54   10.30
   1  -2  21  101.14   10.45
  -1  -1 -21   85.43    9.83
   2  -1 -21  102.38    9.22
   1   1  21  108.96   11.13
   2  -1 -18  964.24   24.77
   1   1  18 1046.65   28.84
   1  -2  18  966.60   27.12
  -1  -1 -18  988.71   29.28
  -1   2 -18  980.41   27.69
  -2   1  18 1016.05   24.25
  -1  -1 -15    6.15    4.28
   2  -1 -15    6.38    3.31
   1   1  15   14.38    6.84
   1  -2  15   -1.28    6.11
  -1   2 -15   10.87    4.14
  -2   1  15   10.54    4.01
  -1   2 -12    2.03    2.63
  -1  -1 -12    3.24    2.67
  -2   1  12    2.02    2.64
   1   1  12    4.86    3.95
   2  -1 -12    0.31    2.05
   1  -2  12    7.54    3.75
  -2   1   9 1840.24   20.75
   1   1   9 1830.81   28.80
   1  -2   9 1809.74   26.88
  -1   2  -9 1796.14   27.27
  -1  -1  -9 1788.93   28.62
   2  -1  -9 1749.59   20.83
  -1   2  -6  419.34   11.81
   1  -2   6  433.65   11.77
   2  -1  -6  444.16    8.12
   1   1   6  454.25   12.71
   1  -2   3    5.19    1.70
   1   1   3    1.93    1.67
   2  -1   0  241.11    5.81
   2  -1   3  239.58    7.70
  -1  -1   6  238.81    6.21
   1  -2  -6  202.38    8.00
   2  -1   6  242.27    9.74
   1   1  -6  224.95    6.29
  -1  -1   9 1875.72   21.83
   2  -1   9 1908.91   29.97
   1  -2  -9 1823.16   26.23
  -1   2   9 1856.24   26.53
  -2   1  -9 1799.56   29.17
   1   1  -9 1825.18   22.36
  -1   2  12  281.54   11.79
  -2   1 -12  303.64   13.44
  -1  -1  12  276.93   10.25
   2  -1  12  274.89   12.83
   1  -2 -12  272.46   11.64
   1   1 -12  262.29   10.29
  -1   2  15  173.69   10.58
   1   1 -15  170.07    9.65
   1  -2 -15  185.11   11.30
   2  -1  15  182.28   12.13
  -1  -1  15  176.85    9.68
  -2   1 -15  179.57   11.81
   1  -2 -18   28.05    6.43
  -1   2  18   15.29    5.85
  -2   1 -18   25.53    5.94
   2  -1  18   23.39    7.59
   1   1 -18   25.93    5.12
  -1  -1  18   39.30    7.02
   1  -2 -21   -4.86    4.93
  -1   2  21   -2.16    5.17
   1   1 -21   -1.43    3.35
  -1  -1  21    7.05    5.88
  -2   1 -21   -1.31    4.01
   2  -1  21    6.67    6.30
   2  -1  24    8.73    6.32
   1  -2 -24    2.58    3.87
  -1  -1  24   12.79    5.67
  -2   1 -24    6.49    4.13
   1   1 -24    3.37    3.38
  -1   2  24   -1.13    5.25
   1   1 -27   13.93    4.53
   1  -2 -27    1.63    4.53
  -2   1 -27   17.08    5.84
  -1  -1  27   22.41    6.36
  -1   2  27   13.43    5.66
   2  -1  27   15.50    7.27
  -2   1 -30    8.77    5.39
   1   1 -30    7.79    4.66
   2  -1  30   10.64    6.79
  -1   2  30    1.91    5.82
  -1  -1  30   11.55    6.15
   1  -2 -30   10.56    5.08
   2  -1  33   15.92    7.62
   1   1 -33   10.04    4.77
   1  -2 -33   15.10    5.68
  -1  -1  33   14.12    6.63
  -1   2  33   -0.78    5.96
  -1   2  36   39.60    8.94
   1   1 -36   46.71    8.72
   2  -1  36   71.39   12.01
  -1  -1  36   59.84   10.14
  -1  -1  39   -0.83    5.25
   2  -1  39    1.84    6.41
  -1  -1  42    5.46    5.34
   2  -1  42   10.25    7.21
   2  -2  43    0.41    5.41
   0   2  40    8.00    5.43
   2  -2  40   23.26    8.57
  -2   0  40   13.58    5.78
   2  -2  37   15.23    7.73
   0   2  37    6.75    6.62
   2   0 -37    7.03    4.14
  -2   0  37    0.33    4.87
   0   2  34   27.39    8.26
   2  -2  34   45.82   10.35
  -2   0  34   44.72    8.43
   2   0 -34   38.18    7.67
   2   0 -31   24.55    6.23
   2  -2  31   36.19    9.61
   0   2  31   21.79    7.06
  -2   0  31   27.96    6.65
  -2   2 -31   21.11    6.72
   0  -2 -31   17.03    6.15
   0   2  28   23.61    7.44
   2   0 -28   30.61    6.21
  -2   2 -28   25.43    6.63
   2  -2  28   36.19    8.90
   0  -2 -28   19.32    5.58
  -2   0  28   33.54    7.34
   0  -2 -25   30.50    6.29
   0   2  25   35.01    7.53
  -2   2 -25   33.20    7.02
  -2   0  25   43.73    6.93
   2  -2  25   40.56    8.22
   2   0 -25   33.98    6.16
  -2   2 -22  615.23   25.12
   0  -2 -22  638.81   25.27
  -2   0  22  629.66   20.58
   2  -2  22  616.67   24.78
   2   0 -22  611.98   21.52
   0   2  22  600.60   23.79
   2  -2  19   50.87    8.30
   0  -2 -19   51.51    8.01
   0   2  19   49.44    7.97
  -2   0  19   59.47    7.24
   2   0 -19   48.44    6.36
  -2   2 -19   60.29    8.06
   0  -2 -16  462.28   18.59
   2   0 -16  457.76   15.06
  -2   2 -16  451.71   18.51
   0   2  16  437.24   17.81
   2  -2  16  439.43   18.33
  -2   0  16  437.09   14.25
  -2   0  13  344.63   11.11
   0   2  13  342.65   14.45
  -2   2 -13  370.52   15.38
   2  -2  13  354.39   14.79
   0  -2 -13  364.41   14.75
   2   0 -13  332.96   11.32
   0   2  10   -1.43    3.14
  -2   2 -10   -1.76    2.93
   0  -2 -10    2.04    3.12
  -2   0  10    7.28    2.49
   2  -2  10    5.45    3.98
   2   0 -10    1.08    1.77
  -2   2  -7 3020.29   35.25
   2  -2   7 3146.62   34.76
   0  -2  -7 3032.75   33.72
   0   2   7 3205.94   33.90
   2  -2   4 1159.70   18.72
   2  -2   1 1838.54   20.38
   2   0   2 1193.86   15.85
   2   0   5  142.90    7.32
   0  -2   5  136.72    5.94
   2   0   8 1733.88   27.60
   0  -2   8 1713.96   23.11
   2  -2  -8 1659.77   21.98
   0   2  -8 1689.78   23.40
   0  -2  11 1868.99   27.40
   2   0  11 1821.48   31.83
   2  -2 -11 1744.01   26.67
  -2   0 -11 1849.24   32.96
   0   2 -11 1866.63   28.07
   2  -2 -14  417.37   14.50
  -2   2  14  429.34   14.57
  -2   0 -14  441.40   17.87
   2   0  14  414.74   17.28
   0  -2  14  397.74   14.73
   0   2 -14  422.80   15.11
  -2   2  17   86.04    8.46
   0  -2  17   88.03    8.32
   2  -2 -17   93.74    8.36
   2   0  17  116.31   12.24
   0   2 -17  102.42    8.91
  -2   0 -17  102.67   10.28
  -2   2  20   -2.06    5.18
   2  -2 -20    0.02    4.53
   0   2 -20    6.52    3.75
   0  -2  20    5.81    5.03
  -2   0 -20   12.67    5.67
  -2   2  23    8.73    5.06
   0  -2  23   15.31    5.61
   0   2 -23   10.41    3.88
   2   0  23   24.20    7.24
  -2   0 -23   12.92    4.76
   2  -2 -23    5.01    3.89
   0  -2  26   22.44    7.11
   0   2 -26   18.28    5.08
  -2   0 -26   19.00    5.68
   2   0  26   23.72    7.54
  -2   2  26   13.54    5.03
   2  -2 -26   14.27    4.51
   0  -2  29   18.99    6.99
   2   0  29   10.20    7.06
   2  -2 -29    7.57    4.26
  -2   0 -29    2.59    3.90
   0   2 -29    2.79    3.60
  -2   2  29   -4.52    5.80
  -2   0 -32   -1.20    4.01
  -2   2  32   -6.56    6.92
   2   0  32    5.35    6.75
   0   2 -32   -3.24    4.72
   2  -2 -32    1.29    4.00
   0  -2  32    2.69    5.99
  -2   2  35   27.89    7.13
   2  -2 -35   30.04    7.41
   0  -2  35   42.58    9.27
   2   0  35   38.95    9.93
   0   2 -35   36.22    8.06
   0  -2  38   48.83    9.74
   2   0  38   45.36   10.10
   0  -2  41   20.26    7.89
   2   0  41   17.13    7.40
   2   0  44    5.27    6.61
   0  -2  44    7.77    5.54
   1  -3  43    1.65    4.86
   2   1  43  -10.69    7.24
   2   1  40   -2.95    6.39
   1  -3  40    3.45    5.61
   3  -2 -37    0.33    4.23
   1  -3  37    3.87    6.57
   2   1  37   -2.24    5.92
  -1   3 -34    0.57    3.41
   3  -2 -34    3.12    3.89
   1  -3  34   13.44    7.42
   2   1  34   -2.11    5.93
   2   1  31    6.78    6.85
   3  -2 -31    7.59    4.42
  -2  -1 -31    1.60    4.09
   1  -3  31   13.64    7.85
  -1   3 -31    4.29    4.21
  -3   2  28    5.16    4.64
   1  -3  28    9.01    6.20
  -1   3 -28    5.05    4.17
  -2  -1 -28    6.76    5.00
   3  -2 -28    4.60    3.94
   2   1  28    5.93    6.51
  -3   2  25   -4.35    4.50
   2   1  25    1.24    6.11
  -2  -1 -25    1.60    3.78
  -1   3 -25   -2.32    3.89
   3  -2 -25   -4.59    4.47
   1  -3  25    0.63    4.71
  -3   2  22   -6.06    5.03
   2   1  22    6.51    6.69
   1  -3  22   -3.03    5.72
   3  -2 -22   -3.07    4.38
  -1   3 -22    4.73    3.92
  -2  -1 -22  -11.15    6.25
   2   1  19  127.75   12.11
  -1   3 -19  113.31   10.13
  -3   2  19  108.92    8.80
  -2  -1 -19  115.11   11.25
   3  -2 -19  119.42    9.23
   1  -3  19  119.66    9.95
  -2  -1 -16  453.87   19.93
   3  -2 -16  429.97   15.35
   1  -3  16  492.08   18.19
  -1   3 -16  473.61   18.42
   2   1  16  449.90   19.64
   2   1  13   30.02    6.86
   1  -3  13   29.01    5.25
   3  -2 -13   39.76    4.78
  -1   3 -13   32.37    5.09
  -2  -1 -13   26.08    5.00
   1  -3  10  211.07   10.13
  -1   3 -10  214.99   10.29
  -2  -1 -10  210.83   11.19
   2   1  10  208.30   11.30
   3  -2 -10  202.70    7.87
  -1   3  -7   15.76    3.28
   2   1   7   23.85    5.09
   1  -3   7   18.49    3.89
   2   1   4 1488.89   22.16
  -2  -1  -1   78.69    4.67
   3  -2  -1   77.00    4.41
   2   1   1   70.90    4.42
   3  -2   2  274.74    9.22
   3  -2   5  131.32    7.88
   1  -3  -8 4787.20   45.23
  -2  -1   8 4852.34   27.86
   3  -2   8 4891.13   48.87
   2   1  -8 4869.83   28.90
   2   1 -11  297.00    9.27
   3  -2  11  320.70   14.16
   1  -3 -11  328.17   13.18
  -3   2 -11  287.81   13.51
  -2  -1  11  317.59    9.14
   1  -3 -14  536.86   18.61
   2   1 -14  527.65   14.45
  -3   2 -14  496.87   19.39
   3  -2  14  506.07   19.42
  -2  -1  14  517.57   13.82
  -1   3  14  503.01   18.13
  -2  -1  17  108.01    8.21
   1  -3 -17  142.98   11.50
   3  -2  17  102.97   10.68
  -3   2 -17  122.33   10.90
   2   1 -17  113.36    7.97
  -1   3  17  115.42   10.31
  -3   2 -20  170.45   13.50
  -2  -1  20  190.95   11.24
   3  -2  20  164.86   13.76
  -1   3  20  164.95   12.31
   1  -3 -20  180.76   13.23
   2   1 -20  163.27   10.59
   1  -3 -23  185.91   14.00
  -3   2 -23  175.04   14.36
   2   1 -23  179.29   11.98
   3  -2  23  183.73   14.95
  -1   3  23  181.67   13.52
  -2  -1  23  191.43   12.05
  -1   3  26   86.95   10.69
   1  -3 -26   74.13   10.03
   2   1 -26   66.72    8.19
  -3   2 -26   67.06    9.68
   3  -2  26   73.68   11.04
  -2  -1  26   84.76    8.92
   1  -3 -29   75.48   10.44
  -2  -1  29   98.64   10.49
   3  -2  29   97.37   12.99
  -3   2 -29   89.86   12.02
   2   1 -29   80.09    9.75
  -1   3  29   83.42   10.63
  -2  -1  32   48.75    8.38
   2   1 -32   29.88    6.74
  -1   3  32   12.31    6.37
   3  -2  32   51.13   11.11
   1  -3 -32   25.97    7.22
  -2  -1  35    2.47    5.00
   2   1 -35   -2.52    3.94
   3  -2  38    3.28    6.98
  -2  -1  38    0.23    4.35
   2   1 -38    0.60    3.05
   3  -2  41   14.27    7.76
  -2  -1  41   -0.98    4.46
  -2  -1  44    7.55    5.47
   3  -2  44    2.54    5.94
   2  -3  44   -5.63    6.05
   1   2  41  -11.49    7.39
   2  -3  41    7.05    6.74
   1   2  38   -5.02    6.64
   3  -1 -38   -1.42    3.37
   2  -3  38    8.65    6.90
  -3   1  35   40.64    7.76
   3  -1 -35   37.83    7.41
   1   2  35   46.41    9.91
   2  -3  35   57.76   11.23
   2  -3  32   11.89    7.57
  -2   3 -32    0.13    3.86
  -3   1  32   -4.22    5.04
   3  -1 -32   -0.72    3.32
   1   2  32   -0.63    6.01
   3  -1 -29   65.95    8.60
  -1  -2 -29   61.44    9.63
  -2   3 -29   59.90    9.54
  -3   1  29   49.73    7.43
   2  -3  29   54.81   10.32
   1   2  29   47.69    9.55
  -1  -2 -26  132.21   13.31
  -3   1  26  116.05   10.09
   2  -3  26  144.97   13.52
  -2   3 -26  143.17   13.50
   3  -1 -26  124.35   10.57
   1   2  26  146.89   13.91
  -1  -2 -23    9.83    4.70
   2  -3  23    6.39    5.22
   1   2  23   13.83    6.85
   3  -1 -23   15.71    4.25
  -2   3 -23   13.77    5.02
  -3   1  23   12.17    4.14
  -1  -2 -20    8.20    4.63
  -3   1  20   14.95    4.37
   1   2  20   13.59    7.13
  -2   3 -20   17.32    4.91
   3  -1 -20   19.77    4.51
   2  -3  20    8.01    6.05
  -2   3 -17  784.29   25.14
   1   2  17  783.71   25.49
   2  -3  17  718.83   24.06
   3  -1 -17  786.57   19.84
  -3   1  17  753.02   18.68
  -1  -2 -17  788.78   25.94
  -3   1  14  546.10   13.66
   1   2  14  537.08   19.96
   3  -1 -14  535.83   14.45
  -2   3 -14  546.67   19.61
  -1  -2 -14  542.87   19.89
   2  -3  14  529.49   19.02
   2  -3  11 1059.41   24.17
   3  -1 -11 1036.10   16.33
  -2   3 -11 1020.31   24.14
   1   2  11 1070.86   24.44
  -1  -2 -11 1043.54   24.73
   1   2   8 2081.85   30.80
   2  -3   8 2049.22   30.81
  -2   3  -8 2028.96   31.12
   3  -1  -8 1992.09   17.35
   2  -3   5  721.12   16.74
   1   2   5  689.88   15.90
  -3   1  -1 1065.97   15.96
   3  -1   1 1039.33   15.64
   3  -1   4   11.59    4.21
  -1  -2   7  988.34   15.30
   3  -1   7  979.90   21.37
  -1  -2  10  844.71   16.24
   1   2 -10  827.55   16.56
   2  -3 -10  866.16   18.99
   3  -1  10  867.65   22.53
  -3   1 -10  855.65   22.32
  -3   1 -13    8.29    4.41
   1   2 -13    6.80    2.84
  -1  -2  13    5.97    3.48
   2  -3 -13   12.26    4.28
   3  -1  13   -0.21    5.46
   3  -1  16  651.97   23.75
   1   2 -16  669.44   19.31
   2  -3 -16  692.54   21.14
  -3   1 -16  705.17   24.33
  -1  -2  16  669.40   18.94
   2  -3 -19  391.94   17.51
  -1  -2  19  378.39   15.75
   1   2 -19  379.01   16.23
  -3   1 -19  405.43   20.26
   3  -1  19  393.54   20.29
  -2   3  22  113.73   10.07
  -3   1 -22  129.66   12.42
   1   2 -22  117.45    9.90
   3  -1  22  127.53   12.74
   2  -3 -22  134.95   11.48
  -1  -2  22  132.32   10.27
  -1  -2  25   58.80    8.47
   2  -3 -25   53.18    8.03
   1   2 -25   60.27    7.83
   3  -1  25   71.60   10.85
  -3   1 -25   64.47    9.63
  -2   3  25   59.52    8.13
   2  -3 -28   -5.52    5.71
  -3   1 -28    5.12    4.38
   3  -1  28   12.11    7.12
  -1  -2  28   14.68    6.16
   1   2 -28   -1.32    3.41
   3  -1  31    1.91    7.01
  -1  -2  31    5.13    6.10
   1   2 -31   -0.06    3.44
   2  -3 -31  -10.38    6.15
  -3   1 -31   -1.53    4.23
   1   2 -34   25.91    6.67
   3  -1  34   22.53    8.11
  -1  -2  34   25.52    7.41
   2  -3 -34   20.33    6.45
  -1  -2  37    8.61    5.90
   3  -1  37   12.69    8.22
   1   2 -37    8.42    5.17
   3  -1  40   12.84    7.82
  -1  -2  40   14.88    6.53
   3  -1  43    2.40    6.64
  -1  -2  43   -5.81    5.31
   3  -3  42    8.32    7.48
  -3   0  39    4.64    4.64
   3  -3  39   19.80    8.72
   0   3  36   -8.14    7.03
   3   0 -36   -4.69    4.09
  -3   0  36   -7.82    5.36
  -3   0  33   11.03    5.17
   3   0 -33   14.69    5.07
   0   3  33    1.72    6.42
  -3   0  30   26.85    6.33
   0   3  30   10.14    6.11
   3   0 -30   29.84    6.29
  -3   3 -30   30.46    7.58
   0  -3 -30   19.75    5.58
   3  -3  30   27.50    9.31
   0   3  27   49.12    8.79
   3   0 -27   50.28    7.15
   0  -3 -27   44.05    8.28
   3  -3  27   64.09   10.39
  -3   3 -27   53.01    9.13
  -3   0  27   53.73    7.30
   3   0 -24   71.20    7.67
  -3   3 -24   83.07   10.41
   0   3  24   82.32   10.24
   3  -3  24   69.98    9.98
  -3   0  24   76.61    8.17
   0  -3 -24   83.00   10.38
   3   0 -21   48.64    5.85
  -3   0  21   52.16    6.49
   0   3  21   50.08    7.83
  -3   3 -21   49.00    7.92
   3  -3  21   42.06    7.54
   0  -3 -21   55.45    8.26
   0  -3 -18   83.98    9.79
   3   0 -18   69.24    6.38
  -3   3 -18   73.16    9.03
   0   3  18   59.54    8.54
   3  -3  18   48.10    7.63
  -3   0  18   76.38    6.74
   3  -3  15  139.22   11.57
   3   0 -15  140.38    7.52
  -3   3 -15  130.49   10.73
   0   3  15  122.24   10.54
  -3   0  15  141.71    7.68
   0  -3 -15  172.54   12.19
   0   3  12  100.30    8.84
  -3   0  12  113.76    5.45
  -3   3 -12  108.21    8.78
   3   0 -12  107.34    5.26
   3  -3  12  109.29    9.04
   0  -3 -12  118.09    9.38
   3  -3   9   13.08    3.97
   0  -3  -9   14.73    3.71
  -3   3  -9   13.61    3.76
   3  -3   6   21.84    4.67
   3  -3   3   30.34    4.80
  -3   0   0  149.67    5.86
   3   0   0  174.00    6.34
  -3   0  -3   38.80    4.44
   3   0   3   45.75    5.25
   0  -3   6  434.62   12.29
   3   0   6  442.73   14.54
   0   3  -9  226.42    9.67
   0  -3   9  226.44    9.67
   3   0   9  243.94   12.18
  -3   0 -12   32.06    5.28
   3   0  12   46.93    7.43
   0  -3  12   33.84    4.56
   3  -3 -12   39.57    4.61
   0   3 -12   40.84    5.04
   0   3 -15    2.43    3.37
  -3   0 -15   -9.91    5.50
   3  -3 -15    4.51    4.29
   0  -3  15    2.51    4.18
   0   3 -18  150.29   10.63
   3   0  18  210.87   15.54
  -3   0 -18  157.41   12.63
   0  -3  18  132.57   10.19
   3  -3 -18  186.92   11.56
   0   3 -21  106.91    9.73
   0  -3  21   96.69    9.51
   3   0  21  126.02   12.87
   3  -3 -21  113.27    9.96
  -3   0 -21  109.72   11.53
   3   0  24   37.76    9.02
   3  -3 -24   25.33    5.47
   0  -3  24   31.28    6.63
   0   3 -24   37.48    6.46
  -3   0 -24   37.95    7.87
   3  -3 -27   18.68    5.13
   3   0  27   40.27    9.68
   0  -3  27   36.92    7.43
  -3   0 -27   33.26    7.77
   0   3 -27   32.21    6.31
   3  -3 -30   -6.38    5.23
   3   0  30    8.67    7.67
  -3   0 -30   -2.00    3.83
   0  -3  30   13.65    6.89
   0   3 -30    5.05    4.05
   0  -3  33   57.15   10.33
   0   3 -33   49.86    8.79
   3  -3 -33   52.07    8.92
   3   0  33   63.12   12.01
   0   3 -36   57.30    9.64
   0  -3  36   58.75   10.12
   3  -3 -36   58.33    9.89
   3   0  36   62.48   11.80
   3   0  39   14.17    7.68
   0  -3  39   15.59    7.25
   0  -3  42    2.47    4.96
   3   0  42    0.56    5.60
   3   1  41   -5.44    6.18
   1  -4  41   -6.65    5.98
   1  -4  38    6.47    6.49
   3   1  38   -3.48    5.95
  -1   4 -35   43.47    8.93
   1  -4  35   47.40   10.53
   4  -3 -35   46.50    8.46
   3   1  35   40.67   10.27
  -1   4 -32   -0.52    3.83
   1  -4  32    5.79    6.43
   4  -3 -32   -0.10    3.43
   3   1  32   -0.65    6.70
   1  -4  29   71.96   10.42
  -1   4 -29   79.74   10.58
  -3  -1 -29   77.53   11.77
   4  -3 -29   63.79    8.44
   3   1  29   78.22   12.67
  -1   4 -26   82.97   10.31
   1  -4  26   87.54   10.22
   3   1  26   98.42   12.90
   4  -3 -26   82.38    8.90
  -3  -1 -26   92.23   11.86
   1  -4  23   80.66    9.39
  -1   4 -23   97.33   10.12
  -3  -1 -23   93.60   11.14
   4  -3 -23   92.29    8.87
   3   1  23   95.94   12.15
   1  -4  20   29.16    6.49
  -3  -1 -20   23.42    5.93
   3   1  20   44.00    9.30
   4  -3 -20   34.12    5.61
  -1   4 -20   30.85    5.91
   4  -3 -17  970.51   23.25
   3   1  17 1021.56   30.38
  -3  -1 -17 1021.43   31.27
  -1   4 -17  985.43   27.70
   1  -4  17 1003.49   26.77
   3   1  14   39.64    8.22
   1  -4  14   24.69    5.27
  -1   4 -14   26.01    5.00
   4  -3 -14   32.65    4.94
  -3  -1 -14   27.41    6.17
   4  -3 -11  266.04    9.68
   1  -4  11  278.17   12.37
  -1   4 -11  265.06   12.31
   3   1  11  287.90   14.23
   3   1   8 1174.58   25.27
   1  -4   8 1192.79   23.85
   3   1   5  136.29    8.82
  -3  -1  -2  835.10   16.81
   3   1   2  855.27   16.73
  -4   3  -1 3728.14   37.41
   4  -3   1 3746.99   37.14
   3   1  -1 3855.54   28.41
   4  -3   4 9999.00   67.20
   4  -3   7  371.69   14.51
  -3  -1  10   89.31    3.81
   4  -3  10   88.28    8.51
   1  -4 -10   88.47    7.40
  -4   3 -10   88.49    8.02
   4  -3  13  122.67   10.81
   3   1 -13  101.66    5.59
   1  -4 -13  106.63    9.28
  -4   3 -13  112.11    9.69
  -3  -1  13  101.39    5.62
  -3  -1  16  723.47   16.54
   3   1 -16  757.43   17.58
   1  -4 -16  816.97   25.41
  -4   3 -16  773.15   26.70
   4  -3  16  770.24   26.20
   4  -3  19   -6.02    7.37
   1  -4 -19   12.31    5.59
  -4   3 -19    3.93    3.76
   3   1 -19   -2.57    2.97
  -3  -1  19   12.41    4.54
  -4   3 -22    3.58    4.13
  -3  -1  22    8.21    4.37
   4  -3  22    3.84    5.37
   1  -4 -22   10.57    5.25
   3   1 -22    4.68    2.82
   1  -4 -25  151.85   13.63
   3   1 -25  146.10   10.80
  -4   3 -25  142.99   13.97
  -3  -1  25  139.45   10.44
   4  -3  25  164.66   15.02
   1  -4 -28  220.59   17.49
   3   1 -28  194.68   13.53
   4  -3  28  188.58   16.89
  -3  -1  28  210.80   13.42
  -4   3 -28  218.82   18.05
   3   1 -31   65.51    8.59
  -3  -1  31   67.36    8.55
   1  -4 -31   62.93   10.33
   4  -3  31   78.79   12.68
   3   1 -34   19.14    5.60
   4  -3  34   27.28    9.19
  -3  -1  34   15.65    5.42
  -3  -1  37   30.63    6.83
   3   1 -37   30.36    6.83
   4  -3  37   34.12    9.96
   4  -3  40    2.91    6.63
  -3  -1  40   -3.38    4.67
   4  -3  43    6.04    6.53
   2   2  42   -5.28    6.30
   2  -4  42    0.01    5.32
   2  -4  39   16.43    8.07
   2   2  39  -10.16    7.39
   4  -2 -36   -0.52    3.42
   2   2  36   -6.18    7.31
   4  -2 -33   11.04    5.16
  -2   4 -33    5.56    4.64
   2  -4  33   12.06    7.63
   2   2  33    5.90    6.60
  -2   4 -30   22.78    6.44
  -2  -2 -30   27.25    7.60
   2   2  30   28.79    8.74
   4  -2 -30   28.40    6.09
   2  -4  30   22.85    7.60
  -2   4 -27    9.19    4.71
   4  -2 -27   13.85    4.73
  -2  -2 -27   -3.83    5.39
   2  -4  27    8.18    5.45
   2   2  27    4.35    6.38
  -2   4 -24    8.26    4.57
   4  -2 -24    1.95    3.37
   2  -4  24    4.99    5.63
   2   2  24    1.68    5.77
  -2  -2 -24    7.89    4.42
   4  -2 -21   62.49    6.60
  -2   4 -21   65.18    8.62
   2   2  21   67.54    9.89
  -2  -2 -21   76.47    9.75
   2  -4  21   46.10    7.16
  -2  -2 -18    6.45    5.36
   2  -4  18   11.85    6.01
  -2   4 -18    8.60    4.45
   2   2  18    4.22    7.14
   4  -2 -18    6.30    3.39
   4  -2 -15    9.28    3.79
  -2  -2 -15    2.60    4.89
  -2   4 -15   -0.82    3.79
   2   2  15    3.05    6.16
   2  -4  15    0.70    4.96
  -2  -2 -12    8.47    3.69
  -2   4 -12    0.74    2.81
   4  -2 -12    4.52    2.28
   2  -4  12   -3.63    4.51
   2   2  12    3.84    5.72
   2   2   9   45.20    6.28
   2  -4   9   42.15    5.67
  -2   4  -9   38.59    4.99
   2   2   6  382.67   13.63
   2  -4   6  386.45   13.71
   4  -2  -3    0.36    1.90
  -2  -2  -3   -0.82    3.05
   2   2   3   -4.32    3.83
  -4   2   0 4388.07   36.07
   4  -2   0 4483.44   35.34
  -4   2  -3 1296.10   22.58
   4  -2   3 1329.68   22.33
   4  -2   6 2801.75   36.82
  -2  -2   9  203.74    7.03
   4  -2   9  201.49   11.73
   2   2 -12   20.07    3.16
  -4   2 -12   23.27    4.90
  -2  -2  12   21.35    3.19
   4  -2  12   15.17    5.59
   2  -4 -12   20.70    4.61
   2  -4 -15   14.77    5.67
   2   2 -15   10.99    3.30
  -2  -2  15   -3.55    4.09
   4  -2  15   -0.79    7.92
  -4   2 -15   10.65    5.54
  -2  -2  18   18.84    4.52
   2  -4 -18   25.85    6.53
   4  -2  18   19.58    6.94
   2   2 -18   23.08    4.39
  -4   2 -18   20.50    5.92
   4  -2  21   25.24    7.39
  -2  -2  21   28.46    5.42
  -4   2 -21   28.93    6.84
   2   2 -21   31.37    5.22
   2  -4 -21   37.79    7.25
  -4   2 -24  231.35   17.40
   2  -4 -24  229.78   15.63
   4  -2  24  217.80   16.86
  -2  -2  24  228.82   13.55
   2   2 -24  230.99   13.50
  -4   2 -27   22.21    6.84
   2  -4 -27   28.69    6.76
   2   2 -27   26.29    5.34
   4  -2  27   40.74    9.37
  -2  -2  27   43.06    7.76
  -2  -2  30   28.09    7.06
   4  -2  30   28.36    9.67
   2  -4 -30   11.17    5.45
  -4   2 -30   15.94    6.25
   2   2 -30   14.82    4.90
   2   2 -33    3.75    3.50
   2  -4 -33   -1.40    5.45
  -2  -2  33    7.71    5.29
  -2  -2  36    6.12    4.92
   4  -2  36   16.51    8.17
   2   2 -36    7.79    4.40
  -2  -2  39    4.13    4.90
   4  -2  39   10.10    7.22
   4  -2  42    0.43    6.27
  -2  -2  42   -2.18    4.30
   3  -4  43    2.49    5.57
   3  -4  40    7.81    7.10
   4  -1 -37   29.38    7.14
   3  -4  37   37.53   10.30
   1   3  37   22.18    8.16
   4  -1 -34    1.13    3.33
   1   3  34   -0.43    6.52
   3  -4  34   13.70    8.65
  -3   4 -31   30.40    7.73
   4  -1 -31   27.18    5.79
   3  -4  31   28.62    8.61
   1   3  31   31.63    8.33
  -4   1  28   26.01    5.44
   3  -4  28   26.20    7.44
   4  -1 -28   33.43    6.06
  -1  -3 -28   22.13    7.06
   1   3  28   35.04    8.15
  -3   4 -28   40.69    8.36
  -1  -3 -25    3.28    4.36
  -3   4 -25    9.39    4.66
   3  -4  25    5.04    5.55
   4  -1 -25   12.68    3.80
   1   3  25   10.89    5.90
  -4   1  25    5.95    3.65
   4  -1 -22    3.35    2.78
  -4   1  22   -5.26    3.80
   3  -4  22   -3.61    6.71
   1   3  22   -1.95    6.40
  -3   4 -22    2.94    3.44
  -1  -3 -22    1.11    4.69
  -4   1  19   67.19    5.95
   4  -1 -19   69.70    6.40
   3  -4  19   75.98    9.97
  -3   4 -19   69.60    9.23
  -1  -3 -19   71.22    9.50
   1   3  19   50.06    8.99
   1   3  16  372.71   18.04
   3  -4  16  392.99   18.60
  -1  -3 -16  427.47   19.65
  -3   4 -16  423.35   19.13
   4  -1 -16  366.73   11.95
   3  -4  13  114.55    9.92
  -3   4 -13  102.93    9.21
   1   3  13  105.42    9.70
  -1  -3 -13  119.12   10.17
   4  -1 -13  100.37    5.47
   1   3  10  161.69   10.47
   3  -4  10  166.17   10.43
   4  -1 -10  155.65    4.91
  -1  -3 -10  164.52   10.30
  -3   4 -10  173.26   10.65
  -3   4  -7   37.29    4.94
   3  -4   7   49.88    6.22
   3  -4   4  160.75    9.19
   4  -1  -1  498.35   10.67
  -4   1   1  484.47   10.80
   4  -1   2 4030.28   36.54
  -4   1  -2 4036.59   37.29
   4  -1   5   -1.44    5.02
  -1  -3   8  376.23   11.25
   4  -1   8  367.15   14.87
  -1  -3  11  290.53   10.80
   4  -1  11  298.87   14.82
  -1  -3  14   84.52    6.98
  -4   1 -14   81.87    9.45
   3  -4 -14   84.52    7.62
   4  -1  14   82.47   10.24
   1   3 -14   88.86    7.11
   4  -1  17  152.20   13.34
   1   3 -17  140.21    9.63
  -1  -3  17  135.74    9.79
  -4   1 -17  147.08   12.54
   3  -4 -17  156.38   10.92
   3  -4 -20   88.25    9.48
  -4   1 -20  101.13   11.16
   4  -1  20  107.82   12.59
  -1  -3  20   75.94    7.72
   1   3 -20   81.57    8.06
   4  -1  23   23.92    8.22
   3  -4 -23   20.28    5.70
  -4   1 -23   15.56    5.52
  -1  -3  23   17.13    5.10
   1   3 -23   19.36    4.72
  -4   1 -26   15.05    5.83
   4  -1  26   30.12    9.29
   1   3 -26   11.25    4.13
   3  -4 -26    9.19    4.54
  -1  -3  26   22.20    6.19
  -1  -3  29   64.58    9.50
  -4   1 -29   49.09    9.37
   1   3 -29   50.68    7.95
   4  -1  29   72.67   12.22
   3  -4 -29   45.45    8.24
   1   3 -32   30.48    6.92
   3  -4 -32   23.44    6.73
   4  -1  32   47.15   10.74
  -1  -3  32   49.63    9.19
   1   3 -35    9.50    4.89
   3  -4 -35   24.39    7.14
  -1  -3  35   14.55    7.12
   4  -1  35   29.44    9.75
  -1  -3  38    7.75    5.79
   4  -1  38    4.99    7.13
   4  -1  41    0.66    5.96
  -1  -3  41    2.53    5.57
   4  -4  41   21.15    8.71
   4  -4  38   38.67   10.51
   4   0 -35   40.24    7.39
   4  -4  35   51.12   11.32
  -4   0  35   37.81    7.04
   4   0 -32  157.82   13.10
   4  -4  32  156.94   16.51
  -4   0  32  144.40   11.78
   4  -4  29    2.84    6.04
  -4   4 -29    3.31    4.15
   0  -4 -29   -2.40    5.54
  -4   0  29   -1.76    4.13
   4   0 -29   -2.99    3.33
   0  -4 -26   12.15    5.51
   0   4  26    7.53    6.07
  -4   4 -26   15.29    5.53
  -4   0  26   11.63    3.80
   4   0 -26   14.07    3.99
   4  -4  26   22.70    7.51
   0   4  23   -8.30    7.45
   4   0 -23    1.69    2.36
  -4   4 -23    0.34    3.44
   4  -4  23  -11.71    7.42
  -4   0  23   -2.53    3.37
   0  -4 -23    2.99    5.03
   0   4  20   83.15    9.98
   4   0 -20   90.51    6.87
   4  -4  20   74.61    9.78
  -4   0  20   89.36    6.68
  -4   4 -20   95.76   10.70
   0  -4 -20   98.85   10.91
   4   0 -17   16.11    3.20
   4  -4  17   32.38    8.57
  -4   0  17   17.59    3.60
  -4   4 -17   23.28    6.39
   0  -4 -17   25.88    6.71
   0  -4 -14   13.46    6.13
   4   0 -14   12.52    2.41
  -4   4 -14   17.83    5.62
   4  -4  14   17.39    6.00
  -4   0  14   13.63    2.56
   4  -4  11    0.82    4.40
  -4   4 -11    2.73    3.09
   0  -4 -11    0.68    3.15
   4  -4   8    2.20    3.19
   4  -4   5  189.90   10.69
   4   0  -2   99.11    4.86
   4  -4   2   85.42    7.25
  -4   0   2   75.82    4.11
  -4   0  -1  882.47   16.90
   4   0   1  884.29   16.65
   4   0   4  998.91   20.83
  -4   0  -4 1008.51   21.33
   4   0   7  726.19   20.00
   0  -4  10  145.77    8.72
   4   0  10  149.15   11.22
   4  -4 -13  110.22    8.01
   4   0  13  125.76   11.94
   0   4 -13  123.86    8.66
   0  -4  13   98.78    8.02
   0  -4  16    2.25    4.45
   0   4 -16    1.80    3.42
   4  -4 -16   -0.19    4.01
   0   4 -19   52.67    7.07
   0  -4  19   58.96    7.75
  -4   0 -19   59.46    9.18
   4   0  19   72.13   10.49
   4  -4 -19   60.08    7.41
   0  -4  22  497.26   20.77
   4  -4 -22  495.77   20.23
   4   0  22  510.31   24.52
  -4   0 -22  566.36   26.17
   0   4 -22  498.57   21.28
   4  -4 -25  562.73   23.11
   0   4 -25  549.36   23.56
   0  -4  25  541.12   23.09
  -4   0 -25  565.66   28.01
   4   0  25  540.64   26.38
  -4   0 -28   63.85   10.57
   0  -4  28   72.70    9.88
   4  -4 -28   67.86    9.07
   0   4 -28   72.72    9.56
   4   0  28   71.34   12.12
   4  -4 -31   -6.87    5.60
   0  -4  31    9.94    6.17
   4   0  31    7.59    7.58
   0   4 -31    1.09    3.54
   4  -4 -34    0.19    3.59
   4   0  34    7.58    7.65
   0   4 -34   -0.15    3.25
   0  -4  34   13.10    6.91
   0  -4  37   20.94    7.12
   4   0  37   12.69    7.42
   0   4 -37    8.27    4.21
   4  -4 -37    7.44    4.60
   4   0  40    4.38    6.19
   0  -4  40   15.02    6.69
   0  -4  43    3.49    5.44
   4   0  43   -7.30    7.24
   4   1  42    9.36    7.89
   1  -5  42    2.35    4.87
   1  -5  39    8.99    6.59
   4   1  39  -12.95    7.89
   4   1  36    7.30    7.67
   5  -4 -36    5.71    4.43
   1  -5  36   13.13    6.66
   4   1  33   33.71   10.33
  -1   5 -33   33.75    7.87
   5  -4 -33   32.62    7.24
   1  -5  33   33.61    8.81
  -1   5 -30   28.88    6.85
   1  -5  30   26.52    7.80
   5  -4 -30   25.70    6.19
   4   1  30   38.54   10.46
  -1   5 -27  176.09   14.71
   5  -4 -27  173.71   13.14
  -4  -1 -27  167.42   16.11
   1  -5  27  168.16   14.10
   4   1  27  161.30   15.67
   5  -4 -24  135.70   10.98
   4   1  24  156.57   15.25
  -1   5 -24  143.18   12.54
  -4  -1 -24  150.39   14.73
   1  -5  24  125.32   11.57
   5  -4 -21    7.46    4.45
  -4  -1 -21   -4.05    5.15
   4   1  21    6.55    6.93
   1  -5  21    1.40    4.43
  -1   5 -21    1.94    3.25
   5  -4 -18   13.47    4.66
  -1   5 -18    0.84    3.47
  -4  -1 -18    2.37    5.67
   4   1  18   16.05    7.13
   1  -5  18    3.85    4.57
  -4  -1 -15  -11.08    6.93
   5  -4 -15   -2.12    4.06
   1  -5  15   -3.42    5.52
  -1   5 -15   -1.21    3.94
   4   1  15   10.28    8.30
   4   1  12   29.53    8.60
   1  -5  12   18.70    5.07
   1  -5   9    0.97    2.95
   4   1   9    5.13    5.54
  -4  -1  -6   46.45    5.63
   4   1   6   56.95    6.83
   4   1   3  154.34    8.73
  -4  -1  -3  143.84    8.23
   4   1   0 1211.42   19.32
  -4  -1   0 1147.22   19.16
   5  -4   0 1157.90   22.98
  -4  -1   3  196.23    6.54
  -5   4  -3  193.21   10.30
   5  -4   3  208.52   10.79
   5  -4   6  289.38   13.57
   5  -4   9  114.20    9.69
  -4  -1  12  581.78    9.01
   1  -5 -12  610.03   20.96
   5  -4  12  603.09   22.36
  -5   4 -12  596.58   22.54
   1  -5 -15   25.32    6.97
   4   1 -15   28.25    3.26
  -4  -1  15   33.00    3.73
   5  -4  15   26.40    7.76
  -5   4 -15   27.86    6.25
   4   1 -18   18.83    3.31
  -4  -1  18   19.72    3.90
  -5   4 -18   14.28    5.19
   5  -4  18    5.67    7.19
   1  -5 -18   20.11    6.46
  -4  -1  21    1.82    2.99
   1  -5 -21    6.22    5.29
  -5   4 -21   -2.93    4.64
   5  -4  21   -3.22    7.03
   4   1 -21    1.57    2.14
   1  -5 -24   55.65    8.94
  -5   4 -24   46.98    8.71
   5  -4  24   41.03    8.50
   4   1 -24   40.71    5.42
  -4  -1  24   47.46    5.97
   1  -5 -27    8.93    5.85
   5  -4  27   -0.61    6.29
   4   1 -27    5.36    3.37
  -5   4 -27   -0.76    4.63
  -4  -1  27    5.01    3.71
   5  -4  30   77.03   12.74
   4   1 -30   63.69    7.93
  -4  -1  30   77.05    8.33
   1  -5 -30   57.72    9.69
   5  -4  33   40.56   11.01
   4   1 -33   33.19    6.35
  -4  -1  33   24.58    5.81
  -4  -1  36   15.10    4.81
   4   1 -36   18.15    5.21
   5  -4  39   11.39    8.10
   5  -4  42   22.47    9.13
   2  -5  43    2.21    5.44
   3   2  43   -0.02    6.02
   2  -5  40   29.55    8.61
   3   2  40   10.74    6.72
   2  -5  37   25.43    8.63
   3   2  37    8.54    6.92
   5  -3 -37   13.48    4.97
   2  -5  34   19.75    7.49
   5  -3 -34    9.60    4.56
   2  -5  31  264.77   19.35
   5  -3 -31  274.41   17.15
   3   2  31  270.81   20.92
  -2   5 -31  280.75   20.61
  -2   5 -28  161.51   14.98
   3   2  28  180.33   16.38
   2  -5  28  161.22   14.82
  -3  -2 -28  156.15   15.81
   5  -3 -28  152.50   12.31
   2  -5  25   -2.85    6.02
  -3  -2 -25   -2.70    4.82
  -2   5 -25    5.89    4.28
   5  -3 -25    3.11    3.00
   3   2  25   -1.21    6.48
   2  -5  22   33.01    7.35
  -2   5 -22   26.63    6.16
  -3  -2 -22   14.88    5.76
   3   2  22   24.97    8.28
   5  -3 -22   23.51    4.69
  -3  -2 -19    6.07    5.18
  -2   5 -19   10.39    4.57
   5  -3 -19   12.58    4.33
   3   2  19   20.11    8.39
   2  -5  19    9.05    5.57
  -2   5 -16  267.38   15.25
  -3  -2 -16  274.15   16.94
   5  -3 -16  281.87   11.49
   2  -5  16  270.24   15.24
   3   2  16  316.47   18.14
  -2   5 -13   89.99    8.68
   2  -5  13   67.42    7.71
   3   2  13   98.96   11.49
   5  -3 -13   83.10    5.87
   2  -5  10   11.83    4.26
   3   2  10   12.37    5.80
   3   2   7  543.93   17.37
   2  -5   7  527.82   17.50
  -3  -2  -4  447.12   14.50
   3   2   4  450.95   14.34
  -3  -2  -1 3815.63   36.46
   5  -3  -1 3911.20   37.46
  -5   3   1 3860.33   37.91
   5  -3   2 2069.59   29.90
  -3  -2   2 2063.40   23.41
  -5   3  -2 1990.74   29.99
   5  -3   5 1522.15   28.55
  -3  -2   8   28.20    2.54
   5  -3   8   29.43    5.80
   5  -3  11  150.58   11.65
  -3  -2  11  134.98    5.75
  -3  -2  14    5.23    2.93
   2  -5 -14   -1.92    4.88
  -5   3 -14    0.76    4.82
   5  -3  17   12.92    5.76
  -5   3 -17   25.07    6.37
   3   2 -17   29.65    4.12
  -3  -2  17   28.54    4.13
   2  -5 -17   30.89    6.97
   5  -3  20  351.96   19.94
  -5   3 -20  362.76   20.70
  -3  -2  20  337.38   13.39
   3   2 -20  362.50   14.26
   2  -5 -20  368.86   18.66
  -3  -2  23   45.93    6.44
   5  -3  23   38.32    8.17
   2  -5 -23   55.65    8.83
   3   2 -23   46.08    5.85
  -5   3 -23   47.24    8.69
  -5   3 -26  240.88   18.91
   3   2 -26  248.35   14.00
   2  -5 -26  252.96   17.73
  -3  -2  26  231.54   13.16
   5  -3  26  230.01   18.38
   2  -5 -29   46.42    9.01
  -3  -2  29   56.34    8.06
   5  -3  29   51.78   11.25
   3   2 -29   44.36    6.81
   5  -3  32   58.75   11.79
   2  -5 -32   36.00    8.33
  -3  -2  32   50.31    7.69
   3   2 -32   42.47    7.32
  -3  -2  35   61.66    8.78
   5  -3  35   78.91   13.47
   3   2 -35   57.48    9.03
   5  -3  38   12.41    8.22
  -3  -2  38   -1.38    4.17
  -3  -2  41   -5.99    4.77
   5  -3  41    0.21    7.12
   3  -5  41   14.27    7.42
   2   3  38  -12.06    7.85
   3  -5  38   20.30    8.49
   5  -2 -35    1.65    2.91
   3  -5  35   12.62    7.02
   2   3  35    0.60    6.57
   3  -5  32    1.84    6.25
   2   3  32   -1.93    7.15
  -3   5 -32    7.31    4.97
   5  -2 -32    2.47    3.25
   3  -5  29    0.62    5.48
   5  -2 -29    1.58    3.32
  -3   5 -29    8.45    5.29
   2   3  29   -0.63    7.18
   3  -5  26   24.85    7.16
  -2  -3 -26   33.67    8.01
   2   3  26   33.63    8.81
  -3   5 -26   40.50    7.83
   5  -2 -26   36.99    5.95
   5  -2 -23    4.91    2.79
  -2  -3 -23   -1.89    5.02
  -3   5 -23    7.63    4.15
   2   3  23    1.85    5.95
   3  -5  23  -10.25    6.31
   5  -2 -20   -3.86    3.99
   2   3  20   -6.46    7.62
   3  -5  20   -0.26    4.86
  -2  -3 -20    1.47    3.82
  -3   5 -20    2.03    3.31
  -2  -3 -17   35.92    8.47
   2   3  17   11.07    7.60
  -3   5 -17   28.91    6.43
   5  -2 -17   15.36    3.37
   3  -5  17   34.48    7.70
  -3   5 -14  154.11   11.90
   3  -5  14  150.52   11.67
   2   3  14  146.40   12.45
  -2  -3 -14  176.48   13.41
   5  -2 -14  166.07    7.37
  -3   5 -11  213.69   12.63
   3  -5  11  198.19   12.58
   2   3  11  190.56   12.31
   5  -2 -11  190.45    6.40
   2   3   8  476.76   17.27
   3  -5   8  499.73   17.88
   3  -5   5   93.90    7.96
   5  -2  -5   99.68    4.57
  -5   2   2 3827.76   32.88
   5  -2  -2 4029.77   33.23
  -2  -3  -2 3943.36   40.82
   5  -2   1 5052.72   43.17
  -5   2  -1 5026.16   43.85
   5  -2   4  715.62   18.61
  -5   2  -4  725.48   19.03
   5  -2   7  579.72   18.82
  -2  -3  10   17.91    3.13
   5  -2  10    8.17    5.40
   5  -2  13    9.36    7.46
   3  -5 -13    9.09    4.33
  -2  -3  13   13.58    3.34
  -2  -3  16   14.52    4.09
   3  -5 -16   17.72    5.44
   5  -2  16   15.78    6.74
   2   3 -16   16.77    3.67
  -5   2 -16   18.91    6.34
  -5   2 -19   26.44    6.28
   5  -2  19   26.60    7.85
   2   3 -19   22.48    4.43
  -2  -3  19   18.27    3.84
   3  -5 -19   32.54    6.54
  -5   2 -22   54.76    9.00
  -2  -3  22   62.18    7.12
   2   3 -22   66.25    7.23
   5  -2  22   79.49   11.41
   3  -5 -22   66.90    8.82
   3  -5 -25   22.37    6.24
  -5   2 -25   15.14    5.81
   5  -2  25   30.63    8.98
   2   3 -25   19.88    4.84
  -2  -3  25   22.62    5.48
  -5   2 -28   10.79    5.48
   5  -2  28   21.91    8.64
   2   3 -28   10.96    3.79
  -2  -3  28   29.01    6.82
   3  -5 -28   19.69    6.36
  -2  -3  31    8.80    5.15
   3  -5 -31   -2.33    5.15
   2   3 -31    2.70    3.22
  -2  -3  34    8.42    5.17
   3  -5 -34   -1.27    4.70
   2   3 -34    5.69    4.36
   5  -2  34    7.40    7.69
  -2  -3  37    6.96    5.25
   2   3 -37    1.00    3.56
   5  -2  37    4.51    7.61
   5  -2  40    8.39    7.81
  -2  -3  40    5.91    5.25
  -2  -3  43    0.89    3.88
   5  -2  43    1.74    6.27
   4  -5  42    9.33    7.60
   4  -5  39   64.24   12.54
   5  -1 -36  133.87   12.72
   4  -5  36  163.92   17.78
   5  -1 -33  138.19   12.07
   4  -5  33  133.71   15.79
  -4   5 -30    6.56    4.91
   4  -5  30    2.26    6.60
   1   4  30   -1.47    6.85
   5  -1 -30    5.47    3.50
   5  -1 -27   26.17    4.88
  -4   5 -27   31.43    7.74
   1   4  27   18.74    6.58
   4  -5  27   21.57    7.24
  -1  -4 -27   23.17    7.12
  -4   5 -24    3.58    3.96
   5  -1 -24    0.92    2.57
   1   4  24   -3.30    6.27
  -1  -4 -24    4.08    4.41
   4  -5  24   -7.20    7.79
   5  -1 -21   19.05    3.54
  -1  -4 -21   25.64    7.11
  -4   5 -21   23.14    6.44
   1   4  21   12.47    5.44
   4  -5  21   20.76    6.87
   4  -5  18   27.37    7.66
  -4   5 -18   17.87    5.55
   5  -1 -18   24.20    3.46
  -1  -4 -18   31.47    7.75
  -1  -4 -15   22.38    7.34
  -4   5 -15   20.93    5.97
   4  -5  15   14.33    6.90
   5  -1 -15   13.10    2.54
  -4   5 -12  112.75    9.97
  -1  -4 -12  106.14   10.21
   4  -5  12  116.90   10.40
   4  -5   9    4.32    4.11
  -4   5  -9    2.62    2.72
   4  -5   6  145.41   10.04
   5  -1  -3 1703.01   18.85
  -5   1   3 1632.15   18.96
   4  -5   3 1702.06   31.03
   5  -1   0   66.43    4.89
  -5   1   0   68.08    5.08
   5  -1   3  552.59   15.91
  -5   1  -3  536.40   15.59
  -5   1  -6 1363.71   27.87
   5  -1   6 1394.78   27.97
  -1  -4   9  361.39   12.66
   5  -1   9  366.46   16.17
   5  -1  12   39.96    7.56
  -1  -4  12   32.44    5.01
   5  -1  15   13.25    8.70
  -1  -4  15   -0.53    4.03
  -5   1 -15    7.01    5.15
   4  -5 -15    1.79    4.48
   4  -5 -18   34.00    6.28
   1   4 -18   34.52    5.64
  -5   1 -18   33.36    7.24
  -1  -4  18   38.54    5.75
   5  -1  18   48.05   10.42
   1   4 -21  107.47    9.49
  -1  -4  21   91.85    8.70
   5  -1  21  122.18   13.72
   4  -5 -21  107.96    9.98
  -5   1 -21  104.63   11.95
   5  -1  24   49.71   10.43
   4  -5 -24   48.76    7.80
   1   4 -24   36.11    6.08
  -5   1 -24   31.89    7.38
  -1  -4  24   30.75    5.84
   4  -5 -27   22.64    6.10
  -5   1 -27   35.91    8.75
  -1  -4  27   15.48    5.53
   5  -1  27   36.24   10.04
   1   4 -27   20.48    4.98
   4  -5 -30  141.92   13.78
   1   4 -30  132.04   12.60
   5  -1  30  137.76   15.89
  -1  -4  30  123.11   12.25
   5  -1  33   12.03    9.45
  -1  -4  33   14.45    6.23
   4  -5 -33    0.62    5.09
   1   4 -33    2.66    3.81
   1   4 -36   -0.56    4.12
  -1  -4  36    4.29    5.37
   5  -1  36    8.03    7.46
   5  -1  39   19.60    9.07
  -1  -4  39   32.46    7.82
  -1  -4  42    8.68    5.53
   5  -1  42   14.04    8.69
   5  -5  43   21.88    9.26
   5  -5  40    6.84    7.22
   5  -5  37   15.86    8.66
   5  -5  34   74.59   12.72
   5   0 -34   48.46    7.36
   5  -5  31    1.46    6.43
   5   0 -31    8.75    3.88
   5   0 -28   23.54    4.75
   0  -5 -28   30.31    7.92
  -5   5 -28   25.76    7.39
   5  -5  28   10.88    7.60
   0  -5 -25    6.99    5.44
  -5   5 -25    4.00    4.64
   5   0 -25    0.08    2.49
  -5   0  25   -2.72    3.55
   5  -5  22   11.90    6.14
  -5   5 -22   32.85    7.19
   5   0 -22   30.04    4.20
  -5   0  22   27.38    3.87
   0  -5 -22   42.46    8.24
  -5   5 -19   11.88    5.26
   5  -5  19    9.17    5.69
   0  -5 -19   18.38    6.78
   5   0 -19    9.47    2.40
   0  -5 -16  427.05   20.25
   5  -5  16  402.50   20.19
  -5   5 -16  435.02   21.28
   5   0 -16  390.90    9.54
  -5   5 -13    7.13    5.07
   0  -5 -13    7.80    6.07
   5  -5  13    1.58    5.94
   5  -5  10   60.49    7.96
  -5   5 -10   65.25    7.88
   0  -5 -10   58.30    7.10
   5  -5   7  231.27   12.90
   5  -5   4  338.20   14.70
  -5   0   4  342.97    8.11
   5   0  -4  346.95    7.83
   5  -5   1   55.96    6.31
   5   0  -1   55.60    4.89
  -5   0   1   43.88    3.93
   5   0   2  989.39   20.26
  -5   0  -2  987.80   20.78
  -5   0  -5   58.14    6.19
   5   0   5   66.16    7.06
   5   0   8   13.78    5.41
  -5   0  -8    8.64    3.95
   0  -5  11   59.03    6.67
   5   0  11   63.74    9.67
   0  -5  14   94.90    8.69
   5   0  14  120.49   12.44
  -5   0 -17   -0.70    3.29
   0  -5  17    6.81    4.77
   5  -5 -17    9.93    4.06
   0   5 -20   22.15    5.01
   0  -5  20   19.80    5.20
  -5   0 -20   15.75    5.74
   5   0  20   30.59    8.30
   5  -5 -20   25.13    5.72
   0  -5  23   64.41    8.40
   5  -5 -23   68.54    8.47
   5   0  23   78.94   12.06
   0   5 -23   66.68    8.46
  -5   0 -23   65.00    9.81
  -5   0 -26    5.98    4.96
   0  -5  26   -3.79    6.42
   5  -5 -26    6.09    4.13
   0   5 -26    0.25    3.00
   0   5 -29   30.34    6.88
   5  -5 -29   25.84    6.48
   5   0  29   37.50   10.82
   0  -5  29   33.86    7.69
   5  -5 -32   21.69    6.18
   0  -5  32   26.65    7.98
   0   5 -32   35.98    7.73
   5   0  32   43.34   10.80
   0  -5  35    9.77    6.00
   5   0  35    2.81    7.13
   0   5 -35    2.46    3.49
   5  -5 -35   -4.22    5.18
   5   0  38   -5.59    7.99
   0  -5  38   19.15    6.99
   5   0  41    0.26    6.63
   0  -5  41    3.74    5.41
   5   1  40    1.22    6.75
   1  -6  40   16.34    7.04
   1  -6  37    8.81    6.49
   6  -5 -37   -0.52    3.41
   5   1  37   -4.61    7.69
   1  -6  34    3.97    5.37
   5   1  34   -0.79    6.94
   6  -5 -34  -10.03    5.04
  -1   6 -34    5.77    4.70
   6  -5 -31  113.74   11.97
   5   1  31  133.99   15.75
  -1   6 -31  119.43   13.32
   1  -6  31  120.80   13.36
  -1   6 -28   42.54    7.94
   6  -5 -28   41.26    7.39
   1  -6  28   36.78    7.88
   5   1  28   61.64   12.30
  -5  -1 -25    0.41    4.33
   6  -5 -25    4.88    4.16
   1  -6  25    3.73    4.80
   5   1  25    4.06    6.84
  -1   6 -25    0.53    3.37
  -1   6 -22   26.66    5.84
   1  -6  22   24.19    6.19
   5   1  22   38.03    9.76
  -5  -1 -22   20.28    6.34
   6  -5 -22   30.96    5.70
   1  -6  19   71.79    8.51
  -5  -1 -19   60.11    9.11
   6  -5 -19   77.09    7.52
   5   1  19   92.79   12.46
   6  -5 -16  396.05   14.99
   5   1  16  387.76   20.63
   1  -6  16  348.76   16.90
   5   1  13  221.76   15.18
   1  -6  13  232.29   13.57
   1  -6  10   42.03    6.52
   5   1  10   39.84    8.19
  -5  -1  -7  148.10   10.38
   5   1   7  149.98   10.86
  -5  -1  -4   65.71    6.53
   5   1   4   74.71    7.19
  -5  -1  -1   18.24    3.69
   5   1   1   15.28    3.82
   6  -5  -1   15.74    3.90
  -5  -1   2  160.74    7.43
   6  -5   2  166.32   10.39
   5   1  -2  162.27    7.13
   6  -5   5  223.64   12.71
  -6   5  -5  244.56   13.01
  -5  -1   5  207.30    6.67
   6  -5   8   31.15    5.55
   6  -5  11  162.63   13.04
   6  -5  14  156.99   13.74
   1  -6 -14  153.93   12.28
  -6   5 -14  176.87   13.88
   6  -5  17  788.94   29.05
  -6   5 -17  740.98   28.58
   1  -6 -17  731.63   27.10
  -5  -1  17  678.04   12.03
   6  -5  20  157.97   14.27
  -6   5 -20  179.67   15.03
   1  -6 -20  165.18   14.08
   5   1 -20  160.94    7.71
  -5  -1  20  158.14    7.26
   1  -6 -23    3.36    5.21
  -6   5 -23    4.75    3.98
  -5  -1  23    2.70    2.40
   6  -5  23   -3.33    6.01
   5   1 -23    1.38    2.03
   6  -5  26    2.77    7.31
   1  -6 -26   18.66    7.08
  -6   5 -26   19.32    6.56
  -5  -1  26   14.33    3.54
   5   1 -26   14.97    3.63
   1  -6 -29   33.25    8.39
   6  -5  29   24.37    9.11
   5   1 -29   33.32    5.50
  -5  -1  29   25.29    4.87
   6  -5  32   25.31    8.90
   5   1 -32   16.26    4.62
  -5  -1  32    9.75    3.94
   6  -5  35   89.42   14.22
   5   1 -35   89.57    9.71
   6  -5  38   24.67    9.52
   6  -5  41   11.04    7.96
   4   2  41    4.09    6.83
   2  -6  41   23.46    8.96
   4   2  38    5.95    6.99
   2  -6  38   16.00    7.53
   2  -6  35    4.64    5.84
   6  -4 -35    4.48    4.22
   4   2  35   -3.63    8.21
  -2   6 -32   -3.30    4.51
   6  -4 -32    4.11    3.75
   2  -6  32    2.23    5.91
   4   2  32    0.47    6.26
   2  -6  29   -8.06    7.94
   4   2  29    1.79    7.80
   6  -4 -29   -5.71    4.84
  -2   6 -29    1.47    3.65
   2  -6  26   71.77   10.15
  -4  -2 -26   62.76   10.49
   4   2  26   68.86   11.85
   6  -4 -26   67.37    7.97
  -2   6 -26   76.57   10.12
   2  -6  23  206.81   15.38
  -2   6 -23  242.82   16.63
   6  -4 -23  224.11   12.89
  -4  -2 -23  234.78   18.18
   4   2  23  245.38   18.39
  -2   6 -20   17.03    5.08
   2  -6  20   13.09    4.84
  -4  -2 -20    3.93    3.98
   6  -4 -20   23.63    4.81
   4   2  20   21.42    8.14
   2  -6  17   37.61    6.96
  -2   6 -17   42.03    7.26
   6  -4 -17   44.60    5.56
   4   2  17   44.06    8.85
   4   2  14   80.32   10.31
   2  -6  14   92.87    9.88
   6  -4 -14   75.03    6.05
   2  -6  11    7.23    4.68
   4   2  11   14.11    7.66
  -4  -2  -8   10.01    4.78
   4   2   8    2.78    4.19
   2  -6   8    0.64    3.35
   4   2   5  403.56   15.04
  -4  -2  -5  418.75   15.70
   4   2   2  196.02    9.82
  -4  -2  -2  197.11    9.69
   6  -4  -2  206.10    9.82
   6  -4   1 1372.13   26.44
  -4  -2   1 1347.57   21.87
  -6   4  -1 1355.48   26.67
   6  -4   4  455.01   16.62
  -4  -2   4  432.99   10.67
  -6   4  -4  436.70   16.53
   6  -4   7  689.97   21.99
   6  -4  10 2202.43   41.40
  -4  -2  10 2137.89   19.64
  -4  -2  13  690.57   12.45
   6  -4  13  746.95   26.38
   2  -6 -13  751.66   24.81
  -4  -2  16  467.64   11.64
   6  -4  16  475.41   22.22
   2  -6 -16  468.45   20.94
  -6   4 -16  465.78   22.52
   2  -6 -19  256.95   16.28
   6  -4  19  244.60   17.31
   4   2 -19  261.67   10.58
  -6   4 -19  272.38   18.27
  -4  -2  19  272.10   10.40
  -6   4 -22  178.25   15.73
   2  -6 -22  172.83   14.19
  -4  -2  22  164.36    9.24
   6  -4  22  151.14   14.52
   4   2 -22  154.73    9.31
  -4  -2  25  256.65   12.54
  -6   4 -25  277.79   20.47
   2  -6 -25  265.28   18.30
   4   2 -25  261.20   13.04
   6  -4  25  235.85   18.39
   4   2 -28    5.09    3.07
   2  -6 -28    4.78    4.34
   6  -4  28    8.09    7.94
  -4  -2  28    3.75    3.73
   6  -4  31   73.43   12.58
  -4  -2  31   70.35    8.07
   4   2 -31   65.49    8.06
   6  -4  34   60.75   12.22
   4   2 -34   55.51    7.95
  -4  -2  34   50.78    7.43
  -4  -2  37   94.59   10.11
   6  -4  37  103.41   15.37
   6  -4  40   17.53    8.60
  -4  -2  40    6.58    4.11
   6  -4  43    7.64    7.04
   3   3  42    1.35    6.23
   3  -6  42   32.08    9.30
   3  -6  39   28.29    9.03
   3   3  39    2.68    6.70
   3   3  36   -8.56    7.42
   6  -3 -36   -1.28    3.06
   3  -6  36    6.22    6.06
   3   3  33   12.40    7.81
   3  -6  33   22.01    7.43
   6  -3 -33   22.38    5.60
   3  -6  30  123.77   13.96
   6  -3 -30  128.95   11.07
  -3   6 -30  125.14   14.24
   3   3  30  114.85   14.22
   3   3  27    1.67    5.73
   3  -6  27   -2.23    7.02
  -3  -3 -27   -0.35    5.98
  -3   6 -27   10.31    4.71
   6  -3 -27    6.78    3.43
   6  -3 -24   40.09    5.55
  -3   6 -24   47.65    8.26
   3   3  24   37.98    8.39
   3  -6  24   42.88    8.64
  -3  -3 -24   43.94    8.82
   3  -6  21  103.15   10.90
  -3  -3 -21  121.38   12.96
  -3   6 -21  112.87   11.39
   3   3  21  112.53   12.31
   6  -3 -21   98.61    7.72
   6  -3 -18   24.83    4.40
   3  -6  18   19.74    6.05
  -3  -3 -18   21.34    6.37
  -3   6 -18   15.50    5.45
   3   3  18   14.75    7.52
  -3  -3 -15    2.55    4.28
  -3   6 -15    0.92    4.26
   3   3  15   -3.56    7.14
   3  -6  15   -3.55    5.60
   6  -3 -15    4.15    3.12
   3   3  12  171.32   12.73
   3  -6  12  171.04   12.44
   3   3   9    0.69    4.99
   3  -6   9    4.56    4.35
  -3  -3  -6  254.42   12.56
   6  -3  -6  270.81    8.96
   3   3   6  257.66   12.63
   6  -3  -3    0.48    2.16
  -3  -3  -3    0.05    2.74
  -3  -3   0  458.20   13.73
   6  -3   0  437.68   14.06
  -6   3   0  450.95   14.18
  -6   3  -3 2080.17   33.23
   6  -3   3 2022.84   32.64
   6  -3   6  743.76   21.86
  -6   3  -6  787.46   22.68
   6  -3   9    5.13    5.35
   6  -3  12  114.27   11.54
  -3  -3  12  104.07    6.08
  -3  -3  15   93.85    6.51
   6  -3  15   79.04   10.31
   3  -6 -15   96.86    9.53
  -6   3 -18  113.07   12.04
   6  -3  18  113.76   12.29
   3  -6 -18  111.91   10.61
  -3  -3  18  101.06    7.23
   6  -3  21   42.14    9.17
  -3  -3  21   46.95    5.57
  -6   3 -21   57.20    8.99
   3  -6 -21   50.38    8.12
   3   3 -21   52.08    5.98
  -3  -3  24  117.98    9.16
   3  -6 -24  143.71   13.26
   6  -3  24  128.24   14.50
  -6   3 -24  154.09   15.00
   3   3 -24  135.34   10.10
   6  -3  27   15.71    8.34
   3   3 -27    7.36    3.55
   3  -6 -27   12.64    5.83
  -3  -3  27   14.33    5.88
  -6   3 -27    3.34    4.74
  -3  -3  30   11.40    4.98
   6  -3  30   16.78    9.33
   3   3 -30   -1.15    2.79
   3  -6 -30    5.95    5.43
  -3  -3  33    6.25    4.37
   3   3 -33    0.97    2.92
  -3  -3  36   78.87    9.58
   6  -3  36   85.21   13.84
   3   3 -36   67.95    9.57
  -3  -3  39    3.26    4.03
   6  -3  39   20.62    9.89
   6  -3  42   13.89    8.60
  -3  -3  42   -2.45    4.72
   4  -6  43   25.16    8.95
   4  -6  40   20.48    8.70
   4  -6  37   29.81    8.98
   4  -6  34   52.44   10.81
   6  -2 -34   56.89    8.07
   2   4  34   38.65   10.43
   4  -6  31   -7.40    7.83
   6  -2 -31   -0.64    2.74
   2   4  31   -8.89    8.80
   2   4  28   -6.81    8.12
   6  -2 -28   15.58    4.00
  -4   6 -28   24.91    7.28
   4  -6  28    3.11    6.54
  -2  -4 -25  134.12   14.74
   2   4  25  107.32   12.59
  -4   6 -25  140.57   14.26
   6  -2 -25  133.13    9.19
   4  -6  25  153.41   14.69
  -4   6 -22   40.69    8.00
   6  -2 -22   33.30    4.56
   2   4  22   28.09    7.68
  -2  -4 -22   33.86    7.95
   4  -6  22   50.52    9.03
   2   4  19   37.07    7.62
   4  -6  19   53.62    8.81
  -2  -4 -19   49.32    8.36
   6  -2 -19   39.98    4.25
  -4   6 -19   48.63    7.98
   4  -6  16   -1.62    5.26
  -4   6 -16    8.02    4.72
   2   4  16   -4.44    8.65
   6  -2 -16    1.05    2.41
   2   4  13  209.87   14.18
   6  -2 -13  226.04    6.75
  -4   6 -13  224.65   14.55
   4  -6  13  208.47   14.15
   4  -6  10    7.81    5.17
  -4   6 -10    3.30    3.28
   6  -2  -7   20.54    2.27
   4  -6   7   18.97    4.66
   6  -2  -4   25.15    2.97
  -6   2   4   23.09    2.85
  -2  -4  -4   19.22    4.57
  -6   2   1   16.57    2.92
   6  -2  -1   18.75    3.20
   6  -2   2 2073.50   31.24
  -6   2  -2 2107.68   32.07
  -6   2  -5 1663.35   31.60
   6  -2   5 1643.27   30.90
   6  -2   8  134.11   10.13
  -6   2  -8  138.12   10.18
   6  -2  11   -5.00    8.20
  -2  -4  11    0.15    2.83
  -2  -4  14   77.45    6.74
   6  -2  14   89.64   11.53
  -2  -4  17    6.50    3.72
  -6   2 -17   -0.90    2.17
   4  -6 -17    4.74    4.41
   6  -2  20   10.97    7.67
  -2  -4  20   11.98    3.98
   4  -6 -20    7.96    4.60
  -6   2 -20    9.01    5.15
  -2  -4  23  188.43   11.91
   2   4 -23  199.77   12.79
  -6   2 -23  204.21   17.01
   6  -2  23  195.84   17.18
   4  -6 -23  184.49   14.02
  -2  -4  26   67.36    8.11
   6  -2  26   84.87   13.10
   2   4 -26   72.24    8.41
  -6   2 -26   69.83   11.04
   4  -6 -26   75.62    9.93
   6  -2  29   12.25    9.51
  -2  -4  29    2.37    4.52
   4  -6 -29    2.68    4.42
   2   4 -29    1.71    3.26
   4  -6 -32   -2.95    4.96
   2   4 -32    0.96    3.09
  -2  -4  32    2.51    4.59
   6  -2  35   10.80    8.36
  -2  -4  35    6.32    5.08
   2   4 -35   -3.40    3.94
  -2  -4  38   22.23    6.56
   6  -2  38   29.54   10.29
   6  -2  41   30.50   10.05
  -2  -4  41   17.82    6.32
   5  -6  41    4.90    6.52
   5  -6  38   27.65    9.35
   5  -6  35    4.14    6.82
   6  -1 -35   -0.18    2.95
   5  -6  32    0.22    6.12
   6  -1 -32    1.77    2.66
   6  -1 -29   -1.41    2.96
   5  -6  29   -2.07    6.40
  -5   6 -29    5.11    5.14
  -1  -5 -26   15.79    6.52
   6  -1 -26   12.58    3.29
   5  -6  26   -1.89    7.28
  -5   6 -26   10.59    5.43
   5  -6  23   12.76    6.98
   6  -1 -23    2.29    1.80
  -5   6 -23    4.75    3.57
  -1  -5 -23   12.66    6.44
   6  -1 -20  129.27    6.71
   5  -6  20  139.10   13.22
  -5   6 -20  137.12   13.40
  -1  -5 -20  159.28   14.00
   6  -1 -17  235.20    7.34
  -1  -5 -17  232.14   15.80
  -5   6 -17  235.00   16.30
   5  -6  17  234.51   16.10
   5  -6  14  182.23   13.96
  -5   6 -14  173.43   13.44
  -1  -5 -14  179.81   13.63
  -5   6 -11  164.86   12.42
   5  -6  11  154.92   12.50
   5  -6   8   85.35    8.93
   5  -6   5   10.49    4.58
   6  -1  -5    7.94    1.71
  -6   1   5   10.86    1.89
  -6   1   2  206.26    8.31
   6  -1  -2  221.37    8.49
   6  -1   1   52.76    5.33
  -6   1  -1   56.24    5.29
  -6   1  -4  308.26   13.31
   6  -1   4  326.14   13.58
  -6   1  -7   24.80    5.04
   6  -1   7   18.02    5.25
  -1  -5  10  575.56   17.78
   6  -1  10  578.51   22.04
  -1  -5  13  489.91   17.25
   6  -1  13  495.10   21.91
  -1  -5  16   74.45    7.63
   5  -6 -16   73.74    7.78
   6  -1  16   91.70   11.70
  -6   1 -19   68.54    9.79
   6  -1  19   64.74   10.60
  -1  -5  19   59.39    7.32
   5  -6 -19   60.34    7.71
  -6   1 -22   25.84    6.72
   6  -1  22   40.10    9.35
   5  -6 -22   37.14    6.75
  -1  -5  22   31.10    5.81
  -6   1 -25   76.44   11.45
   1   5 -25   67.23    8.54
   6  -1  25   66.38   10.98
  -1  -5  25   58.38    7.71
   5  -6 -25   80.75    9.83
   5  -6 -28  116.99   12.26
   1   5 -28  119.46   11.64
  -1  -5  28  110.01   11.20
   6  -1  28  121.12   15.23
   6  -1  31   32.79   10.86
  -1  -5  31   15.94    5.98
   1   5 -31   20.65    5.64
   5  -6 -31   14.48    5.78
   6  -1  34    8.62    8.53
   1   5 -34   -0.87    3.22
  -1  -5  34    7.75    5.74
   6  -1  37    3.29    7.68
  -1  -5  37    3.89    4.73
   1   5 -37    2.45    3.31
  -1  -5  40    9.65    5.95
   6  -1  40    5.93    6.95
   6  -6  42   13.73    7.66
   6  -6  39    8.20    7.61
   6  -6  36   29.35    9.72
   6   0 -33    0.91    2.47
   6  -6  33   -5.50    7.69
   6  -6  30  150.01   16.35
   6   0 -30  184.23   11.41
   6  -6  27    8.07    6.79
   6   0 -27   15.82    3.70
  -6   6 -27   15.69    6.51
   0  -6 -27   21.52    6.98
  -6   6 -24   -0.19    3.73
   6   0 -24   -0.58    1.77
   0  -6 -21   52.94    9.11
   6  -6  21   43.69    8.58
   6   0 -21   44.89    3.93
  -6   6 -21   47.53    8.67
  -6   6 -18  618.29   27.14
   6   0 -18  567.83   10.40
   6  -6  18  608.88   26.58
   0  -6 -18  645.80   26.64
  -6   6 -15  351.45   19.66
   6  -6  15  316.68   18.48
   6  -6  12  919.41   29.56
  -6   6 -12  926.06   30.00
   0  -6 -12  905.69   28.64
   6  -6   9  157.35   12.65
   6   0  -6   92.50    4.02
  -6   0   6   93.53    4.02
   6  -6   6  102.16    9.68
   6  -6   3  379.49   16.57
  -6   0   3  369.09   10.55
   6   0  -3  382.95   10.43
  -6   0   0  774.88   18.43
   6   0   0  772.40   17.64
  -6   0  -3  210.53   10.96
   6   0   3  242.01   11.71
  -6   0  -6  162.55   10.76
   6   0   6  167.86   11.16
  -6   0  -9  403.85   18.28
   6   0   9  453.92   19.63
   0  -6  12  452.14   17.48
   6   0  12  440.49   20.44
   0  -6  15   14.83    5.20
   6   0  15   19.43    8.30
   6   0  18  122.10   13.88
   0  -6  18   85.49    8.76
   6  -6 -18   91.10    8.32
  -6   0 -21    3.95    4.18
   6   0  21   13.71    7.52
   0  -6  21   -1.28    3.70
   6  -6 -21    6.19    4.31
   6  -6 -24  367.03   18.42
   0  -6  24  371.93   19.03
  -6   0 -24  386.12   24.21
   6   0  24  385.99   23.60
   0  -6  27   36.91    6.90
   0   6 -27   40.42    7.49
   6   0  27   48.54   11.03
   6  -6 -27   56.56    8.45
   6  -6 -30  155.73   14.01
   0   6 -30  145.31   13.92
   6   0  30  171.37   17.90
   0  -6  30  155.29   13.99
   0   6 -33   13.99    5.43
   0  -6  33   13.79    6.00
   6   0  33   26.02    9.39
   6  -6 -33    4.53    4.04
   6   0  36   -2.99    6.46
   0  -6  36    9.18    5.99
   0   6 -36    2.67    3.86
   6  -6 -36   -7.64    4.95
   6   0  39    2.28    6.03
   0  -6  39    9.78    6.19
   0  -6  42   11.05    6.19
   6   0  42   -2.13    5.81
   1  -7  41    2.98    5.76
   6   1  41   -5.32    6.52
   1  -7  38   -3.22    5.18
   6   1  38   -6.50    6.48
   7  -6 -35   18.63    6.17
  -1   7 -35   30.33    7.74
   1  -7  35   32.18    8.65
   6   1  35   38.95   10.83
   7  -6 -32   17.46    5.82
   6   1  32   19.80    9.36
   1  -7  32   18.34    6.68
  -1   7 -32   23.36    6.83
   1  -7  29   -1.66    6.12
   6   1  29    8.52    7.32
   7  -6 -29    9.67    5.46
   7  -6 -26    4.35    4.24
   1  -7  26   -0.34    4.38
   6   1  26   10.10    8.42
   7  -6 -23    5.44    3.95
  -6  -1 -23    0.41    5.14
   1  -7  23    1.53    4.29
   6   1  23    6.23    7.63
   6   1  20   14.09    6.96
   1  -7  20    5.43    4.21
   7  -6 -20   11.24    4.10
  -6  -1 -20   -1.66    6.23
   1  -7  17   20.93    5.85
   6   1  17   34.21    9.13
   6   1  14  626.52   25.45
   1  -7  14  590.95   22.29
   1  -7  11  447.65   19.01
  -6  -1 -11  432.11   20.46
   6   1  11  484.00   21.68
  -6  -1  -8  -10.15    6.23
   6   1   8    6.57    7.09
  -6  -1  -5  176.79   11.35
   6   1   5  200.60   12.07
  -6  -1  -2   14.74    3.81
   6   1   2   17.06    4.58
   7  -6   1  236.43   13.06
  -6  -1   1  213.29    9.70
   6   1  -1  220.54    9.67
  -6  -1   4  379.30   11.00
  -7   6  -4  389.55   17.78
   7  -6   4  404.17   17.66
  -6  -1   7   46.24    3.14
   7  -6   7   55.18    8.53
   7  -6  10   86.65   10.30
   1  -7 -13   -3.75    7.04
   7  -6  13    0.80    6.47
   1  -7 -16  216.97   15.23
   7  -6  16  219.20   16.43
  -7   6 -16  234.06   16.94
   7  -6  19  252.64   18.06
   1  -7 -19  266.65   17.76
  -7   6 -19  245.47   18.15
  -7   6 -22    5.12    4.03
   1  -7 -22    8.96    5.71
   7  -6  22    3.90    5.82
   1  -7 -25   19.35    7.44
  -7   6 -25   15.49    6.36
   6   1 -28   67.28    6.39
   7  -6  28   65.59   12.08
   6   1 -31   38.34    5.49
   7  -6  31   31.25    8.93
   7  -6  34   25.54    9.93
   6   1 -34   27.27    5.22
   7  -6  37   24.41   10.30
   7  -6  40    8.38    8.27
   2  -7  42    9.18    7.08
   5   2  42   -6.26    7.51
   2  -7  39   11.36    6.60
   5   2  39   -1.20    7.30
   2  -7  36   13.80    7.26
   5   2  36   14.52    8.19
   5   2  33    2.02    7.32
   2  -7  33   -0.61    5.87
   7  -5 -33   -5.19    4.76
  -2   7 -33    1.61    3.63
   2  -7  30  -10.41    8.09
  -2   7 -30   -4.13    4.47
   7  -5 -30   -4.02    4.33
   5   2  30   -3.45    6.75
  -2   7 -27   24.94    6.98
   7  -5 -27   15.60    4.90
   2  -7  27   21.06    6.85
   5   2  27   23.53    9.61
  -5  -2 -24   77.73   11.57
   5   2  24   67.62   11.73
  -2   7 -24   64.09    9.22
   2  -7  24   68.08    9.78
   7  -5 -24   65.42    7.99
   2  -7  21   12.54    5.35
  -5  -2 -21   14.67    5.84
   5   2  21   21.52    8.24
   7  -5 -21   17.08    4.70
   5   2  18   64.58   10.19
   2  -7  18   60.96    8.42
   7  -5 -18   67.26    6.65
   2  -7  15    1.03    4.47
   5   2  15    3.29    7.06
   2  -7  12  197.23   13.47
   5   2  12  204.21   14.95
   2  -7   9   99.41    9.72
   5   2   9  126.49   11.44
  -5  -2  -9  115.06   10.77
   5   2   6  176.77   11.39
  -5  -2  -6  194.09   12.06
   7  -5  -3   22.62    4.33
  -5  -2  -3   26.69    5.19
   5   2   3   20.48    4.61
  -5  -2   0  149.31    8.52
   7  -5   0  142.11    9.63
   5   2   0  140.44    8.32
  -5  -2   3   63.02    4.97
   7  -5   3   58.54    7.31
  -7   5  -3   51.82    6.39
  -7   5  -6  523.63   20.35
   7  -5   6  509.97   19.91
  -5  -2   6  511.61   11.31
  -5  -2   9   91.17    4.06
   7  -5   9   97.64   10.10
   7  -5  12  415.11   20.72
   2  -7 -15   93.04   10.16
   7  -5  15  108.59   12.38
  -5  -2  15   91.29    4.20
   2  -7 -18  156.93   13.19
  -5  -2  18  155.67    6.43
   7  -5  18  155.21   14.35
  -7   5 -18  165.39   14.65
   7  -5  21   41.75    8.58
   2  -7 -21   61.93    9.53
  -5  -2  21   51.33    4.52
  -7   5 -21   46.66    8.69
  -7   5 -24    5.88    4.30
   2  -7 -24   18.69    7.03
  -5  -2  24   13.31    3.55
   2  -7 -27   44.58    9.31
   5   2 -27   32.51    4.94
  -5  -2  27   39.80    5.22
   7  -5  27   29.84    8.96
   7  -5  30   12.84    7.38
  -5  -2  30   17.65    4.05
   5   2 -30   24.05    4.80
  -5  -2  33   35.50    5.59
   5   2 -33   31.29    5.73
   7  -5  33   37.25   10.88
   7  -5  36   15.66    9.43
  -5  -2  36   -0.02    3.87
   7  -5  39   27.03   10.42
   7  -5  42   11.77    8.45
   3  -7  40    7.23    6.54
   4   3  40   -8.84    7.48
   4   3  37    4.84    7.13
   3  -7  37   14.92    7.43
   3  -7  34   -1.71    6.21
   4   3  34    0.49    7.01
   7  -4 -34    6.32    3.77
   7  -4 -31   65.84    8.32
   3  -7  31   52.39   10.10
   4   3  31   59.29   11.51
  -3   7 -31   70.16   11.38
   3  -7  28   -8.98    6.62
   4   3  28   -3.55    7.43
   7  -4 -28    2.25    3.38
  -3   7 -28    3.71    4.28
   4   3  25    7.05    5.86
   7  -4 -25    8.66    3.26
  -4  -3 -25    9.19    4.86
   3  -7  25   14.89    6.39
  -3   7 -25   15.05    5.75
   3  -7  22    6.84    4.96
  -3   7 -22    1.78    3.73
  -4  -3 -22   -0.11    4.99
   4   3  22    2.12    6.73
   7  -4 -22    5.71    3.27
  -4  -3 -19   11.21    5.60
  -3   7 -19    7.65    3.94
   4   3  19    5.01    5.08
   3  -7  19    9.97    5.42
   7  -4 -19    9.64    3.45
   3  -7  16   -5.91    5.90
   7  -4 -16   -0.36    2.77
   4   3  16   -8.45    7.73
   4   3  13  603.36   23.82
   3  -7  13  609.22   23.28
   4   3  10   -4.40    7.39
   3  -7  10   -3.75    6.16
   4   3   7  122.49    9.82
  -4  -3  -7  126.25   10.38
   7  -4  -4  780.03   18.27
  -4  -3  -4  722.90   20.85
  -4  -3  -1 1333.49   25.49
  -7   4   1 1327.33   26.44
   7  -4  -1 1318.30   25.70
  -7   4  -2  316.24   13.91
  -4  -3   2  322.18   11.56
   7  -4   2  322.82   14.06
   7  -4   5   71.75    7.74
  -7   4  -5   68.29    7.33
   7  -4   8 1088.69   29.01
  -7   4  -8 1061.70   29.31
   7  -4  11  808.03   27.14
  -4  -3  11  835.39   15.28
  -4  -3  14 1422.58   20.53
   7  -4  14 1383.65   37.22
   7  -4  17  302.77   19.06
   3  -7 -17  335.97   17.99
  -4  -3  17  314.30   10.57
   3  -7 -20   32.24    6.89
  -4  -3  20   30.84    4.33
   7  -4  20   10.33    6.30
  -7   4 -20   29.84    7.51
  -4  -3  23  116.54    8.28
   7  -4  23  105.64   13.20
  -7   4 -23  123.91   13.80
   3  -7 -23  130.23   13.01
  -4  -3  26   27.11    5.27
   7  -4  26   20.98    8.60
   3  -7 -26   26.24    7.46
   7  -4  29    1.72    7.67
   3  -7 -29   -3.05    4.69
   4   3 -29    1.68    3.15
  -4  -3  29    4.93    3.92
  -4  -3  32    9.89    4.34
   4   3 -32   11.76    3.98
   7  -4  35   27.97   10.26
   4   3 -35   22.39    5.56
  -4  -3  35   26.15    5.87
   7  -4  38   11.75    9.12
  -4  -3  38    3.67    3.82
   7  -4  41    6.87    7.02
   4  -7  41   17.08    8.03
   4  -7  38    7.70    6.94
   7  -3 -35   18.07    4.70
   4  -7  35   26.65    8.39
   3   4  35   13.64    7.13
   7  -3 -32    9.66    3.77
   3   4  32   -1.78    6.63
   4  -7  32    9.21    6.57
   3   4  29   -8.17    7.70
   7  -3 -29    1.45    2.78
   4  -7  29   -8.36    8.02
  -4   7 -29    3.63    4.60
   3   4  26   49.34   10.64
   7  -3 -26   65.29    6.73
   4  -7  26   66.19   10.84
  -4   7 -26   63.97   10.11
   3   4  23    8.31    5.04
  -3  -4 -23    9.19    5.61
  -4   7 -23   16.87    5.77
   7  -3 -23    8.01    2.55
   4  -7  23   11.68    5.90
   4  -7  20   17.75    6.13
  -4   7 -20   15.12    5.36
  -3  -4 -20   24.02    7.22
   7  -3 -20   15.82    3.25
   3   4  20   17.36    6.56
  -4   7 -17   -1.13    4.33
  -3  -4 -17    8.31    4.12
   4  -7  17   -2.52    5.42
   7  -3 -17    4.52    2.85
   3   4  17   -7.10    7.80
   4  -7  14   20.76    7.22
  -4   7 -14   16.58    5.54
   7  -3 -14   17.59    2.81
   4  -7  11    1.41    6.03
   3   4  11  -14.23   10.00
   4  -7   8   34.38    6.85
   7  -3  -8   38.77    3.86
  -3  -4  -8   32.61    6.73
  -3  -4  -5    0.88    3.19
   7  -3  -5    2.80    2.41
  -7   3   2  887.49   19.58
  -3  -4  -2  902.40   22.05
   7  -3  -2  876.73   19.28
  -7   3  -1  734.74   19.69
   7  -3   1  732.55   19.36
   7  -3   4   42.55    6.43
  -7   3  -4   47.67    5.97
   7  -3   7   23.72    6.56
  -7   3  -7   17.49    4.72
   7  -3  10  132.32   12.14
  -7   3 -10  133.10   11.30
   7  -3  13   -1.00    8.38
  -3  -4  13    5.48    3.18
  -3  -4  16   16.84    3.62
   4  -7 -16   13.76    4.68
   7  -3  16    9.87    5.52
   7  -3  19    9.89    5.85
   4  -7 -19    9.99    4.98
  -3  -4  19   13.02    3.66
  -7   3 -19   14.95    5.36
   7  -3  22    8.54    5.91
  -3  -4  22    5.31    3.05
  -7   3 -22   12.45    6.13
   4  -7 -22    9.31    5.00
   7  -3  25   36.66   10.13
   4  -7 -25   29.84    7.16
  -7   3 -25   20.21    6.96
  -3  -4  25   15.75    4.28
   7  -3  28   51.39   12.15
  -3  -4  28   48.07    7.29
   4  -7 -28   61.78    9.84
   7  -3  31   11.73    9.41
   3   4 -31    1.45    2.89
   4  -7 -31   14.61    6.60
  -3  -4  31   15.57    5.29
  -3  -4  34   30.74    7.00
   7  -3  34   51.81   12.30
   3   4 -34   34.01    6.78
   7  -3  37   11.14    8.20
  -3  -4  37    0.04    3.97
   7  -3  40   29.43   10.53
  -3  -4  40   13.19    5.20
   5  -7  42   11.86    7.91
   5  -7  39   17.29    7.99
   5  -7  36    4.26    6.17
   7  -2 -33    1.06    2.57
   5  -7  33   -3.47    7.33
   7  -2 -30   21.37    4.41
   5  -7  30   16.23    6.81
  -5   7 -27   37.78    8.30
   7  -2 -27   54.00    5.81
   5  -7  27   39.73    9.49
  -5   7 -24   50.77    9.01
  -2  -5 -24   46.87    9.42
   5  -7  24   48.67    9.52
   7  -2 -24   45.70    4.94
  -5   7 -21   25.53    6.43
   7  -2 -21   29.51    3.57
  -2  -5 -21   29.42    8.11
   5  -7  21   25.73    6.99
  -2  -5 -18    3.72    5.63
  -5   7 -18   -0.42    4.30
   5  -7  18   -0.42    5.63
   7  -2 -18    1.30    1.52
  -2  -5 -15    0.06    1.12
  -5   7 -15    0.05    3.65
   7  -2 -15    0.30    1.30
   5  -7  15   -5.01    7.12
   5  -7  12  379.06   19.87
  -5   7 -12  398.72   19.82
   5  -7   9   84.67    9.75
   7  -2  -9   86.08    3.86
   7  -2  -6   14.29    2.54
   5  -7   6   17.43    5.99
  -2  -5  -6    9.71    3.68
   7  -2  -3  208.61    8.82
  -7   2   3  218.82    9.09
   7  -2   0  841.79   19.66
  -7   2   0  843.17   20.10
  -7   2  -3   58.30    6.29
   7  -2   3   53.71    6.36
   7  -2   6  140.30   10.43
  -7   2  -6  145.09   10.52
  -7   2  -9   47.18    6.97
   7  -2   9   47.79    7.54
  -2  -5  12   33.87    5.39
   7  -2  12   37.95    9.11
  -2  -5  15  225.77   11.49
   7  -2  15  220.87   16.36
   5  -7 -18    3.41    3.67
  -2  -5  18    1.48    2.97
  -7   2 -18   -0.16    1.66
   7  -2  18   10.12    7.07
   7  -2  21   26.53    9.14
   5  -7 -21   18.45    5.64
  -7   2 -21   19.97    6.38
  -2  -5  21   18.44    4.69
   5  -7 -24    0.03    3.98
  -2  -5  24   -5.08    4.63
  -7   2 -24   -1.77    3.90
   5  -7 -27   82.60   10.62
  -2  -5  27   60.33    7.99
   7  -2  27   65.30   12.31
   5  -7 -30    7.52    5.51
  -2  -5  30    8.79    4.93
   7  -2  33   19.83    9.93
  -2  -5  33    9.85    5.45
   5  -7 -33    5.02    4.78
   7  -2  36    0.28    6.73
  -2  -5  36   12.24    5.73
  -2  -5  39    6.73    5.06
   7  -2  39    7.39    8.15
   7  -2  42    5.56    7.08
  -2  -5  42   11.88    6.13
   6  -7  40    1.66    6.41
   6  -7  37   -2.07    6.50
   6  -7  34    6.89    6.43
   7  -1 -34   11.01    3.80
   7  -1 -31   40.93    5.59
   6  -7  31   28.51    8.81
   7  -1 -28    1.54    2.01
   6  -7  28  -11.68    8.82
  -1  -6 -25    3.39    5.98
   7  -1 -25    4.27    2.21
   6  -7  25    1.47    5.88
  -6   7 -25    4.75    4.45
  -6   7 -22   30.91    7.33
   7  -1 -22   30.13    3.13
  -1  -6 -22   35.81    8.28
   6  -7  22   29.78    8.35
  -6   7 -19   -0.12    3.23
  -1  -6 -19    3.50    4.34
   6  -7  19    4.93    6.04
  -1  -6 -16   38.16    8.18
   6  -7  16   23.16    6.77
  -6   7 -16   23.70    6.19
  -6   7 -13    2.47    4.66
   6  -7  13   -3.45    6.40
   6  -7  10   28.06    8.36
  -6   7 -10   14.96    5.48
   7  -1  -7  226.92    6.26
   6  -7   7  227.45   14.79
   7  -1  -4   15.07    3.03
   6  -7   4   12.45    5.07
  -7   1   4   13.59    2.64
   7  -1  -1   57.48    5.58
  -7   1   1   56.24    5.39
   7  -1   2    0.82    3.57
  -7   1  -2    2.94    2.89
  -7   1  -5  367.18   15.75
   7  -1   5  346.13   15.43
  -7   1  -8  190.56   13.20
   7  -1   8  172.41   12.86
   7  -1  11   21.86    8.82
  -7   1 -11   23.16    6.70
   7  -1  14   12.03    8.15
  -1  -6  14    9.13    4.45
  -7   1 -17   -0.65    1.13
  -1  -6  17   12.01    4.12
  -7   1 -20    5.60    4.47
   6  -7 -20   11.16    4.34
  -1  -6  20    7.32    3.82
   7  -1  23  218.70   18.91
  -7   1 -23  204.87   18.01
   6  -7 -23  205.46   14.69
  -1  -6  23  209.80   13.93
  -1  -6  26   58.25    8.33
   7  -1  26   81.40   13.22
   6  -7 -26   62.73    9.19
   7  -1  29  405.32   26.73
   6  -7 -29  385.17   22.14
  -1  -6  29  402.29   20.93
   7  -1  32   64.42   13.29
   6  -7 -32   41.49    8.36
  -1  -6  32   45.44    8.22
  -1  -6  35    2.13    5.19
   6  -7 -35   -1.15    4.20
  -1  -6  38   10.06    6.18
   7  -1  38   17.82   10.11
  -1  -6  41    5.40    4.88
   7  -1  41    2.53    6.92
   7  -7  41    1.37    6.61
   7  -7  38   15.57    8.35
   7  -7  35   -6.52    7.76
   7  -7  32   -2.05    7.13
   7   0 -32    2.90    2.06
   7  -7  29   -4.58    8.24
   7   0 -29    3.52    2.04
   7  -7  26   43.33    9.75
   7   0 -26   61.18    4.95
  -7   7 -23    3.81    4.82
   0  -7 -23    9.44    6.20
   7  -7  23    1.28    6.01
  -7   7 -20   50.03    8.94
   0  -7 -20   53.93    9.45
   7  -7  20   47.25    9.01
   0  -7 -17  341.89   19.75
  -7   7 -17  330.31   20.53
   7  -7  17  304.27   19.34
   7  -7  14   45.96    8.71
   0  -7 -14   50.84    8.51
   7  -7  11  346.70   19.28
   7  -7   8   41.18    8.08
  -7   0   5   47.68    4.10
   7   0  -5   49.70    4.19
   7  -7   5   52.10    8.39
   7  -7   2   89.90    9.44
  -7   0   2   87.43    6.41
   7   0  -2   93.39    6.65
   7   0   1   44.32    6.47
  -7   0  -1   24.16    4.44
   7   0   4    2.85    5.46
  -7   0  -4   -7.92    5.61
  -7   0  -7   76.56    8.37
   7   0   7  123.10   12.14
  -7   0 -10   48.20    7.74
   7   0  10   89.64   12.11
   0  -7  13   16.04    5.30
   7   0  13   32.49   10.23
   0  -7  16   43.32    6.83
   7   0  16   52.18   11.04
  -7   0 -19    1.20    4.67
   7  -7 -19   -1.49    4.12
   0  -7  19    0.17    3.92
   7   0  22   37.40    9.10
   7  -7 -22   21.29    5.31
  -7   0 -22   36.69    8.17
   0  -7  22   24.02    6.07
   7  -7 -25   18.40    5.71
   0  -7  25   10.20    5.30
   7   0  25   21.46    9.42
   7   0  28   23.79    9.71
   0  -7  28   24.65    6.87
   7  -7 -28   19.93    6.56
   7  -7 -31   75.07   10.29
   7   0  31   76.48   13.48
   0  -7  31   54.09    8.81
   0  -7  34    9.19    5.37
   7  -7 -34   11.47    5.42
   7   0  34   17.97    9.74
   0  -7  37   13.38    6.08
   7   0  37   14.51    9.02
   0  -7  40    4.14    6.14
   7   0  40  -12.67    8.70
   1  -8  39   11.54    6.44
   7   1  39    1.02    6.87
   1  -8  36   -3.40    5.41
   7   1  36   -7.42    6.96
   8  -7 -33    4.86    4.32
   1  -8  33   -0.05    5.47
   7   1  33    3.56    7.42
   1  -8  30  118.22   12.96
   7   1  30  115.31   16.14
   8  -7 -30  102.19   11.15
   1  -8  27  106.05   12.02
   8  -7 -27  113.23   11.02
   7   1  27  114.14   15.05
   7   1  24   86.90   12.61
   1  -8  24  105.85   11.59
   8  -7 -24   95.83    9.71
   7   1  21   18.10    8.22
   1  -8  21   15.29    5.37
  -7  -1 -21   11.44    5.31
   8  -7 -21   11.42    4.19
   7   1  18    4.91    6.14
  -7  -1 -18   -4.07    6.23
   1  -8  18    1.44    4.35
   1  -8  15    2.31    4.39
   7   1  15   11.69    7.66
  -7  -1 -15   -4.81    5.51
   1  -8  12   47.46    8.03
   7   1  12   54.79    9.51
  -7  -1  -9  251.99   15.87
   7   1   9  264.16   16.53
   7   1   6  413.12   18.45
  -7  -1  -6  376.84   17.68
   7   1   3    1.53    5.58
  -7  -1  -3   -2.19    4.30
   8  -7   0    0.36    4.54
  -7  -1   0    1.08    3.89
   7   1   0    8.68    4.54
   8  -7   3  480.07   20.56
  -7  -1   3  485.66   14.46
   7   1  -3  463.06   13.77
  -8   7  -6  268.44   16.26
   8  -7   6  268.66   16.59
  -7  -1   6  262.24    8.84
   8  -7   9   21.60    7.10
   8  -7  12   40.18    8.70
   1  -8 -15    0.87    5.03
  -8   7 -15   -1.43    1.60
   8  -7  15    5.85    6.29
  -8   7 -18    2.64    3.89
   8  -7  18    4.00    5.35
   1  -8 -18   11.00    4.93
   8  -7  21   75.47   11.16
   1  -8 -21   78.56   10.91
  -8   7 -21   79.80   11.20
   1  -8 -24   99.43   12.82
   8  -7  24   98.63   13.07
   8  -7  27   -6.54    9.07
   8  -7  30   58.12   11.99
   8  -7  33   12.20    7.33
   8  -7  36    0.74    6.57
   8  -7  39   11.35    8.89
   2  -8  40   -2.58    4.81
   6   2  40   -3.04    6.88
   6   2  37    9.35    7.91
   2  -8  37    1.60    5.84
   6   2  34   54.92   12.64
   2  -8  34   45.03    9.40
   8  -6 -34   48.22    7.90
   8  -6 -31   35.68    6.80
   2  -8  31   21.13    6.35
   6   2  31   42.96   10.69
   6   2  28  221.51   19.50
   8  -6 -28  225.97   14.72
   2  -8  28  254.33   18.65
   8  -6 -25  160.83   11.75
   2  -8  25  161.21   14.52
   6   2  25  132.85   15.13
   2  -8  22  399.00   21.47
   6   2  22  415.41   24.30
   8  -6 -22  429.37   17.50
  -6  -2 -22  427.29   25.38
  -6  -2 -19   73.04   10.65
   2  -8  19   79.58    9.86
   6   2  19   93.04   12.35
   8  -6 -19   78.61    7.51
   2  -8  16   46.52    7.79
   6   2  16   51.32    9.47
   2  -8  13  737.47   26.44
   6   2  13  759.13   28.03
   6   2  10  221.67   15.49
   2  -8  10  219.40   14.79
  -6  -2 -10  230.04   15.29
  -6  -2  -7  281.81   15.62
   6   2   7  279.92   15.47
   8  -6  -4   73.22    7.53
   6   2   4   72.58    7.94
  -6  -2  -4   85.85    8.72
   8  -6  -1   43.95    6.51
   6   2   1   41.22    5.80
  -6  -2  -1   59.95    7.05
  -6  -2   2  114.40    7.97
   8  -6   2  102.29    9.71
   8  -6   5   73.90    9.34
  -6  -2   5   78.37    5.85
  -8   6  -5   71.57    8.81
  -8   6  -8   12.27    5.54
   8  -6   8    8.17    7.03
  -6  -2   8   19.52    3.16
   8  -6  11  173.41   14.67
   8  -6  14   16.97    8.04
  -8   6 -17   33.98    7.39
   8  -6  17   26.20    8.07
   2  -8 -17   21.70    5.83
  -6  -2  20   10.13    1.58
  -8   6 -20   15.54    5.59
   2  -8 -20   14.87    5.88
   8  -6  20   13.86    6.56
  -8   6 -23   54.14    9.97
   8  -6  23   23.39    8.04
  -6  -2  23   39.04    3.44
   2  -8 -23   42.53    8.88
   2  -8 -26   27.13    7.72
  -6  -2  26   22.32    3.23
   8  -6  29   52.55   11.73
  -6  -2  29   69.20    5.94
   8  -6  32    0.39    7.20
   8  -6  35   29.81    9.92
   8  -6  38   27.90    9.61
   8  -6  41   10.83    8.49
   3  -8  41    2.10    5.53
   5   3  41    6.15    7.04
   5   3  38   -9.65    8.03
   3  -8  38    0.06    5.18
   3  -8  35   -4.64    7.01
   5   3  35    4.11    7.81
   3  -8  32   -9.24    7.77
   8  -5 -32   -5.27    4.02
   5   3  32   -2.98    6.81
   8  -5 -29   -2.60    4.18
   5   3  29   12.55    7.02
  -3   8 -29   -2.33    4.71
   3  -8  29    6.15    6.43
  -3   8 -26    2.71    4.18
   8  -5 -26    3.93    3.34
   5   3  26   -0.24    5.95
   3  -8  26    3.61    5.80
   3  -8  23  144.65   13.64
   8  -5 -23  165.56   10.50
  -5  -3 -23  157.19   15.89
   5   3  23  155.76   15.54
   3  -8  20  140.76   13.18
  -5  -3 -20  150.05   14.79
   5   3  20  134.44   14.16
   8  -5 -20  145.02    9.36
   8  -5 -17   97.83    7.28
   5   3  17  112.70   12.55
   3  -8  17  112.52   11.77
   3  -8  14   27.89    7.21
   5   3  14   34.01    8.81
  -5  -3 -11   17.64    5.97
   3  -8  11   -0.39    5.53
   5   3  11    4.15    7.49
  -5  -3  -8   90.22   10.38
   5   3   8   66.12    9.14
  -5  -3  -5  284.41   14.63
   8  -5  -5  287.05   12.58
   5   3   5  287.19   14.47
  -5  -3  -2   87.37    7.91
   8  -5  -2   93.07    8.11
  -8   5  -1  710.35   22.20
  -5  -3   1  726.30   18.84
   8  -5   1  728.88   22.18
  -8   5  -4  277.17   14.85
   8  -5   4  265.65   14.70
  -5  -3   4  272.80   10.54
  -8   5  -7  235.79   14.78
   8  -5   7  238.23   15.01
   8  -5  10   19.57    7.30
  -8   5 -10   17.35    5.55
  -5  -3  13  143.83    6.23
   8  -5  13  165.29   14.63
   8  -5  16  209.57   16.43
  -5  -3  16  207.62    7.46
   3  -8 -16  216.22   15.00
   8  -5  19   70.20   10.18
   3  -8 -19   86.51   10.73
  -5  -3  19   88.06    5.45
  -8   5 -19   96.38   12.03
  -5  -3  22   10.70    2.99
   8  -5  22   -7.11    8.40
   3  -8 -22    5.24    4.84
  -8   5 -22   -0.95    4.52
   8  -5  25   52.90   10.27
   3  -8 -25   68.95   10.74
  -5  -3  25   69.23    6.05
   3  -8 -28   69.42   11.12
   8  -5  28   47.31   10.95
  -5  -3  28   58.00    6.31
   8  -5  31    3.80    7.19
  -5  -3  31    0.93    3.09
   8  -5  34   15.72    8.71
  -5  -3  34    3.10    3.11
   8  -5  37    4.65    7.82
  -5  -3  37   -2.97    3.76
   8  -5  40    4.45    7.67
   4  -8  39    3.57    6.59
   4  -8  36    0.79    5.84
   4   4  36   -1.71    7.16
   4   4  33   11.08    7.28
   4  -8  33   -3.56    7.65
   8  -4 -33   15.83    4.65
   4   4  30   27.19    8.99
   4  -8  30   26.24    7.73
   8  -4 -30   41.32    6.30
   8  -4 -27    4.67    2.85
  -4   8 -27   19.25    6.52
   4  -8  27   13.99    6.82
   4   4  27    2.35    6.68
   4  -8  24   11.25    5.79
  -4  -4 -24    8.05    5.42
   8  -4 -24    6.18    2.99
   4   4  24    0.69    7.88
  -4   8 -24   15.79    5.21
  -4  -4 -21   22.82    6.83
   8  -4 -21   22.18    3.84
   4  -8  21   17.57    6.16
  -4   8 -21   21.94    6.08
   4   4  21    9.61    6.62
  -4  -4 -18    9.03    5.52
   4   4  18    4.55    6.71
   8  -4 -18   12.33    3.10
   4  -8  18   11.85    5.76
   4  -8  15    9.09    5.51
   8  -4 -15    2.16    2.83
   4   4  15   -4.73    8.39
   4  -8  12  948.22   30.40
   4   4  12  919.45   29.69
  -4  -4  -9  158.70   12.33
   8  -4  -9  146.94    7.89
   4  -8   9  143.28   12.89
   8  -4  -6   18.39    3.80
  -4  -4  -6   19.58    5.60
  -4  -4  -3  481.03   17.73
   8  -4  -3  481.92   15.59
   8  -4   0  680.85   19.85
  -4  -4   0  692.09   19.56
  -8   4   0  661.01   20.18
  -8   4  -3 2153.82   38.44
   8  -4   3 2143.79   37.66
  -8   4  -6   50.25    7.23
   8  -4   6   54.44    7.89
  -8   4  -9  546.34   22.66
   8  -4   9  560.37   22.97
  -4  -4  12 1414.63   23.38
   8  -4  12 1353.89   36.90
   8  -4  15  437.53   22.47
  -4  -4  15  455.63   13.41
  -4  -4  18    3.91    2.57
   4  -8 -18    5.60    4.57
  -8   4 -18    3.07    3.60
   8  -4  21   12.99    7.25
  -8   4 -21   25.62    6.75
  -4  -4  21   19.21    3.26
   4  -8 -21   22.83    6.18
  -4  -4  24  119.06    8.63
  -8   4 -24  111.62   13.88
   8  -4  24  115.90   13.99
   4  -8 -24  129.81   13.30
  -4  -4  27    4.23    3.92
   8  -4  27    4.69    7.75
   4  -8 -27    9.83    6.18
   8  -4  30    7.77    8.99
  -4  -4  30   10.65    4.95
  -4  -4  33    6.64    4.57
   8  -4  33    7.77    7.27
   8  -4  36   38.70   11.68
  -4  -4  36   24.36    5.68
   8  -4  39   25.10   10.53
  -4  -4  39   12.12    4.44
   5  -8  40   16.24    8.05
   5  -8  37   -1.86    6.36
   8  -3 -34   27.04    5.25
   5  -8  34   29.82    9.47
   5  -8  31   18.70    7.26
   8  -3 -31   32.30    5.34
   8  -3 -28   91.90    7.66
   5  -8  28  109.78   13.79
  -5   8 -28  103.54   13.47
   3   5  25   39.09    9.43
   8  -3 -25   61.52    5.85
  -5   8 -25   45.46    8.95
   5  -8  25   55.32   10.27
  -3  -5 -22   78.16   11.53
   3   5  22   69.69   11.10
   5  -8  22   68.17   10.12
   8  -3 -22   64.24    5.23
  -5   8 -22   89.05   11.61
  -5   8 -19   -3.45    3.43
  -3  -5 -19    6.45    6.02
   8  -3 -19   -0.53    1.80
   5  -8  19    0.40    4.63
   5  -8  16   41.01    8.38
  -5   8 -16   49.06    8.18
   8  -3 -16   49.81    3.69
   8  -3 -13   42.50    3.52
   5  -8  13   47.65    9.11
   8  -3 -10  104.37    5.40
   5  -8  10   98.93   11.16
   5  -8   7    1.63    5.15
   8  -3  -7    5.36    2.49
  -3  -5  -7    5.60    5.13
  -8   3   4  329.44   12.05
  -3  -5  -4  315.75   15.60
   8  -3  -4  332.77   11.79
  -8   3   1  284.25   12.42
   8  -3  -1  277.65   12.14
   8  -3   2 2548.75   39.02
  -8   3  -2 2501.31   39.80
   8  -3   5  513.36   19.67
  -8   3  -5  493.01   19.46
   8  -3   8  247.82   15.07
  -8   3  -8  263.66   15.46
  -8   3 -11  510.18   22.73
   8  -3  11  462.97   21.75
  -3  -5  14  389.53   14.34
   8  -3  14  384.60   21.12
  -8   3 -17   -0.26    0.96
  -3  -5  17   -2.16    3.34
   8  -3  17   -3.14    7.80
  -3  -5  20   18.66    4.20
  -8   3 -20   11.97    5.10
   8  -3  20   11.27    6.66
   5  -8 -20   16.18    5.02
   5  -8 -23  196.96   15.31
  -3  -5  23  183.51   11.56
  -8   3 -23  176.34   17.06
   8  -3  23  180.44   17.42
  -3  -5  26  228.84   13.60
   5  -8 -26  229.79   17.14
   8  -3  26  210.76   19.67
   5  -8 -29   56.66    9.86
   8  -3  29   67.41   14.50
  -3  -5  29   41.56    6.68
  -3  -5  32   47.04    7.56
   8  -3  32   38.90   11.64
  -3  -5  35    9.28    5.20
   8  -3  35   17.07    9.60
  -3  -5  38   13.05    5.17
   8  -3  38   12.72    8.45
   8  -3  41    5.96    8.93
   6  -8  41    0.48    5.52
   6  -8  38   -1.51    5.86
   6  -8  35   -2.63    8.23
   8  -2 -32    0.84    2.02
   6  -8  32   -4.09    7.95
   6  -8  29   -6.13    7.66
   8  -2 -29    2.21    1.91
  -6   8 -26    2.62    4.43
   8  -2 -26    5.86    2.09
   6  -8  26    2.79    6.43
   6  -8  23    4.26    5.06
  -2  -6 -23   11.72    5.72
   8  -2 -23    3.81    1.54
  -6   8 -23    5.52    4.79
  -6   8 -20   56.13    9.23
   6  -8  20   61.36   10.16
  -2  -6 -20   55.87    9.84
  -2  -6 -17    5.57    5.10
   6  -8  17   -2.68    6.57
  -6   8 -17    2.58    3.29
  -6   8 -14   21.28    5.91
   6  -8  14   24.61    7.14
   6  -8  11    4.33    5.54
   6  -8   8  143.85   12.92
  -2  -6  -8  135.60   11.93
   8  -2  -8  140.34    5.84
   6  -8   5   56.39    9.20
  -8   2   5   51.61    4.69
   8  -2  -5   49.91    4.67
  -8   2   2   22.20    4.17
   8  -2  -2   12.10    3.81
   8  -2   1  318.40   13.86
  -8   2  -1  310.91   13.79
   8  -2   4 1861.77   35.88
  -8   2  -4 1853.52   36.00
  -8   2  -7   19.38    5.37
   8  -2   7   13.09    6.58
  -8   2 -10  525.93   22.44
   8  -2  10  456.42   21.45
   8  -2  13   51.84    9.74
  -2  -6  13   58.38    7.03
   8  -2  16   40.21    8.68
  -2  -6  16   48.49    6.30
   8  -2  19   30.21    8.00
  -8   2 -19   39.53    8.35
  -2  -6  19   23.27    5.00
   6  -8 -19   28.76    5.72
   6  -8 -22  266.91   16.90
  -2  -6  22  256.84   14.18
  -8   2 -22  266.88   20.42
   8  -2  22  248.11   19.81
  -2  -6  25  421.87   19.12
   8  -2  25  395.28   25.53
   6  -8 -25  417.29   22.36
   6  -8 -28  192.52   16.21
   8  -2  28  242.00   21.46
  -2  -6  28  192.00   13.92
   6  -8 -31   75.62   11.02
   8  -2  31  115.96   16.58
  -2  -6  31   94.94   10.52
   8  -2  34   16.18    8.97
  -2  -6  34    6.75    4.88
  -2  -6  37    7.39    4.76
   8  -2  37    4.88    7.67
  -2  -6  40    7.28    5.28
   8  -2  40    3.58    7.68
   7  -8  39   -8.09    7.15
   7  -8  36   52.73   11.50
   8  -1 -33   39.46    4.91
   7  -8  33   21.15    8.74
   8  -1 -30   51.55    4.87
   7  -8  30   36.93    9.99
   7  -8  27  113.56   14.88
   8  -1 -27  100.49    5.69
   7  -8  24   12.21    6.21
  -7   8 -24   11.43    5.18
  -1  -7 -21   56.31   10.02
  -7   8 -21   41.11    7.99
   7  -8  21   39.66    9.21
   7  -8  18    0.50    6.20
  -7   8 -18    3.09    4.54
  -1  -7 -18    6.17    5.33
  -1  -7 -15    1.61    3.19
  -7   8 -15   -0.77    4.59
   7  -8  15    1.31    5.67
  -7   8 -12   -0.16    1.56
   7  -8  12   34.20    8.71
   7  -8   9  117.31   12.25
  -8   1   6  145.46    6.76
   7  -8   6  133.54   12.79
   8  -1  -6  157.46    7.16
   8  -1  -3    4.65    4.00
   7  -8   3   -1.33    5.28
  -8   1   3    4.13    2.89
  -8   1   0  529.14   16.96
   8  -1   0  506.74   16.47
  -8   1  -3    4.42    3.96
   8  -1   3    4.13    5.33
   8  -1   6 1049.36   28.69
  -8   1  -6 1017.33   28.77
   8  -1   9    0.21    6.62
  -8   1  -9    1.97    4.00
   8  -1  12   52.94   10.69
  -1  -7  15    1.32    3.59
  -8   1 -15    2.58    3.70
  -1  -7  18   99.48    9.66
  -8   1 -18   88.94   11.27
   8  -1  18   96.95   13.00
  -1  -7  21   -0.58    4.12
   7  -8 -21   -2.18    4.42
  -8   1 -21    2.37    3.35
   7  -8 -24  324.27   18.92
  -1  -7  24  322.63   17.54
   8  -1  24  356.99   23.81
   8  -1  27   41.83   12.09
   7  -8 -27   29.38    6.90
  -1  -7  27   34.03    6.93
   7  -8 -30  165.34   14.76
   8  -1  30  176.88   18.97
  -1  -7  30  146.98   13.28
   7  -8 -33   38.77    8.13
  -1  -7  33   33.42    7.43
   8  -1  33   50.70   12.51
  -1  -7  36   19.99    6.56
   8  -1  36   14.20    9.29
   8  -1  39    9.18    9.42
  -1  -7  39   10.48    6.17
   8  -8  40    0.96    6.52
   8  -8  37   28.57   10.09
   8  -8  34   59.76   12.78
   8  -8  31  -10.26    9.06
   8  -8  28   26.30    8.55
   8  -8  25  115.78   14.86
   0  -8 -22   15.99    6.73
  -8   8 -22   17.13    6.05
   8  -8  22   18.20    7.88
   8  -8  19   -2.93    6.15
  -8   8 -19    2.85    4.79
   0  -8 -19    4.45    5.12
   8  -8  16   58.92   10.28
  -8   8 -16   67.56   10.14
   0  -8 -16   63.98    9.59
  -8   8 -13    0.38    1.18
   0  -8 -13   -0.49    1.47
   8  -8  10  247.85   17.41
  -8   0   7 1149.72   17.34
   8  -8   7 1171.79   34.67
   8   0  -4  601.77   15.29
  -8   0   4  592.13   15.80
   8  -8   4  605.86   24.11
   8   0  -1   83.27    7.60
  -8   0   1   82.33    7.33
   8  -8   1   81.84   10.08
   8   0   2   83.68    9.25
  -8   0  -2   64.52    7.67
  -8   0  -5  208.95   13.11
   8   0   5  193.11   13.47
   8   0   8   40.90   10.11
  -8   0  -8    6.01    5.10
   8   0  11   70.05   10.10
  -8   0 -14    5.23    5.39
   0  -8  14   -0.59    4.07
   0  -8  17   21.52    5.69
   8   0  17   28.56    9.28
  -8   0 -17   16.88    5.73
   8   0  20   60.95   11.51
  -8   0 -20   72.44   11.19
   8  -8 -20   51.76    7.53
   0  -8  20   48.07    7.93
   8  -8 -23  243.19   15.19
   0  -8  23  221.72   15.74
   8   0  23  245.29   19.72
   0  -8  26    0.03    4.01
   8  -8 -26   10.28    5.24
   8   0  29  180.17   19.09
   0  -8  29  184.55   15.55
   8  -8 -29  192.17   15.07
   8   0  32    9.43    8.61
   8  -8 -32   28.64    7.03
   0  -8  32    8.85    5.00
   0  -8  35    4.51    4.77
   8   0  35    5.58    8.83
   0  -8  38    0.06    4.54
   8   0  38    0.67    7.57
   8   0  41   12.09    8.71
   0  -8  41    3.34    4.95
   1  -9  40   14.56    6.54
   8   1  40    6.48    7.94
   1  -9  37    2.47    4.66
   8   1  37   22.83   10.62
   1  -9  34   -9.02    7.36
   9  -8 -34    1.77    3.49
   8   1  34    0.60    6.54
   9  -8 -31    3.56    4.58
   8   1  31    3.37    8.42
   1  -9  31    3.43    4.70
   9  -8 -28   54.72    8.20
   1  -9  28   54.52    9.38
   8   1  28   51.29   11.47
   1  -9  25   34.94    7.67
   9  -8 -25   47.10    7.36
   8   1  25   45.17   12.05
   1  -9  22   21.71    6.50
   9  -8 -22   15.57    4.89
   8   1  22   33.92   10.64
   8   1  19   12.24    8.18
   1  -9  19    3.51    4.32
  -8  -1 -19   -6.01    6.03
  -8  -1 -16   -3.33    6.17
   8   1  16    8.83    7.27
   1  -9  16    7.69    4.91
   1  -9  13   43.64    7.76
   8   1  13   47.88    9.32
  -8  -1 -13   38.29    7.44
   8   1  10   83.14   10.72
  -8  -1  -7   -4.36    5.44
   8   1   7    1.51    7.16
  -8  -1  -4   25.85    5.76
   8   1   4   41.14    8.38
   9  -8  -1   53.83    8.64
  -8  -1  -1   43.93    6.26
   8   1   1   54.79    7.64
   9  -8   2  150.83   13.02
  -8  -1   2  145.90    9.35
   8   1  -2  157.25    9.23
   9  -8   5  100.11   11.17
  -8  -1   5  101.47    6.81
  -8  -1   8  117.86    5.61
   9  -8   8  122.82   12.92
   9  -8  11    5.01    5.11
   9  -8  14    3.40    5.50
  -9   8 -14   -1.29    2.06
   1  -9 -14    6.21    4.86
  -9   8 -17   -3.10    4.24
   1  -9 -17   -0.58    4.58
   9  -8  17    0.41    5.86
   9  -8  20   21.86    8.38
  -9   8 -20   16.84    6.00
   1  -9 -20   11.49    6.41
   9  -8  23    1.34    6.95
   9  -8  26    0.09    7.32
   9  -8  29   -1.00    7.99
   9  -8  32   -6.71    8.06
   9  -8  35   -0.10    7.28
   9  -8  38   40.08   11.66
   2  -9  38    2.63    5.87
   7   2  38   -6.86    7.99
   2  -9  35   -3.06    6.07
   7   2  35   -5.03    7.21
   9  -7 -32    3.76    3.60
   7   2  32   -5.36    8.38
   2  -9  32   -4.18    5.83
   7   2  29   34.63   11.02
   9  -7 -29   48.22    7.91
   2  -9  29   53.71   10.07
   9  -7 -26   12.23    5.15
   2  -9  26   15.65    6.58
   7   2  26   10.26    8.89
   2  -9  23  116.58   12.62
   7   2  23  119.36   15.13
   9  -7 -23  132.20   10.67
   9  -7 -20  236.80   13.19
   7   2  20  220.62   18.37
  -7  -2 -20  222.39   18.52
   2  -9  20  219.65   16.35
   2  -9  17    5.61    4.62
  -7  -2 -17   -1.61    4.20
   7   2  14    9.60    7.96
   2  -9  14   -1.12    4.54
  -7  -2 -14   -2.35    5.48
   2  -9  11   24.67    7.04
   7   2  11   28.65    8.25
   7   2   8   17.20    6.63
  -7  -2  -8    8.50    5.75
   7   2   5  129.41   11.30
  -7  -2  -5  122.29   10.95
  -7  -2  -2   11.53    5.61
   7   2   2   -6.05    6.00
   9  -7  -2    1.07    5.12
   9  -7   1   83.65    9.73
  -7  -2   1   85.27    7.82
  -7  -2   4  134.19    8.29
   9  -7   4  146.63   12.79
   9  -7   7  101.41   10.92
  -7  -2   7  125.88    6.70
  -9   7  -7  121.80   11.70
  -7  -2  10    2.16    1.44
   9  -7  10    1.12    6.07
   9  -7  13   -0.68    5.42
   2  -9 -16  217.90   16.09
  -9   7 -16  219.91   17.61
   9  -7  16  214.53   17.35
   2  -9 -19  143.71   13.93
  -9   7 -19  134.61   14.32
   9  -7  19  126.19   14.22
  -9   7 -22    8.15    4.72
   2  -9 -22    6.95    5.26
   9  -7  22   11.52    6.40
   9  -7  25   10.04    8.12
   9  -7  28    4.19    7.17
   9  -7  31    3.67    8.13
   9  -7  34   20.59    9.43
   9  -7  37   45.35   10.91
   9  -7  40   11.01    7.86
   6   3  39    3.41    6.23
   3  -9  39   -1.19    5.97
   3  -9  36   29.80    8.56
   6   3  36   28.69   10.31
   3  -9  33   53.51   10.22
   6   3  33   70.38   12.87
   9  -6 -33   68.93    8.87
   9  -6 -30   21.98    5.35
   3  -9  30   34.30    8.96
   6   3  30   17.38    8.37
   3  -9  27   50.91    9.45
   9  -6 -27   45.62    6.71
   6   3  27   47.53   11.02
   9  -6 -24   24.91    5.32
   3  -9  24   16.63    6.65
   6   3  24   15.80    8.96
   6   3  21   58.69   10.21
  -6  -3 -21   64.16   10.75
   3  -9  21   74.00   10.30
   9  -6 -21   73.71    7.27
  -6  -3 -18  121.20   13.41
   3  -9  18  147.54   13.45
   6   3  18  103.25   12.68
   6   3  15  264.67   17.76
   3  -9  15  286.82   18.14
  -6  -3 -15  274.63   18.82
   6   3  12  278.89   17.50
   3  -9  12  324.49   18.60
  -6  -3  -9   14.98    6.94
   6   3   9    1.23    7.52
   9  -6  -6    3.97    4.17
   6   3   6   -5.39    7.99
   6   3   3  116.37    9.67
   9  -6  -3  145.61   10.48
  -6  -3  -3  144.58   11.16
  -6  -3   0  732.84   20.95
   9  -6   0  760.04   23.68
   9  -6   3   92.95   10.12
  -9   6  -3   87.03    9.25
  -6  -3   3   99.07    7.74
  -9   6  -6   14.16    5.55
   9  -6   6    9.72    5.83
  -6  -3   6   18.82    4.14
   9  -6   9   67.07    9.25
  -6  -3   9   67.90    4.75
   9  -6  12   80.93   11.22
  -6  -3  12   63.07    3.88
  -6  -3  12   68.08    4.38
  -6  -3  15    5.20    1.39
  -9   6 -15    0.25    0.93
   3  -9 -18   37.13    7.45
  -9   6 -18   27.91    6.84
   9  -6  18   45.76    9.65
  -6  -3  18   31.09    2.69
  -9   6 -21   28.12    7.37
   9  -6  21   24.62    7.80
   3  -9 -21   39.49    8.27
  -6  -3  21   40.33    3.40
   9  -6  24   -2.16    8.01
  -6  -3  24    5.07    2.03
   3  -9 -24    2.57    5.09
   9  -6  27    3.84    8.16
  -6  -3  27    8.32    2.54
   9  -6  30   -5.62    8.40
  -6  -3  30    0.22    2.31
   9  -6  33    3.93    7.72
  -6  -3  33   -1.56    2.73
   9  -6  36   15.63    8.94
   9  -6  39   27.97   10.79
   4  -9  40    0.49    5.47
   4  -9  37    3.06    5.89
   5   4  37  -12.92    8.44
   5   4  34   -2.42    8.41
   4  -9  34  -17.18    8.46
   4  -9  31   13.37    7.10
   5   4  31   -5.12    8.15
   9  -5 -31    6.58    3.22
   9  -5 -28    0.62    3.32
   5   4  28   -0.21    7.06
   4  -9  28    5.43    6.11
   4  -9  25   11.80    5.42
   9  -5 -25   20.87    4.40
   5   4  25    2.89    7.91
   4  -9  22   13.82    6.52
   5   4  22   15.37    6.61
  -5  -4 -22   13.99    6.05
   9  -5 -22   23.74    4.43
   5   4  19  180.55   15.93
   9  -5 -19  195.34    9.82
   4  -9  19  196.19   15.94
  -5  -4 -19  194.73   16.71
   4  -9  16  447.69   22.47
   5   4  16  435.08   22.72
   4  -9  13   42.55    8.33
   5   4  13   44.53    8.86
   9  -5 -10   46.94    5.47
   4  -9  10   39.70    8.16
  -5  -4  -7   81.94    9.72
   9  -5  -7   80.22    7.12
  -5  -4  -4   22.97    6.18
   9  -5  -4   16.22    4.66
  -9   5   1 1698.65   34.07
  -5  -4  -1 1668.01   32.70
   9  -5  -1 1685.07   33.02
  -9   5  -2 1084.86   28.95
  -5  -4   2 1112.63   24.62
   9  -5   2 1115.38   28.70
  -5  -4   5 1404.22   25.72
  -9   5  -5 1449.98   35.56
   9  -5   5 1397.25   34.44
  -9   5  -8   23.21    6.29
   9  -5   8   24.13    7.89
   9  -5  11  116.98   12.82
   9  -5  14   77.52   11.16
  -5  -4  14   66.86    5.13
  -9   5 -17  179.13   15.78
  -5  -4  17  179.70    8.13
   9  -5  17  164.25   15.16
  -5  -4  20  233.38    9.76
   4  -9 -20  252.05   17.44
   9  -5  20  204.52   17.57
  -9   5 -20  235.52   18.86
  -5  -4  23   27.08    4.15
   9  -5  23   16.36    7.25
   4  -9 -23   32.60    7.85
   9  -5  26  190.67   18.77
   4  -9 -26  203.26   17.54
  -5  -4  26  214.10   10.89
   9  -5  29   12.38    8.30
  -5  -4  29    9.22    3.68
   9  -5  32   15.06    9.16
  -5  -4  32   11.28    3.86
   9  -5  35   25.30   10.77
  -5  -4  35   -1.27    3.16
   9  -5  38   15.82    9.48
   9  -5  41    9.30    7.92
   5  -9  41   -5.37    6.87
   5  -9  38    1.25    6.12
   5  -9  35   40.35    9.68
   5  -9  32  -32.57    9.64
   9  -4 -32    2.25    2.38
   4   5  29    5.49    8.60
   9  -4 -29   18.91    4.14
   5  -9  29   19.47    8.15
   9  -4 -26   70.04    6.25
  -5   9 -26   78.13   11.96
   4   5  26   46.37   10.36
   5  -9  26   65.45   11.04
   5  -9  23   28.93    7.62
   9  -4 -23   22.40    3.58
   4   5  23   15.54    6.74
  -5   9 -23   23.07    6.74
  -4  -5 -20   30.59    7.55
   5  -9  20   18.95    6.71
   9  -4 -20   29.44    3.72
   5  -9  17   85.65   10.94
   9  -4 -17   70.56    4.97
  -4  -5 -17   90.33   11.87
  -4  -5 -14   -0.25    1.74
   5  -9  14   75.14   10.72
   9  -4 -11   15.07    3.11
   5  -9  11   13.08    6.59
   9  -4  -8    1.72    2.88
   5  -9   8   -2.58    6.37
  -4  -5  -8    5.18    6.08
  -4  -5  -5   24.43    6.00
   9  -4  -5   16.93    3.90
   9  -4  -2  126.88    9.15
  -4  -5  -2  122.96    9.96
  -9   4   2  125.15    8.99
  -9   4  -1 1754.47   34.97
   9  -4   1 1728.01   33.41
  -9   4  -4  259.22   14.85
   9  -4   4  285.85   15.41
   9  -4   7   10.48    6.03
  -9   4  -7    8.06    4.05
   9  -4  10   15.96    8.06
   9  -4  13   -5.40    9.55
  -4  -5  13   11.50    3.50
  -4  -5  16    7.86    2.95
  -9   4 -16    3.73    3.32
  -4  -5  19   22.01    4.09
   9  -4  19    7.35    6.70
   5  -9 -19   13.35    5.03
  -9   4 -19   17.21    6.43
   9  -4  22    2.66    6.00
  -4  -5  22   -0.72    2.48
  -9   4 -22   -2.44    5.26
   5  -9 -22   -3.97    3.79
  -4  -5  25   78.90    7.59
   5  -9 -25   89.30   11.67
   9  -4  25   88.12   13.49
   5  -9 -28   13.15    6.74
   9  -4  28   -0.97    8.05
  -4  -5  28    0.55    3.44
  -4  -5  31    5.86    4.33
   9  -4  31    9.32    9.39
   9  -4  34   81.77   14.75
  -4  -5  34   64.28    8.17
   9  -4  37   13.24    8.11
  -4  -5  37   -0.08    3.18
   9  -4  40    4.06    7.47
   6  -9  39    3.74    5.21
   6  -9  36    7.03    5.79
   6  -9  33   36.83    9.00
   6  -9  30    5.07    7.05
   9  -3 -30    1.88    1.89
   9  -3 -27    5.84    2.11
   6  -9  27   12.56    7.18
  -6   9 -24   33.22    7.99
   6  -9  24   36.61    8.83
   9  -3 -24   35.16    3.49
  -6   9 -21    7.34    4.79
   9  -3 -21    5.43    1.45
  -3  -6 -21   13.89    5.91
   6  -9  21    1.48    5.02
   6  -9  18    2.72    5.47
  -3  -6 -18    9.07    6.30
  -3  -6 -15    0.30    2.24
   6  -9  15  269.20   18.55
   9  -3 -12    9.74    1.76
   6  -9  12   13.37    6.15
   9  -3  -9   17.25    2.86
   6  -9   9   15.48    7.78
   6  -9   6  283.78   17.82
   9  -3  -6  266.20   10.28
  -3  -6  -6  270.48   15.52
   9  -3  -3  278.46   12.22
  -9   3   3  273.38   12.18
  -9   3   0  488.93   17.71
   9  -3   0  476.06   17.46
  -9   3  -3   29.87    5.80
   9  -3   3   47.11    8.14
  -9   3  -6    2.16    4.59
   9  -3   6  -12.29    9.24
  -9   3  -9   38.31    7.18
   9  -3   9   16.23    8.16
   9  -3  12   33.50    8.10
  -9   3 -15   19.10    5.85
  -3  -6  15   21.35    4.60
   9  -3  15   22.60    7.99
  -9   3 -18  105.15   12.67
  -3  -6  18   97.28    8.28
   9  -3  18   98.25   12.35
   6  -9 -21   30.27    6.64
   9  -3  21   24.87    8.58
  -9   3 -21   22.44    6.70
  -3  -6  21   28.30    5.19
   6  -9 -24   -0.06    3.90
  -3  -6  24    3.26    3.33
   9  -3  27    5.77    7.49
  -3  -6  27   -5.53    5.27
   6  -9 -27    6.01    5.87
   6  -9 -30   56.33    9.68
  -3  -6  30   45.03    7.05
  -3  -6  33  113.59   11.08
   9  -3  33  145.00   18.30
  -3  -6  36   15.26    5.66
   9  -3  36   18.77    8.39
  -3  -6  39    4.54    4.52
   9  -3  39   25.24   10.65
   7  -9  40    0.02    6.59
   7  -9  37    3.39    6.35
   7  -9  34   23.55    8.39
   9  -2 -31   80.80    5.61
   7  -9  31   75.93   12.37
   9  -2 -28   34.77    3.17
   7  -9  28   42.03   10.21
   7  -9  25    3.55    6.30
  -2  -7 -22   23.66    7.86
  -7   9 -22   13.38    6.10
   7  -9  22    8.14    6.58
  -2  -7 -19   72.00   10.88
   7  -9  19   69.25   10.84
  -7   9 -19   77.52   10.94
  -2  -7 -16  222.90   16.69
  -7   9 -16  213.56   17.10
   7  -9  16  194.23   16.27
   7  -9  13   20.72    7.87
   7  -9  10  114.55   12.41
   9  -2 -10  120.23    4.64
  -2  -7  -7   33.49    6.55
   9  -2  -7   38.17    3.99
   7  -9   7   33.72    8.76
  -9   2   4  242.47   10.89
   7  -9   4  261.41   17.66
   9  -2  -4  244.62   10.75
   9  -2  -1   58.31    6.75
  -9   2   1   69.48    6.88
  -9   2  -2   11.57    4.08
   9  -2   2   11.52    5.23
   9  -2   5  450.91   19.54
  -9   2  -5  453.67   19.46
  -9   2  -8    1.17    4.35
   9  -2   8   -5.58    7.22
   9  -2  11  836.43   30.15
  -2  -7  14  335.61   15.90
  -9   2 -14  342.69   20.33
   9  -2  14  323.91   20.13
  -2  -7  17  113.54   10.06
  -9   2 -17  111.71   12.80
   9  -2  17  103.42   12.45
   9  -2  20  368.25   23.54
  -9   2 -20  390.27   24.53
  -2  -7  20  381.25   17.66
   7  -9 -20  409.00   20.75
  -2  -7  23    2.12    3.43
   7  -9 -23   -1.06    4.04
   7  -9 -26    6.96    5.14
  -2  -7  26    8.02    4.40
   9  -2  29   13.20    8.95
  -2  -7  29   -5.67    5.48
   7  -9 -29    2.72    5.28
   9  -2  32   20.76    9.06
   7  -9 -32   16.49    6.24
  -2  -7  32   12.49    5.00
  -2  -7  35   18.70    6.32
   9  -2  35   20.99    9.27
  -2  -7  38   12.05    5.31
   9  -2  38   16.85    9.52
   8  -9  38   -3.80    7.20
   8  -9  35    0.34    7.21
   8  -9  32   -7.33    7.95
   8  -9  29   32.74    9.34
   8  -9  26  109.16   14.52
   8  -9  23   84.24   12.63
  -1  -8 -20   20.17    6.40
  -8   9 -20   17.14    6.37
   8  -9  20   24.21    7.27
  -8   9 -17   24.04    6.91
   8  -9  17   24.66    7.18
  -1  -8 -17   29.90    7.93
   8  -9  14  455.33   24.32
  -8   9 -14  484.52   25.42
   8  -9  11  577.72   26.55
   8  -9   8  156.71   14.43
   9  -1  -8  166.04    6.43
  -9   1   8  165.38    6.71
   8  -9   5   -8.27    8.04
  -9   1   5    2.90    2.70
  -9   1   2   25.81    4.54
   9  -1  -2   43.02    6.32
   8  -9   2   35.66    8.68
   9  -1   1  350.89   15.57
  -9   1  -1  331.06   14.91
   9  -1   4   61.18    9.39
  -9   1  -4   41.54    6.84
  -9   1  -7  380.30   18.78
   9  -1   7  394.83   19.85
   9  -1  10   40.04    9.18
   9  -1  13   15.95    8.27
  -9   1 -13   11.86    5.21
   9  -1  16   66.36   11.31
  -1  -8  16   51.58    7.42
  -9   1 -16   58.64    9.50
  -9   1 -19  300.52   21.19
   9  -1  19  311.19   21.75
  -1  -8  19  313.47   17.07
  -1  -8  22    4.93    3.91
   8  -9 -22   -0.28    4.02
   8  -9 -25   30.88    7.24
  -1  -8  25   29.57    6.57
   9  -1  25   40.82   10.70
   8  -9 -28    4.31    4.68
   9  -1  28   20.31   10.45
  -1  -8  28    7.52    5.13
   9  -1  31   22.88   10.60
  -1  -8  31    3.35    4.37
   8  -9 -31   20.50    6.96
  -1  -8  34   13.81    5.82
   9  -1  34   22.18    9.85
  -1  -8  37   22.50    6.46
   9  -1  37   30.42   11.75
  -1  -8  40    8.59    5.22
   9  -1  40    1.22    8.03
   9  -9  39   -3.94    6.69
   9  -9  36   -1.59    8.23
   9  -9  33   -9.07    7.89
   9  -9  30   -3.82    9.28
   9  -9  27  111.59   15.40
   9  -9  24    3.70    7.77
   9  -9  21   -2.30    6.69
  -9   9 -18   62.71   10.27
   9  -9  18   59.17   10.64
   0  -9 -18   62.89    9.67
   0  -9 -15    9.12    5.50
  -9   9 -15   13.96    5.36
   9  -9  15    7.42    5.95
   0  -9 -12   -1.27    2.65
  -9   9 -12   -0.63    1.07
   9  -9   9  183.52   15.62
  -9   0   9  174.86    6.07
   9   0  -6   22.29    3.62
  -9   0   6   18.59    3.19
   9  -9   6   24.15    8.46
  -9   0   3   19.11    4.21
   9  -9   3   15.53    6.94
   9   0  -3   19.84    4.84
   9   0   0   38.98    7.07
   9  -9   0   32.84    7.55
  -9   0   0   36.52    6.09
  -9   0  -3   74.17    8.74
   9   0   3   93.14   10.05
   9   0   6   55.92    9.58
  -9   0  -6   24.31    5.93
   9   0   9   47.14    9.69
  -9   0 -12  188.16   15.20
   9   0  12  223.76   16.99
   0  -9  15   44.20    7.40
  -9   0 -15   44.78    8.28
   9   0  15   67.31   10.48
   9   0  18   49.94   10.63
   0  -9  18   49.44    7.74
  -9   0 -18   50.43    9.18
   9   0  21   79.63   12.17
   0  -9  21   76.08    9.61
   9   0  24   64.92   12.85
   9  -9 -24   51.47    8.06
   0  -9  24   59.19    8.82
   9   0  27   68.33   13.52
   9  -9 -27   52.87    8.55
   0  -9  27   46.12    8.41
   0  -9  30   10.59    5.53
   9  -9 -30   17.83    6.40
   9   0  30    9.41    7.96
   9  -9 -33   30.43    7.51
   0  -9  33   23.52    6.81
   9   0  33   33.94   10.62
   9   0  36   50.76   12.98
   0  -9  36   33.35    7.98
   0  -9  39   17.87    6.56
   9   0  39   18.79   10.26
   1 -10  38   -1.17    4.85
   9   1  38   14.28    9.16
   9   1  35   29.10   11.21
   1 -10  35   17.96    6.62
   9   1  32   49.43   13.04
  10  -9 -32   33.40    7.30
   1 -10  32   40.38    8.66
   1 -10  29   -0.63    4.52
   9   1  29    4.39    6.82
  10  -9 -29    4.87    4.81
   1 -10  26   -2.83    6.04
   9   1  26    4.98    8.71
  10  -9 -26    5.01    4.15
   9   1  23  232.61   20.05
   1 -10  23  214.15   17.10
  10  -9 -23  228.65   14.92
   1 -10  20   60.88    9.54
   9   1  20   57.61   11.88
  -9  -1 -17  111.88   13.16
   9   1  17  124.80   14.38
   1 -10  17  107.86   11.80
   1 -10  14  109.54   11.71
  -9  -1 -14  107.15   12.40
   9   1  14  105.30   12.80
   9   1  11   34.26    8.48
  -9  -1 -11   32.00    6.96
   9   1   8   71.04   10.50
  -9  -1  -5   67.45    8.44
   9   1   5   70.55    9.31
  10  -9  -2   71.32    9.64
   9   1   2   68.94    8.49
  -9  -1  -2   58.95    7.25
   9   1  -1   64.36    7.22
  10  -9   1   61.49    9.45
  -9  -1   1   54.49    6.40
  10  -9   4    3.77    4.85
   9   1  -4   -2.63    3.92
  -9  -1   4    6.38    3.20
  10  -9   7   42.44    9.59
  -9  -1   7   38.76    4.32
 -10   9 -10  233.04   17.68
  -9  -1  10  207.50    6.34
  10  -9  10  201.04   16.10
 -10   9 -13  285.39   20.15
  10  -9  13  267.19   19.31
  10  -9  16   16.00    7.72
 -10   9 -16   18.88    6.31
   1 -10 -16   15.31    5.92
  10  -9  19   16.47    7.52
   1 -10 -19    9.88    6.21
 -10   9 -19   12.67    5.64
  10  -9  22   21.58    9.11
  10  -9  25   11.08    7.79
  10  -9  28   10.52    7.39
  10  -9  31   75.40   13.76
  10  -9  34   -3.32    7.97
  10  -9  37   13.20    9.08
   8   2  39   12.09    8.86
   2 -10  39   17.03    6.68
   2 -10  36    3.78    4.87
   8   2  36    4.40    7.59
   8   2  33    2.12    7.82
   2 -10  33   23.08    7.39
  10  -8 -30   10.23    5.38
   2 -10  30    8.25    5.60
   8   2  30    9.89    8.37
  10  -8 -27    5.95    4.27
   2 -10  27   -4.65    5.13
   8   2  27   -0.51    6.80
   8   2  24    4.55    7.35
   2 -10  24    0.08    5.24
  10  -8 -24    1.66    3.66
   2 -10  21   76.62   10.88
   8   2  21   61.23   12.06
  10  -8 -21   42.39    6.59
  -8  -2 -18   -2.37    4.55
   2 -10  18   -0.82    4.69
   8   2  18    0.35    4.92
   8   2  15  105.19   12.89
  -8  -2 -15   87.72   11.47
   2 -10  15   85.10   10.71
  -8  -2 -12  391.32   21.76
   2 -10  12  388.00   21.07
   8   2  12  362.20   20.51
   8   2   9  330.17   18.81
  -8  -2  -6  369.50   18.91
   8   2   6  363.32   18.03
  -8  -2  -3    0.23    4.33
   8   2   3    1.55    5.47
  10  -8  -3    0.26    4.63
  10  -8   0    1.79    4.77
  -8  -2   0    2.50    3.80
   8   2   0   -5.01    5.80
  10  -8   3   45.63    8.50
  -8  -2   3   52.88    6.00
  -8  -2   6  116.44    7.32
  10  -8   6  110.15   12.16
  -8  -2   9  279.51    9.09
  10  -8   9  263.77   18.03
 -10   8 -12  527.32   26.30
  10  -8  12  512.62   25.48
  10  -8  15  161.98   15.21
 -10   8 -15  185.64   16.41
  10  -8  18  230.67   18.87
 -10   8 -18  232.82   19.28
   2 -10 -18  252.44   18.84
   2 -10 -21   13.16    6.79
  10  -8  21   20.93    7.56
  10  -8  24    8.97    8.53
  10  -8  27   -5.67    8.39
  10  -8  30   -1.51    9.11
  10  -8  33    0.27    7.87
  10  -8  36    5.80    7.21
  10  -8  39    0.02    6.95
   7   3  40   -4.51    7.97
   3 -10  40   -2.16    6.14
   7   3  37    1.09    6.16
   3 -10  37   -5.02    6.60
   3 -10  34   -1.99    6.32
   7   3  34   17.85    9.32
  10  -7 -31   54.13    7.64
   7   3  31   60.94   13.00
   3 -10  31   67.54   11.53
  10  -7 -28    8.38    4.09
   3 -10  28    6.15    6.26
  10  -7 -25   40.72    6.25
   3 -10  25   33.33    8.22
   7   3  25   27.99    9.31
   3 -10  22   -0.65    5.12
   7   3  22    1.10    7.01
  10  -7 -22    1.29    2.82
  -7  -3 -19   89.50   12.36
   3 -10  19   82.22   10.66
   7   3  19   71.56   10.96
  -7  -3 -16    0.79    3.61
   7   3  16    2.93    5.33
   3 -10  16    8.05    5.56
   3 -10  13   12.08    5.72
  -7  -3 -13    3.88    4.55
   7   3  13   13.30    7.04
   7   3  10   28.38    7.52
  10  -7  -7  210.22   12.97
   7   3   7  204.18   14.11
  -7  -3  -7  232.77   15.44
   7   3   4   63.66    8.10
  10  -7  -4   65.82    8.18
  10  -7  -1  264.11   15.33
  -7  -3  -1  315.43   15.09
  10  -7   2  117.81   11.67
  -7  -3   2  145.30    9.83
 -10   7  -5  124.05   11.84
  -7  -3   5  121.15    8.05
  10  -7   5  107.40   11.21
  10  -7   8    0.36    6.57
  -7  -3   8    4.78    3.14
 -10   7 -11  201.03   15.98
  -7  -3  11  176.70    6.93
  10  -7  11  181.51   15.24
  -7  -3  14    0.64    0.91
  -7  -3  14    1.63    1.02
 -10   7 -14   -2.56    4.65
  10  -7  17   52.86    9.89
   3 -10 -17   49.20    8.91
 -10   7 -17   49.08    9.45
   3 -10 -20   80.41   11.39
  10  -7  20   92.24   13.18
 -10   7 -20   86.57   12.16
  10  -7  23  144.04   16.04
   3 -10 -23  173.37   16.46
  10  -7  26   -5.68    8.99
  10  -7  29   68.69   13.34
  10  -7  32   -7.25    8.48
  10  -7  35   12.00    8.96
  10  -7  38   10.39    8.67
   4 -10  38   17.26    6.99
   6   4  38   35.02   10.66
   6   4  35   53.61   11.80
   4 -10  35   48.15   10.31
   6   4  32   -3.29    6.99
  10  -6 -32   -1.23    3.44
   4 -10  32    6.41    5.76
  10  -6 -29   10.98    4.01
   6   4  29    0.94    7.03
   4 -10  29   13.78    7.02
   4 -10  26   13.84    6.66
  10  -6 -26   24.65    4.96
   6   4  26   13.87    8.68
  10  -6 -23   84.70    7.53
   6   4  23   70.84   11.37
   4 -10  23   76.96   11.49
  -6  -4 -20   79.93   12.07
   4 -10  20   66.64   10.51
   6   4  20   62.56   10.56
  10  -6 -20   74.39    6.68
   6   4  17   -9.82    7.86
  -6  -4 -17    2.17    4.48
   4 -10  17   -0.39    5.06
   4 -10  14  126.36   13.15
   6   4  14  108.88   12.05
  -6  -4 -14  115.68   12.79
   6   4  11   -3.83    8.38
   4 -10  11   16.63    6.45
  10  -6  -8   80.61    7.65
   6   4   8   78.64    9.76
  -6  -4  -5   51.33    8.05
  10  -6  -5   48.79    6.74
  -6  -4  -2   69.71    8.75
  10  -6  -2   55.24    7.49
  -6  -4   1  176.18   11.38
 -10   6  -1  190.34   13.09
  10  -6   1  174.68   12.55
 -10   6  -4  861.12   28.56
  -6  -4   4  837.76   20.97
  10  -6   4  834.33   27.87
  -6  -4   7   72.51    6.25
  10  -6   7   70.51    9.96
  10  -6  10   81.34   10.98
  -6  -4  13   46.94    4.47
 -10   6 -13   49.50    8.95
  10  -6  13   50.27    9.27
 -10   6 -16  254.49   18.78
  10  -6  16  232.11   17.94
  -6  -4  16  221.51    8.31
 -10   6 -19  327.26   22.49
   4 -10 -19  320.57   20.09
  10  -6  19  273.13   20.19
  -6  -4  19  283.59    9.24
  -6  -4  22   65.55    4.77
  10  -6  22   43.98   10.97
   4 -10 -22   51.34    8.85
  -6  -4  25   87.29    5.84
  10  -6  25   92.13   14.26
  -6  -4  28    3.57    2.51
  10  -6  28  -12.07    9.71
  -6  -4  31   10.48    3.11
  10  -6  31   17.92    9.94
  10  -6  34    9.14    9.45
  -6  -4  34    2.23    2.09
  10  -6  37   19.26    9.47
  10  -6  40   16.78    9.43
   5 -10  39   22.15    8.92
   5 -10  36    5.52    5.96
   5 -10  33    2.69    5.75
  10  -5 -30    1.85    2.42
   5 -10  30    1.59    5.50
   5 -10  27   12.01    6.82
  10  -5 -27    3.83    2.46
   5   5  27    4.58    7.40
   5 -10  24    9.09    6.66
  10  -5 -24   12.33    3.27
   5   5  24   -2.22    8.31
  10  -5 -21    6.40    3.00
   5 -10  21   -1.33    5.87
   5   5  21   -9.30    8.46
   5   5  18   70.53   11.41
  10  -5 -18   76.15    5.69
  -5  -5 -18   90.69   12.22
   5 -10  18   90.90   11.97
  -5  -5 -15   60.66   10.30
   5 -10  15   37.34    8.41
   5 -10  12   37.78    8.39
  10  -5 -12   31.41    4.37
  -5  -5 -12   46.83    8.57
   5 -10   9  301.21   19.23
  10  -5  -9  287.88   12.05
  10  -5  -6  127.66    9.21
  -5  -5  -6  120.54   11.30
  10  -5  -3   50.53    6.96
  -5  -5  -3   69.12    8.95
 -10   5   0   19.90    5.37
  -5  -5   0   19.64    5.30
  10  -5   0   19.48    5.90
  10  -5   3   37.67    7.47
  -5  -5   3   29.72    5.38
 -10   5  -3   33.78    6.52
 -10   5  -6 1576.63   38.85
  10  -5   6 1476.36   37.17
  10  -5   9    7.27    6.53
  10  -5  12   68.55   10.74
 -10   5 -12   60.03    9.10
  -5  -5  15   33.07    4.34
 -10   5 -15   39.71    8.01
  10  -5  18   29.96    8.66
  -5  -5  18   58.98    5.44
 -10   5 -18   51.32    9.70
   5 -10 -21    3.57    4.60
  10  -5  21   -1.84    8.50
  -5  -5  21    6.93    2.59
  10  -5  24   -2.40    7.81
  -5  -5  24   -2.57    3.18
   5 -10 -24   -0.75    4.40
  10  -5  27   94.00   14.07
  -5  -5  27   85.65    7.26
  -5  -5  30   18.37    4.93
  10  -5  30   13.88    8.86
  -5  -5  33    1.74    3.18
  10  -5  33   11.37    9.91
  10  -5  36    1.85    6.84
  -5  -5  36    0.89    2.98
  10  -5  39   38.40   11.73
   6 -10  40    7.98    6.64
   6 -10  37   44.50   11.23
   6 -10  34  110.02   15.34
   6 -10  31  117.60   15.29
  10  -4 -31  102.07    7.43
   6 -10  28   60.53   11.37
  10  -4 -28   56.46    5.03
  10  -4 -25  107.09    6.30
   6 -10  25  111.63   14.31
  10  -4 -22   63.02    4.49
   6 -10  22   64.69   10.77
   6 -10  19  175.55   16.06
  -4  -6 -19  184.80   16.69
  10  -4 -19  166.90    6.50
   6 -10  16  165.81   15.15
  10  -4 -16  183.84    6.81
  -4  -6 -16  202.81   16.41
  10  -4 -16  187.14    7.17
   6 -10  13   55.37    9.80
  -4  -6 -13   70.80   10.16
  10  -4 -13   48.12    4.18
   6 -10  10    7.48    5.71
  10  -4 -10    4.32    2.25
  10  -4  -7   52.54    5.52
   6 -10   7   50.25    9.31
  10  -4  -4    0.48    3.42
  -4  -6  -4   -2.43    5.18
  10  -4  -1   49.50    7.13
 -10   4   1   52.42    6.59
  -4  -6  -1   38.69    6.28
 -10   4  -2    4.15    4.29
  10  -4   2    6.92    5.88
 -10   4  -5   17.42    5.66
  10  -4   5   24.76    7.44
  10  -4   8  505.08   22.50
  10  -4  11   10.13    6.49
  -4  -6  14   30.83    4.95
  10  -4  14   18.11    6.95
 -10   4 -14   37.99    7.63
  -4  -6  17   79.96    7.20
  10  -4  17   74.88   11.20
 -10   4 -17   92.51   11.97
   6 -10 -20   11.60    5.46
  10  -4  20   21.21    8.40
  -4  -6  20   17.47    3.95
 -10   4 -20   12.37    5.32
  -4  -6  23   64.02    6.98
  10  -4  23   66.34   12.02
   6 -10 -23   74.77   10.49
   6 -10 -26   10.81    6.01
  10  -4  26    9.28    8.85
  -4  -6  26   -0.65    3.79
  10  -4  29   35.75   10.20
  -4  -6  29   20.53    5.06
  10  -4  32   24.55   10.88
  -4  -6  32   12.28    4.50
  -4  -6  35   11.31    4.88
  10  -4  35   12.18    8.06
  10  -4  38   15.51    8.92
   7 -10  38    1.64    6.61
   7 -10  35    3.21    7.35
   7 -10  32   62.29   11.85
   7 -10  29    5.88    6.84
   7 -10  26    1.91    6.72
   7 -10  23    4.38    5.91
  -7  10 -23   -1.19    4.76
   7 -10  20   50.91    9.69
  -3  -7 -20   59.85   10.43
  -3  -7 -17  400.36   23.32
   7 -10  17  408.91   23.78
   7 -10  14   44.99    9.14
  -3  -7 -14   45.98    8.68
  10  -3 -11   45.07    3.59
   7 -10  11   42.17    9.08
  -3  -7 -11   43.06    7.87
  10  -3  -8  150.50    7.67
   7 -10   8  142.45   14.20
 -10   3   5   45.02    5.30
   7 -10   5   34.20    8.80
  10  -3  -5   43.21    5.51
  10  -3  -2   -4.09    4.55
 -10   3   2    1.79    3.27
 -10   3  -1   34.47    6.04
  10  -3   1   30.12    5.95
 -10   3  -4   -1.31    4.54
  10  -3   4   -8.48    7.45
 -10   3  -7  203.58   14.56
  10  -3   7  200.33   14.49
  10  -3  10   -4.34    6.65
 -10   3 -13   47.92    8.75
  10  -3  13   36.97    8.13
  -3  -7  16   12.92    4.15
 -10   3 -16    7.64    4.30
  10  -3  16    3.24    5.50
  -3  -7  19    2.88    3.20
  10  -3  19    3.07    6.64
 -10   3 -19   -0.50    3.24
  10  -3  22    8.37    8.34
  -3  -7  22   -1.72    3.24
   7 -10 -22   -1.51    4.46
  -3  -7  25   78.94    8.75
   7 -10 -25   75.56   10.81
  10  -3  28   24.72   10.67
   7 -10 -28   14.01    6.35
  -3  -7  31   89.93    9.74
  10  -3  31   89.51   15.68
  10  -3  34    6.34    7.29
  -3  -7  34    1.22    3.91
  10  -3  37    2.80    7.35
  -3  -7  37    9.99    5.07
  10  -3  40    9.54    9.34
   8 -10  39   -5.88    6.99
   8 -10  36    3.53    6.99
   8 -10  33  -17.64    9.14
   8 -10  30    4.87    7.57
   8 -10  27    3.98    7.20
   8 -10  24   -2.42    5.92
   8 -10  21   -4.31    7.09
  -8  10 -21    0.73    4.42
   8 -10  18  239.14   19.12
  -2  -8 -18  251.56   19.13
  -2  -8 -15  362.37   22.15
   8 -10  15  351.42   22.15
   8 -10  12  413.12   23.21
  -2  -8 -12  345.90   20.36
   8 -10   9  173.54   15.24
  10  -2  -9  195.47    7.37
  10  -2  -6  221.11    9.71
 -10   2   6  223.29   10.00
   8 -10   6  229.35   17.03
 -10   2   3  120.04    8.52
   8 -10   3  126.68   13.20
  10  -2  -3  110.12    8.46
  10  -2   0   26.90    5.86
 -10   2   0   32.21    5.77
  10  -2   3   -0.71    6.01
 -10   2  -3   -1.62    4.03
 -10   2  -6  247.77   15.61
  10  -2   6  252.26   16.20
  10  -2   9  284.12   17.86
  10  -2  12  366.37   21.15
 -10   2 -12  393.76   21.83
  -2  -8  15  128.04   10.62
 -10   2 -15  136.29   13.89
  10  -2  15  151.05   15.04
 -10   2 -18    7.53    4.44
  10  -2  18   11.49    6.51
  -2  -8  18    6.70    3.69
  -2  -8  21   57.69    7.81
  10  -2  21   73.16   12.89
  -2  -8  24   20.66    5.61
   8 -10 -24   15.30    5.45
   8 -10 -27   15.42    6.33
  -2  -8  27   18.75    5.57
  -2  -8  30   82.67   10.24
   8 -10 -30   78.85   11.50
  10  -2  30  100.01   15.60
  -2  -8  33    1.14    4.08
  10  -2  33   17.63   10.17
  -2  -8  36    0.18    3.89
  10  -2  36    2.82    8.14
  -2  -8  39   10.03    5.30
  10  -2  39   -1.94    8.15
   9 -10  37  -16.04    9.24
   9 -10  34    1.61    7.19
   9 -10  31    7.52    6.66
   9 -10  28   31.48    9.67
   9 -10  25   88.50   13.46
   9 -10  22    7.67    6.36
   9 -10  19    0.79    6.42
  -9  10 -19    2.98    4.42
  -1  -9 -19    2.81    4.11
  -9  10 -16   11.63    5.21
  -1  -9 -16   14.43    6.26
  -1  -9 -13  157.95   14.76
   9 -10  13  165.85   15.96
   9 -10  10   13.10    6.78
  -1  -9 -10   -0.21    6.04
 -10   1   7    0.39    2.05
   9 -10   7    0.01    6.65
  10  -1  -7   -0.15    2.60
  10  -1  -4  199.96   10.41
 -10   1   4  192.69   10.35
   9 -10   4  206.96   16.37
  10  -1  -1   20.23    5.67
 -10   1   1    3.92    3.29
   9 -10   1    5.99    6.45
 -10   1  -2   76.03    8.45
  10  -1   2   85.64    9.87
 -10   1  -5   12.74    4.89
  10  -1   5   33.88    8.35
  10  -1   8   28.99    8.54
  10  -1  11   55.11    9.94
 -10   1 -11   54.03    8.71
  10  -1  14   17.77    7.27
  -1  -9  14    7.93    4.67
 -10   1 -14   12.42    5.54
 -10   1 -17    1.90    3.61
  10  -1  17    8.44    7.02
  -1  -9  17    0.61    3.75
  10  -1  20   21.41    9.98
  -1  -9  20   13.92    5.11
   9 -10 -23  148.78   13.57
  10  -1  23  178.87   18.98
  -1  -9  23  147.19   13.14
  10  -1  26   12.77    9.81
  -1  -9  26    5.75    4.34
   9 -10 -26    2.39    3.84
  -1  -9  29  177.44   14.80
  10  -1  29  156.05   18.32
   9 -10 -29  141.84   14.35
  10  -1  32    9.20    9.25
   9 -10 -32    8.87    5.80
  -1  -9  32   -6.25    6.10
  -1  -9  35   -4.54    5.60
  10  -1  35   -4.59    7.89
  -1  -9  38    3.95    5.04
  10  -1  38    8.00    8.75
  10 -10  38    9.32    8.17
  10 -10  35   -2.58    6.70
  10 -10  32   -6.90    8.79
  10 -10  29    6.19    7.50
  10 -10  26   20.69    8.34
  10 -10  23    7.19    7.00
  10 -10  20   -0.10    6.38
 -10  10 -17   19.41    6.72
  10 -10  17   21.52    8.07
   0 -10 -17   23.38    6.91
  10 -10  14   63.03   10.36
   0 -10 -14   62.60    9.80
 -10  10 -14   78.15   11.59
  10 -10  11   47.76    9.92
  10 -10   8   25.23    7.39
 -10   0   8   29.41    3.47
 -10   0   5   48.98    5.25
  10   0  -5   53.00    5.41
  10 -10   5   54.56    9.69
  10 -10   2   81.41   10.92
 -10   0   2   85.38    7.99
  10   0  -2   91.56    8.19
  10 -10  -1  348.03   20.36
 -10   0  -1  337.54   16.50
  10   0   1  361.72   16.70
 -10   0  -4  348.29   17.97
  10   0   4  326.32   17.23
  10   0   7  401.42   20.32
 -10   0 -10  182.25   14.88
  10   0  10  214.64   16.24
 -10   0 -13  200.69   16.36
  10   0  13  169.19   15.70
 -10   0 -16   95.96   12.36
  10   0  16   94.27   13.28
   0 -10  16   73.47    9.69
  10   0  19   30.38    9.32
   0 -10  19   30.33    7.21
  10   0  22   80.37   13.55
   0 -10  22   76.71   10.56
  10   0  25   19.09   10.10
   0 -10  25   10.35    5.40
  10 -10 -25    7.59    4.31
   0 -10  28   37.60    8.15
  10 -10 -28   44.39    8.15
  10   0  28   45.60   12.19
  10 -10 -31    3.81    4.95
   0 -10  31    7.06    5.13
  10   0  31    6.31    7.67
   0 -10  34    2.41    4.59
  10   0  34    1.84    8.23
   0 -10  37    2.86    4.40
  10   0  37   11.44    9.58
   1 -11  36   20.18    6.86
  10   1  36   28.83   10.63
   1 -11  33    5.35    5.23
  10   1  33    2.18    7.40
   1 -11  30   14.64    6.27
  10   1  30    8.39    8.07
  11 -10 -30   15.67    5.63
   1 -11  27   10.36    5.38
  10   1  27    4.06    9.23
  11 -10 -27    5.36    4.15
  11 -10 -24    5.09    4.47
   1 -11  24    0.11    5.38
  10   1  24    9.44    9.61
   1 -11  21   29.72    7.52
  10   1  21   29.93   10.06
   1 -11  18   11.03    6.13
  10   1  18   13.73    8.39
  10   1  15   55.62   11.19
   1 -11  15   42.01    8.21
 -10  -1 -15   49.38    9.41
  10   1  12    1.54    5.44
 -10  -1 -12   -3.84    6.26
  10   1   9    8.62    6.84
 -10  -1  -9   -3.84    5.11
  10   1   6   26.72    7.39
  11 -10  -3   85.83   10.60
 -10  -1  -3   83.27    9.05
  10   1   3  103.98   10.25
  11 -10   0    8.70    5.88
 -10  -1   0   12.20    4.01
  10   1   0   13.72    4.91
  10   1  -3   -6.08    3.96
 -10  -1   3    1.36    2.99
  11 -10   3   -5.05    6.05
 -10  -1   6    6.50    2.90
  11 -10   6    0.47    5.86
  11 -10   9   34.61    8.78
 -10  -1   9   31.03    3.37
  11 -10  12   38.48    8.55
 -11  10 -12   46.05    9.00
 -11  10 -15    3.21    3.97
  11 -10  15   -2.79    5.83
   1 -11 -15   -6.63    6.20
  11 -10  18    2.72    6.26
  11 -10  21   23.58    9.17
  11 -10  24   -0.61    5.84
  11 -10  27    8.70    8.59
  11 -10  30   48.50   11.87
  11 -10  33   26.59   10.23
  11 -10  36    0.23    6.09
   2 -11  37   -6.05    6.68
   9   2  37  -15.74    9.85
   2 -11  34    7.04    5.61
   9   2  34    1.38    7.92
  11  -9 -31   36.10    7.02
   9   2  31   25.50    9.32
   2 -11  31   33.77    8.45
  11  -9 -28   32.69    6.81
   2 -11  28   37.89    9.37
   9   2  28   30.62   10.50
  11  -9 -25    0.96    3.67
   2 -11  25   -0.53    5.83
   9   2  25   -0.73    6.82
   2 -11  22   37.13    8.59
  11  -9 -22   30.12    6.21
   9   2  22   38.29   10.75
   9   2  19   33.59    9.63
   2 -11  19   20.48    6.64
  -9  -2 -16  172.66   16.25
   9   2  16  160.42   15.78
   2 -11  16  174.30   15.35
  -9  -2 -13   79.52   10.77
   9   2  13   72.81   10.89
   2 -11  13   78.01   10.81
  -9  -2 -10    5.80    4.36
   9   2  10    7.85    6.54
   9   2   7   71.38    9.68
   9   2   4   86.59    9.60
  -9  -2  -4   82.20    9.36
  11  -9  -4   77.41    9.71
  11  -9  -1   40.33    7.91
  -9  -2  -1   40.01    6.43
   9   2   1   35.67    6.34
  -9  -2   2   11.34    3.59
  11  -9   2   14.25    5.85
  11  -9   5    9.02    5.55
  -9  -2   5    6.75    2.82
  -9  -2   8   14.46    2.69
  11  -9   8   13.05    6.38
  -9  -2  11   -0.08    1.02
  11  -9  11   -2.31    5.14
 -11   9 -11   -3.09    4.36
  11  -9  14   41.19    8.97
 -11   9 -14   49.77    9.32
   2 -11 -17  198.60   17.20
 -11   9 -17  203.88   18.29
  11  -9  17  204.73   18.44
  11  -9  20    7.15    6.36
  11  -9  23   53.77   11.83
  11  -9  26   12.01    7.60
  11  -9  29   -8.21    9.78
  11  -9  32    5.27    6.26
  11  -9  35    1.39    7.28
  11  -9  38    0.02    7.29
   3 -11  38   -2.57    5.59
   8   3  38   -3.92    7.83
   3 -11  35   -1.87    5.86
   8   3  35    3.46    7.19
   8   3  32   -1.09    6.38
   3 -11  32    9.90    6.54
   3 -11  29   -4.89    5.72
  11  -8 -29    3.88    3.82
   8   3  29   -6.50    7.25
  11  -8 -26   11.79    4.49
   3 -11  26    9.33    5.05
   8   3  26   12.39    9.16
   8   3  23   66.83   12.23
  11  -8 -23   57.44    7.30
   3 -11  23   73.10   11.18
   3 -11  20   11.32    5.98
   8   3  20   10.00    7.36
  -8  -3 -17   -4.41    6.27
   8   3  17   -8.49    7.88
   3 -11  17    3.89    4.72
   8   3  14   16.50    7.09
   3 -11  14   26.96    6.96
  -8  -3 -14   21.93    6.75
  -8  -3 -11   34.09    7.62
   8   3  11   32.41    7.98
  11  -8  -8  200.39   13.18
   8   3   8  183.31   14.22
   8   3   5  227.94   14.71
  11  -8  -5  241.32   14.87
  -8  -3  -5  244.39   15.42
  -8  -3  -2  156.85   11.89
  11  -8  -2  132.64   11.63
  11  -8   1  150.40   12.90
  -8  -3   1  156.80   11.00
  -8  -3   4  431.71   15.89
  11  -8   4  400.42   21.08
  -8  -3   7   21.66    4.25
  11  -8   7   15.30    6.53
  11  -8  10   39.70    8.35
 -11   8 -10   54.25    9.35
  -8  -3  10   48.29    4.42
  -8  -3  13    1.27    0.96
  11  -8  13    3.35    4.91
 -11   8 -13    3.93    4.05
  -8  -3  13    1.41    0.94
  11  -8  16   11.31    6.57
 -11   8 -16   12.91    5.42
  11  -8  19    1.14    6.50
   3 -11 -19   -2.13    5.22
  11  -8  22   44.81   10.48
  11  -8  25   -9.72   10.56
  11  -8  28   33.68   10.75
  11  -8  31   40.82   11.03
  11  -8  34    1.03    6.94
  11  -8  37   18.27   10.00
   4 -11  39   19.35    7.81
   7   4  39   12.16    8.89
   4 -11  36    0.89    6.76
   7   4  36   17.92    9.73
   7   4  33   -3.49    7.47
   4 -11  33   -0.90    5.00
   4 -11  30   44.90   10.00
  11  -7 -30   34.58    5.86
   7   4  30   33.62   11.01
  11  -7 -27   11.44    4.46
   4 -11  27   -0.26    5.43
   7   4  27   -3.24    8.66
   4 -11  24   76.86   11.77
   7   4  24   77.36   12.72
  11  -7 -24   70.79    7.51
   7   4  21  124.16   14.65
  11  -7 -21  142.91    9.71
   4 -11  21  147.79   15.26
  -7  -4 -18    3.63    4.64
   4 -11  18    8.80    5.74
   7   4  18   -3.30    6.78
   7   4  15   16.69    7.48
   4 -11  15   26.61    7.41
  -7  -4 -15   29.42    7.22
  -7  -4 -12    9.91    5.10
   7   4  12   -3.16    6.74
   4 -11  12    6.68    5.36
  11  -7  -9   -2.16    3.30
   7   4   9   -8.79    7.78
  11  -7  -6  268.58   14.73
  11  -7  -3  120.59   10.73
  -7  -4  -3  140.24   11.47
  -7  -4   0    4.40    4.45
  11  -7   0    2.55    4.84
  -7  -4   3    4.85    4.03
  11  -7   3   -3.07    6.11
 -11   7  -3    0.60    3.82
  11  -7   6    3.44    5.74
  -7  -4   6   11.25    3.92
  11  -7   9  143.39   13.68
 -11   7  -9  139.90   13.37
  -7  -4   9  157.48    8.29
  11  -7  12    8.19    5.94
  -7  -4  12    7.40    2.32
 -11   7 -12   12.82    5.11
  -7  -4  15   48.19    3.89
 -11   7 -15   55.46    9.38
  -7  -4  15   49.48    3.71
  11  -7  15   62.52   10.51
  11  -7  18   63.58   11.32
  -7  -4  18   66.24    3.72
 -11   7 -18   82.61   12.21
  11  -7  21  -14.90    9.99
   4 -11 -21   -7.62    5.25
  11  -7  24   -7.64   10.23
  -7  -4  27    4.45    1.14
  11  -7  27   -5.48    9.60
  11  -7  30    1.06    8.39
  11  -7  33    5.70    8.53
  11  -7  36   41.74   12.12
  11  -7  39   28.02   10.43
   5 -11  37   -1.38    6.21
   5 -11  34    7.70    6.59
   6   5  31   -0.91    8.93
   5 -11  31   17.21    7.64
   5 -11  28   -2.07    5.73
  11  -6 -28   -1.56    2.81
   6   5  28   -2.13    7.53
   5 -11  25   64.96   11.56
   6   5  25   51.91   11.21
  11  -6 -25   52.80    5.83
   5 -11  22   32.57    8.89
   6   5  22   29.04    8.74
  11  -6 -22   48.05    5.39
   5 -11  19    5.97    5.68
   6   5  19   -0.86    6.13
  11  -6 -19    0.89    2.31
  -6  -5 -16    7.48    6.11
   6   5  16   -3.47    8.05
   5 -11  16    2.41    5.53
  -6  -5 -13   15.43    6.78
   5 -11  13   13.14    5.92
  11  -6 -13    8.94    3.40
  11  -6 -10    1.46    2.62
  -6  -5 -10    0.32    4.35
   5 -11  10   -5.26    6.58
  11  -6  -7   95.20    8.37
  -6  -5  -4  247.47   15.29
  11  -6  -4  232.90   13.25
  11  -6  -1   38.69    6.56
  -6  -5  -1   49.08    7.45
  11  -6   2  279.40   16.38
  -6  -5   2  292.54   14.20
 -11   6  -2  282.97   16.52
  11  -6   5   46.68    8.41
  -6  -5   5   56.52    6.36
  -6  -5   8   -4.58    3.62
  11  -6   8    3.91    6.25
  11  -6  11   23.96    7.77
 -11   6 -11   15.15    5.24
 -11   6 -14   24.28    6.69
  -6  -5  14   24.86    3.96
  11  -6  14   23.96    7.60
 -11   6 -17  100.95   12.81
  -6  -5  17   85.87    6.06
  11  -6  20  256.62   20.83
  -6  -5  20  288.20   10.65
   5 -11 -20  311.94   21.09
  -6  -5  23   38.04    4.19
  11  -6  23   22.41    8.45
   5 -11 -23   43.53    8.96
  11  -6  26   98.70   14.91
  -6  -5  26  109.73    7.00
  11  -6  29  105.26   15.71
  -6  -5  29  100.12    6.95
  11  -6  32   35.84   11.02
  -6  -5  32   24.36    4.02
  11  -6  35    7.94    8.34
  11  -6  38   18.07    9.88
   6 -11  38   -4.10    7.45
   6 -11  35  -14.46    8.17
   6 -11  32    6.11    6.61
   6 -11  29   16.25    7.44
  11  -5 -29   14.02    2.98
   6 -11  26   13.71    6.99
  11  -5 -26   13.70    2.73
   6 -11  23  166.60   16.95
  11  -5 -23  159.69    7.70
  11  -5 -20   77.31    5.27
   6 -11  20   66.05   10.81
  -5  -6 -17    9.47    6.40
   6 -11  17    8.32    5.72
  11  -5 -17    6.96    2.10
  11  -5 -14   75.95    5.65
  -5  -6 -14   84.64   11.05
   6 -11  14   66.25   10.35
  -5  -6 -11   20.27    6.79
  11  -5 -11   18.91    3.52
   6 -11  11   15.23    7.01
  11  -5  -8   -0.64    3.34
   6 -11   8   -1.88    5.08
  11  -5  -5  531.41   18.28
 -11   5   2   58.71    7.35
  11  -5  -2   49.62    6.77
  -5  -6  -2   61.12    8.04
 -11   5  -1  990.92   29.24
  11  -5   1  974.53   28.11
  -5  -6   1 1038.35   28.16
 -11   5  -4  738.25   26.80
  11  -5   4  702.06   25.76
  11  -5   7    6.80    6.25
 -11   5 -10   69.83    9.82
  11  -5  10  100.36   11.87
 -11   5 -13   92.78   11.47
  11  -5  13   70.03    9.97
  11  -5  16   73.07   11.03
  -5  -6  16   99.02    7.76
 -11   5 -16   84.70   11.52
  11  -5  19  198.98   18.16
  -5  -6  19  198.26   10.88
  11  -5  22  190.15   18.84
  -5  -6  22  216.30   11.15
   6 -11 -22  224.29   17.76
  11  -5  25    0.58    8.36
  -5  -6  25   -1.21    3.15
   6 -11 -25   -0.21    4.56
  -5  -6  28   51.81    6.19
  11  -5  28   48.89   10.98
  -5  -6  31   27.18    5.18
  11  -5  31   33.50   11.22
  11  -5  34   12.76    8.38
  -5  -6  34   14.23    4.42
  11  -5  37   22.66   10.49
   7 -11  39    3.01    6.16
   7 -11  36    5.27    7.00
   7 -11  33   22.90    8.52
   7 -11  30   82.32   13.76
   7 -11  27   72.13   12.94
   7 -11  24    8.25    6.76
   7 -11  21   44.81   10.20
  -4  -7 -18   56.38   10.76
   7 -11  18   43.19    8.89
  -4  -7 -15    7.93    5.23
  11  -4 -15    2.53    1.18
   7 -11  15    1.47    5.63
  -4  -7 -12    2.17    4.45
  11  -4 -12    0.86    1.57
   7 -11  12    1.35    5.90
  11  -4  -9  197.24    9.30
  -4  -7  -9  190.61   14.87
   7 -11   9  203.27   16.67
   7 -11   6   13.80    6.18
  11  -4  -6   19.33    4.21
  11  -4  -3  340.92   14.91
  -4  -7  -3  324.53   18.02
 -11   4   3  327.26   15.14
  11  -4   0  480.00   19.34
 -11   4   0  489.61   19.59
  11  -4   3  235.46   14.68
 -11   4  -3  228.29   14.56
  11  -4   6   47.67    7.40
  11  -4   9   -7.28    7.34
  11  -4  12    7.45    6.76
 -11   4 -12    9.04    4.85
  -4  -7  15   52.51    6.74
  11  -4  15   53.99   10.30
 -11   4 -15   62.65    9.83
  11  -4  18   -0.76    7.43
  -4  -7  18    0.83    2.82
 -11   4 -18   -0.68    4.29
  11  -4  21   11.24    7.24
  -4  -7  21   10.68    3.71
  11  -4  24   66.08   13.28
  -4  -7  24   64.34    7.33
   7 -11 -24   52.76    9.32
  -4  -7  27   89.56    8.74
  11  -4  27   86.02   15.13
  11  -4  30   29.91   11.57
  -4  -7  30   12.24    4.03
  11  -4  33   64.69   13.30
  -4  -7  33   79.58    8.91
  11  -4  36   45.06   12.80
  -4  -7  36   33.94    6.61
  11  -4  39    5.86    8.35
   8 -11  37  -12.35    8.41
   8 -11  34  -21.61   10.45
   8 -11  31    2.35    6.46
   8 -11  28   81.57   13.24
   8 -11  25    5.02    7.26
   8 -11  22   -3.46    6.46
   8 -11  19   -5.16    6.21
   8 -11  16   26.29    8.32
  -3  -8 -16   18.29    6.29
   8 -11  13  518.96   26.79
  -3  -8 -13  514.48   25.89
  11  -3 -10  145.29    6.99
   8 -11  10  151.97   14.80
  -3  -8 -10  155.07   13.81
  11  -3  -7   25.10    3.90
   8 -11   7   26.22    7.82
 -11   3   4   27.82    4.82
  11  -3  -4   18.81    4.17
  11  -3  -1   89.04    8.13
 -11   3   1  104.61    9.15
  11  -3   2   16.58    5.82
 -11   3  -2   24.30    5.53
 -11   3  -5    2.40    3.94
  11  -3   5   -1.49    6.48
  11  -3   8    6.62    6.45
 -11   3 -11   87.27   10.91
  11  -3  11   73.37   10.32
 -11   3 -14  278.05   19.60
  11  -3  14  281.64   19.49
  -3  -8  17   12.40    4.46
  11  -3  17   10.52    7.73
 -11   3 -17   11.46    5.90
  -3  -8  20    2.78    3.67
  11  -3  20    5.65    8.61
   8 -11 -23   -9.51    6.11
  -3  -8  23    0.04    3.98
  -3  -8  26   -0.14    3.58
   8 -11 -26    5.17    5.07
  11  -3  29   28.70   10.64
  -3  -8  29   16.21    5.34
  11  -3  32   21.50   10.56
  -3  -8  32   -4.26    5.31
  11  -3  35   15.61    9.87
  -3  -8  35    0.13    3.77
  11  -3  38   14.68    9.63
   9 -11  38  -24.98   10.12
   9 -11  35  -11.38    9.20
   9 -11  32   11.88    7.81
   9 -11  29  103.63   15.37
   9 -11  26   13.07    8.41
   9 -11  23    5.26    6.38
   9 -11  20    1.75    6.56
   9 -11  17   30.40    8.32
  -2  -9 -17   43.56    9.43
   9 -11  14   18.25    6.60
  -2  -9 -14   10.41    5.60
  11  -2 -11    0.69    1.08
   9 -11  11    5.49    6.19
  -2  -9 -11   -0.04    4.09
  11  -2  -8    9.12    3.13
   9 -11   8    2.17    5.61
  -2  -9  -8   -1.41    5.47
   9 -11   5   44.61    9.69
 -11   2   5   40.67    5.19
  11  -2  -5   43.23    5.65
 -11   2   2  444.67   17.28
  11  -2  -2  447.05   17.13
 -11   2  -1  295.22   15.67
  11  -2   1  325.75   16.10
 -11   2  -4  621.21   23.88
  11  -2   4  601.54   23.19
  11  -2   7  112.18   11.84
 -11   2 -10   94.81   11.38
  11  -2  10   93.84   11.55
 -11   2 -13   10.37    5.19
  11  -2  13   19.88    7.52
 -11   2 -16    0.42    4.27
  11  -2  16    7.84    7.95
  -2  -9  16    0.17    3.99
  11  -2  19   10.16    7.90
  -2  -9  19    3.82    4.35
  11  -2  22   34.77   11.72
  -2  -9  22    2.17    3.78
  -2  -9  25    2.06    4.12
   9 -11 -25    2.40    4.12
  -2  -9  28   -0.89    3.78
   9 -11 -28   -0.18    4.21
  11  -2  31   21.88   10.22
  -2  -9  31   11.50    4.80
  11  -2  34   19.65   10.47
  -2  -9  34   -4.18    4.55
  -2  -9  37    1.64    3.59
  11  -2  37   15.07    9.83
  10 -11  36    8.88    7.77
  10 -11  33   -1.70    7.68
  10 -11  30   30.12   10.68
  10 -11  27   24.45    9.29
  10 -11  24  260.95   22.30
  10 -11  21   79.27   12.60
  10 -11  18    0.01    6.72
  10 -11  15   15.31    7.09
  -1 -10 -15   31.18    8.02
  10 -11  12   71.69   11.24
  -1 -10 -12   65.74    9.99
 -11   1   9   62.84    4.76
  10 -11   9   75.53   11.31
  11  -1  -9   67.65    4.73
 -11   1   6   53.16    5.40
  10 -11   6   52.67    9.62
  11  -1  -6   57.77    5.76
  10 -11   3   59.24   10.00
  11  -1  -3   69.59    7.15
 -11   1   3   59.30    6.48
  10 -11   0  132.00   13.51
 -11   1   0  130.64   10.49
  11  -1   0  149.23   11.05
  11  -1   3   44.73    7.98
 -11   1  -3   47.18    7.10
  11  -1   6   17.32    7.38
 -11   1  -9   15.74    5.30
  11  -1   9   39.84    9.17
  11  -1  12   58.65   10.11
 -11   1 -12   54.25    9.07
  -1 -10  15    7.44    4.70
  11  -1  15   24.22    9.48
 -11   1 -15   11.80    5.65
  11  -1  18   16.07    9.49
  -1 -10  18    2.00    3.98
  -1 -10  21    2.68    4.18
  11  -1  21    6.54    8.08
  10 -11 -24   -1.25    5.17
  -1 -10  24    3.84    4.18
  11  -1  27    5.04   10.15
  -1 -10  27   -4.90    5.54
  10 -11 -27   -3.21    4.24
  11  -1  30    7.56    8.21
  10 -11 -30    0.88    4.84
  -1 -10  30   -4.17    4.27
  11  -1  33   29.21   10.75
  -1 -10  33   22.63    6.52
  -1 -10  36   -5.06    4.87
  11  -1  36    1.93    7.81
  11 -11  37  -10.58    8.30
  11 -11  34   -6.89    8.30
  11 -11  31   -6.40    7.69
  11 -11  28   19.26    9.15
  11 -11  25   24.66    9.67
  11 -11  22  240.35   21.37
  11 -11  19   12.85    7.10
  11 -11  16   38.30    9.88
  11 -11  13   41.44    9.54
   0 -11 -13   49.46    8.96
  11 -11  10   16.34    7.65
 -11   0  10   12.30    2.14
  11 -11   7   11.84    6.72
 -11   0   7   13.26    2.99
  11 -11   4   31.24    8.48
 -11   0   4   28.07    4.74
  11   0  -4   32.25    5.22
 -11   0   1   22.07    4.72
  11   0  -1   19.71    5.56
  11 -11   1   20.59    7.08
 -11   0  -2   56.96    7.84
  11 -11  -2   52.89    9.47
  11   0   2   58.55    8.35
  11   0   5  320.64   17.96
 -11   0  -8  120.16   12.10
  11   0   8  133.12   12.97
 -11   0 -11  186.89   15.81
  11   0  11  192.01   16.04
  11   0  14   45.62   10.45
 -11   0 -14   41.96    8.47
  11   0  17   21.72   10.20
   0 -11  17    4.31    4.55
  11   0  20   46.07   11.56
   0 -11  20   51.45    9.24
  11   0  23   70.64   13.96
   0 -11  23   43.51    8.52
   0 -11  26    7.60    4.96
  11   0  26   18.59   10.13
  11 -11 -26   10.15    4.77
   0 -11  29    0.71    4.29
  11   0  29   -2.72    7.03
  11 -11 -29    2.99    4.04
   0 -11  32    2.42    4.37
  11   0  32    3.33    8.82
   0 -11  35   -6.17    6.10
  11   0  35    1.21    7.04
   1 -12  37    0.81    6.43
  11   1  37    6.90    7.47
   1 -12  34    6.84    4.96
  11   1  34   10.65    7.80
   1 -12  31   52.78   10.05
  11   1  31   68.39   13.75
   1 -12  28   -0.04    4.74
  12 -11 -28    1.65    4.09
  11   1  28    3.07    7.78
  12 -11 -25   -5.28    4.38
   1 -12  25   -3.13    5.25
  11   1  25    1.49    8.05
   1 -12  22   98.36   12.53
  11   1  22   98.94   14.66
   1 -12  19   29.30    7.86
  11   1  19   35.78    9.93
   1 -12  16   17.59    6.93
  11   1  16   24.11    8.72
 -11  -1 -13   39.88    8.57
  11   1  13   30.45    8.28
 -11  -1 -10    2.72    3.83
  11   1  10    6.15    7.21
  11   1   7   -3.51    5.92
 -11  -1  -7    4.32    3.64
  12 -11  -4   17.19    5.90
  11   1   4   29.34    6.83
 -11  -1  -1   50.19    7.07
  12 -11  -1   51.40    9.31
  11   1   1   53.70    7.67
 -11  -1   2   77.51    7.98
  11   1  -2   65.01    7.23
  12 -11   2   74.59   11.13
  12 -11   5  132.61   14.06
 -11  -1   5  132.78    9.23
  12 -11   8    7.60    6.42
 -11  -1   8    9.57    2.62
 -11  -1  11   39.84    3.20
  12 -11  11   34.01    8.75
  12 -11  14   20.46    7.31
  12 -11  17   -1.00    5.25
  12 -11  20    4.26    6.73
  12 -11  23   43.18   11.47
  12 -11  26   36.63   10.48
  12 -11  29   17.51    8.91
  12 -11  32  -11.17    9.76
  12 -11  35  -37.54   12.10
   2 -12  35    4.74    4.72
  10   2  35   -2.30    6.25
   2 -12  32    6.18    5.59
  10   2  32   -5.33    8.44
   2 -12  29   46.75    9.72
  10   2  29   43.48   12.01
  12 -10 -29   36.53    7.20
   2 -12  26   -1.77    4.90
  12 -10 -26   -2.49    4.07
  10   2  26    5.63    8.48
   2 -12  23    3.73    5.54
  10   2  23    1.74    6.35
   2 -12  20   -2.63    5.82
  10   2  20   -2.72    8.23
   2 -12  17   12.07    6.53
  10   2  17   12.78    7.82
   2 -12  14    0.07    5.58
 -10  -2 -14    1.58    3.76
  10   2  14    2.68    6.72
 -10  -2 -11    1.92    3.73
  10   2  11    2.20    5.32
 -10  -2  -8   41.37    7.42
  10   2   8   61.97    9.53
  12 -10  -5   66.48    9.21
  10   2   5   58.56    8.52
  10   2   2   14.82    5.23
  12 -10  -2   19.85    6.44
 -10  -2  -2   18.53    5.22
  12 -10   1   28.31    7.54
 -10  -2   1   21.45    4.54
  12 -10   4    5.45    5.70
 -10  -2   4    0.80    3.49
  12 -10   7   45.53    9.16
 -10  -2   7   40.52    4.85
 -10  -2  10  221.78    8.57
  12 -10  10  207.64   17.74
 -12  10 -13  342.96   23.65
  12 -10  13  281.96   20.84
  12 -10  16   55.60   10.75
  12 -10  19   27.32    9.81
  12 -10  22   17.34    9.85
  12 -10  25   24.07   10.02
  12 -10  28   19.76    7.61
  12 -10  31    2.57    8.40
  12 -10  34    8.72    8.35
  12 -10  37    6.97    6.77
   9   3  36   -3.41    7.05
   3 -12  36    1.41    4.87
   9   3  33    9.17    7.97
   3 -12  33   13.82    6.87
   3 -12  30    5.76    5.74
   9   3  30    2.67    8.07
  12  -9 -27   85.94    9.54
   3 -12  27   79.36   12.39
   9   3  27   91.48   14.52
  12  -9 -24   39.40    6.37
   3 -12  24   43.18    9.51
   9   3  24   42.91   11.12
   3 -12  21  253.53   19.65
   9   3  21  226.10   20.12
   9   3  18   33.76    9.45
   3 -12  18   37.82    8.74
   9   3  15   -1.25    5.82
  -9  -3 -15   -4.68    5.60
   3 -12  15   -4.18    5.54
  -9  -3 -12   -1.41    4.80
   9   3  12   -1.48    5.98
  -9  -3  -9   78.70   10.37
  12  -9  -9   83.84    9.34
   9   3   9   75.21   10.23
  12  -9  -6    1.89    3.90
   9   3   6   -4.11    6.09
  12  -9  -3  210.95   15.05
   9   3   3  199.89   13.83
  -9  -3  -3  205.14   14.09
  -9  -3   0  345.30   16.78
  12  -9   0  337.53   19.25
  12  -9   3  217.57   16.34
  -9  -3   3  208.98   12.17
  12  -9   6   51.97    8.94
  -9  -3   6   67.17    6.53
 -12   9  -9    3.23    4.45
  -9  -3   9    5.64    2.74
  12  -9   9    1.61    6.29
 -12   9 -12   51.49    9.23
  -9  -3  12   43.00    3.57
  12  -9  12   49.08   10.14
  12  -9  15    1.65    5.80
 -12   9 -15   -0.41    3.96
  12  -9  18   -2.24    5.88
  12  -9  21   52.16   12.15
  12  -9  24    1.36    7.13
  12  -9  27   -9.82    8.71
  12  -9  30   -9.92    8.02
  12  -9  33    7.93    7.59
  12  -9  36   26.68   10.72
   8   4  37   12.67    8.69
   4 -12  37   20.23    7.79
   8   4  34   -3.57    9.24
   4 -12  34   12.62    6.39
   4 -12  31   52.36   10.66
   8   4  31   39.20   11.24
   4 -12  28  107.67   14.23
   8   4  28   92.43   14.21
  12  -8 -28  124.95   10.33
   4 -12  25    4.74    6.23
   8   4  25   -3.93    8.97
  12  -8 -25    4.49    3.23
  12  -8 -22  109.55    9.13
   8   4  22  106.92   14.83
   4 -12  22  117.31   14.25
   4 -12  19   17.99    7.78
   8   4  19   18.59    8.25
   4 -12  16   13.96    6.59
  -8  -4 -16    7.14    4.80
   8   4  16   -1.25    7.61
  -8  -4 -13    3.71    3.75
   4 -12  13    7.21    5.65
   8   4  13   -6.56    7.86
   8   4  10   63.60    9.45
  -8  -4 -10   72.33   10.27
  12  -8 -10   66.28    7.71
  12  -8  -7  301.58   16.27
  12  -8  -4    8.88    4.34
  12  -8  -1   60.11    8.75
  -8  -4  -1   60.64    8.20
  -8  -4   2   15.45    4.97
  12  -8   2   -0.91    6.06
  -8  -4   5   10.88    4.53
  12  -8   5   -3.14    6.27
 -12   8  -8    7.10    4.54
  -8  -4   8    4.75    3.15
  12  -8   8   -3.76    6.44
  12  -8  11   49.97    9.70
 -12   8 -11   41.45    8.30
  -8  -4  11   36.58    4.30
  12  -8  14    3.86    5.82
 -12   8 -14   -0.57    4.04
  -8  -4  14    1.79    1.65
  -8  -4  14    1.26    1.46
  12  -8  17   49.87   11.22
  12  -8  20   67.94   12.64
  12  -8  23   18.06    7.92
  12  -8  26   28.35    9.02
  12  -8  29   40.22   11.17
  12  -8  32   43.83   11.62
  12  -8  35   27.57   10.90
  12  -8  38   29.70   11.81
   5 -12  38  -15.64    8.02
   5 -12  35    5.17    6.55
   7   5  32    3.20    7.40
   5 -12  32    5.15    5.19
   5 -12  29   -6.26    6.44
  12  -7 -29   -1.12    2.53
   7   5  29   -9.09    9.93
  12  -7 -26   20.15    4.38
   5 -12  26   11.72    7.19
  12  -7 -23   67.55    6.56
   7   5  23   64.76   11.79
   5 -12  23   61.38   11.14
   5 -12  20   48.70    9.86
   7   5  20   32.67    8.88
  12  -7 -20   40.35    5.31
   5 -12  17   76.36   11.66
   7   5  17   73.22   11.61
  12  -7 -14    7.11    3.18
  -7  -5 -14   11.79    5.83
   5 -12  14    5.73    6.34
  12  -7 -11   22.85    4.76
  -7  -5 -11   27.44    7.22
   5 -12  11   24.13    7.74
  12  -7  -8   73.82    8.01
  -7  -5  -8   73.19   10.01
  12  -7  -5    6.22    4.32
  -7  -5  -2   19.62    5.62
  12  -7  -2    7.94    4.57
  12  -7   1   49.32    7.74
  -7  -5   1   60.49    7.56
  12  -7   4    2.32    5.02
  -7  -5   4    4.43    3.48
  12  -7   7    9.54    6.17
 -12   7  -7   11.59    4.77
  -7  -5   7   12.01    3.79
  12  -7  10   56.49   10.17
  -7  -5  10   52.20    5.52
 -12   7 -10   72.45   10.26
  -7  -5  13   54.67    4.98
 -12   7 -13   59.66   10.02
  12  -7  13   53.28    9.68
 -12   7 -16  128.98   14.81
  12  -7  16  103.22   13.73
  -7  -5  16  124.16    7.05
  -7  -5  19   74.49    4.93
  12  -7  19   59.12   10.95
  -7  -5  22    0.14    1.36
  12  -7  22  -11.61   10.09
  -7  -5  25   23.21    2.64
  12  -7  25    7.41    7.22
  12  -7  28    7.95    7.43
  -7  -5  28   11.42    1.90
  12  -7  31   -1.90    8.76
  -7  -5  31   -1.66    1.27
  12  -7  34    7.38    8.90
  12  -7  37    0.69    7.24
   6 -12  36   13.28    7.96
   6 -12  33    7.77    6.21
   6 -12  30   82.17   13.27
   6 -12  27    5.86    7.01
  12  -6 -27   -3.47    2.37
  12  -6 -24    4.51    2.27
   6 -12  24   -3.94    6.58
  12  -6 -21   84.42    6.16
  12  -6 -21   73.21    6.10
   6 -12  21   69.28   11.51
   6 -12  18  115.46   14.31
  12  -6 -18  116.36    7.67
  -6  -6 -15   15.87    7.03
  12  -6 -15    5.73    2.73
   6 -12  15    3.23    5.66
  -6  -6 -12   34.24    8.06
  12  -6 -12   22.52    4.23
   6 -12  12   24.21    7.76
   6 -12   9   11.94    5.91
  12  -6  -9   17.08    4.29
  12  -6  -6    9.21    3.88
  12  -6  -3    3.52    3.87
 -12   6   0  373.94   18.89
  12  -6   0  348.13   17.91
  -6  -6   0  371.46   17.56
  12  -6   3  779.63   27.64
  -6  -6   3  817.95   25.02
  -6  -6   6    7.06    3.43
  12  -6   6   15.51    6.30
 -12   6  -9   21.21    5.97
  12  -6   9   13.06    7.09
 -12   6 -12   29.97    7.52
  12  -6  12   43.81    8.99
 -12   6 -15    9.84    5.12
  -6  -6  15    3.87    2.48
  -6  -6  18   15.76    3.57
  12  -6  18   -2.19    8.83
  -6  -6  21   10.86    2.99
  12  -6  21   -5.56    8.44
   6 -12 -21   -1.95    5.86
  12  -6  24  -14.08    9.83
  -6  -6  24   -3.21    2.90
  -6  -6  27   26.32    4.05
  12  -6  27   32.15    9.82
  -6  -6  30   12.21    3.50
  12  -6  30   12.72    9.54
  12  -6  33   -2.88    8.15
  12  -6  36   17.40    8.97
   7 -12  37   -5.00    6.39
   7 -12  34    7.76    7.00
   7 -12  31    0.16    5.75
   7 -12  28    5.62    6.87
   7 -12  25   24.94    8.87
  12  -5 -22   32.08    2.71
   7 -12  22   37.45    9.98
  12  -5 -19    1.55    1.39
  12  -5 -19    0.46    1.06
  -5  -7 -16   24.09    8.00
   7 -12  16   22.81    8.17
  12  -5 -16   21.44    2.92
   7 -12  13   80.49   11.72
  -5  -7 -13   82.55   10.94
  12  -5 -13   79.39    6.02
   7 -12  10   -1.92    4.94
  12  -5 -10    3.66    2.78
  -5  -7 -10    3.85    5.02
  12  -5  -7   22.02    4.52
   7 -12   7   12.89    5.76
  -5  -7  -7   21.33    5.84
  12  -5  -4   72.69    7.78
  12  -5  -1  251.23   14.26
  -5  -7  -1  232.90   14.86
 -12   5   1  239.03   14.41
  12  -5   2   92.81   10.04
 -12   5  -2   96.52   10.07
  12  -5   5    7.79    5.51
 -12   5  -8    5.35    4.01
  12  -5   8    9.90    5.85
  12  -5  11  162.92   14.70
 -12   5 -11  184.27   15.94
 -12   5 -14   69.86   10.78
  12  -5  14   49.26    9.48
  12  -5  17   32.11    9.78
  -5  -7  17   51.24    6.39
 -12   5 -17   49.02    9.65
  12  -5  20   22.91    8.43
  -5  -7  20   26.39    4.96
  12  -5  23   65.08   13.69
  -5  -7  23   61.04    6.77
   7 -12 -23   35.96    9.09
  -5  -7  26    5.58    3.56
  12  -5  26  -10.45    9.14
  12  -5  29    2.75    6.56
  -5  -7  29   -2.77    3.42
  12  -5  32   13.51   10.19
  -5  -7  32    8.68    4.02
  12  -5  35   21.98   10.54
  12  -5  38    6.15    7.30
   8 -12  38   -1.95    6.64
   8 -12  35   30.09   10.33
   8 -12  32   82.89   14.34
   8 -12  29  112.39   15.90
   8 -12  26    0.68    6.77
   8 -12  23   19.29    8.11
   8 -12  20   62.93   11.37
   8 -12  17  128.91   15.27
  12  -4 -14   25.59    2.66
   8 -12  14   36.86    9.07
  -4  -8 -14   39.19    8.27
   8 -12  11    1.66    4.85
  -4  -8 -11   10.61    5.83
  12  -4 -11    2.02    1.83
   8 -12   8    2.39    5.97
  12  -4  -8    2.58    3.02
  -4  -8  -8    1.44    4.91
 -12   4   5   18.28    4.28
  12  -4  -5   20.90    4.62
 -12   4   2   44.57    6.31
  12  -4  -2   38.45    6.41
 -12   4  -1   34.83    6.24
  12  -4   1   30.27    5.88
  12  -4   4  313.46   17.68
  12  -4   7    1.53    6.53
  12  -4  10  186.53   15.67
 -12   4 -10  195.08   16.23
  12  -4  13   65.59   10.21
 -12   4 -13   80.78   11.22
  12  -4  16   12.11    6.86
 -12   4 -16   12.13    5.56
  -4  -8  16   11.51    4.07
  12  -4  19    9.38    6.91
  -4  -8  19    8.07    3.84
  12  -4  22  166.50   18.26
  -4  -8  22  160.84   11.78
  -4  -8  25   16.52    4.56
  12  -4  25   19.64   10.07
  12  -4  28   39.11   12.71
  -4  -8  28   32.14    5.84
  -4  -8  31  101.58    9.88
  12  -4  31  135.17   18.53
  12  -4  34   57.92   13.60
  -4  -8  34   40.89    6.72
  12  -4  37   30.01   11.21
   9 -12  36   -6.19    8.54
   9 -12  33   35.87   10.49
   9 -12  30   82.37   13.81
   9 -12  27   12.15    8.34
   9 -12  24    4.81    6.03
   9 -12  21    8.94    7.66
   9 -12  18   21.40    8.61
  -3  -9 -15   16.80    7.52
   9 -12  15    6.92    6.17
  12  -3 -12   12.55    2.18
   9 -12  12   17.75    8.07
  -3  -9 -12   18.40    6.82
   9 -12   9   24.49    6.98
  -3  -9  -9   31.27    7.04
  12  -3  -9   33.68    4.36
 -12   3   6    4.73    2.58
  12  -3  -6    3.32    2.97
   9 -12   6    7.49    5.51
  -3  -9  -6    5.27    4.29
 -12   3   3   69.07    7.42
  12  -3  -3   58.92    7.01
 -12   3   0  155.86   11.66
  12  -3   0  144.47   11.39
  12  -3   3  160.53   12.92
 -12   3  -3  167.94   13.00
  12  -3   6    8.25    4.83
  12  -3   9    4.76    5.68
 -12   3  -9   10.93    4.71
  12  -3  12    6.29    6.87
 -12   3 -12    6.50    4.70
  12  -3  15   34.05    8.73
 -12   3 -15   31.66    7.52
  12  -3  18   92.91   13.93
  -3  -9  18   84.73    9.51
  -3  -9  21  118.70   11.17
  12  -3  21  110.24   15.62
  12  -3  24   18.65    9.24
  -3  -9  24   11.66    4.62
   9 -12 -24    9.23    5.37
  -3  -9  27   19.68    5.59
  12  -3  27   31.14   10.35
  -3  -9  30  199.68   14.87
  12  -3  30  180.79   20.50
  12  -3  33   58.74   13.57
  -3  -9  33   46.17    7.94
  12  -3  36   31.75   10.84
  10 -12  37    5.90    6.55
  10 -12  34   68.51   13.48
  10 -12  31   61.75   12.99
  10 -12  28   26.44    9.46
  10 -12  25   33.70   10.03
  10 -12  22   12.53    7.58
  10 -12  19   15.93    7.71
  10 -12  16  114.91   14.50
  10 -12  13  135.60   15.20
  -2 -10 -13  157.31   15.27
  10 -12  10  257.44   20.14
  -2 -10 -10  269.87   19.22
  12  -2 -10  264.56    8.94
  12  -2  -7   27.74    4.55
  10 -12   7   13.68    5.92
 -12   2   7   20.25    3.61
  10 -12   4   82.97   11.91
 -12   2   4   91.93    8.16
  12  -2  -4   97.73    8.42
  12  -2  -1   39.48    6.75
 -12   2   1   32.04    5.79
  12  -2   2   72.40    9.07
 -12   2  -2   63.40    8.23
  12  -2   5  283.23   17.21
  12  -2   8   69.05   10.31
 -12   2  -8   60.37    9.01
 -12   2 -11    1.21    4.16
  12  -2  11   13.60    7.81
 -12   2 -14    5.36    3.97
  12  -2  14   12.56    8.70
  -2 -10  17   38.69    7.60
  12  -2  17   54.30   11.61
  12  -2  20   33.67   11.81
  -2 -10  20   28.75    6.28
  12  -2  23   16.80    9.73
  -2 -10  23    6.66    5.00
  12  -2  26   91.82   15.67
  -2 -10  26   66.45    9.58
  10 -12 -26   68.91   10.65
  -2 -10  29  130.35   12.94
  12  -2  29  169.52   20.11
  12  -2  32  103.11   16.29
  -2 -10  32  110.58   12.05
  12  -2  35   35.38   11.46
  -2 -10  35   37.34    7.52
  11 -12  35   -3.62    7.44
  11 -12  32   10.95    8.53
  11 -12  29  -12.79    7.66
  11 -12  26    0.85    5.64
  11 -12  23    2.70    6.33
  11 -12  20   -5.82    6.74
  11 -12  17   -2.56    6.64
  11 -12  14   -3.34    7.33
  11 -12  11  209.96   18.66
  -1 -11 -11  218.16   17.90
  12  -1  -8  197.34    9.10
  11 -12   8  198.77   17.53
 -12   1   8  203.70    9.59
  11 -12   5   47.77    9.61
  12  -1  -5   57.24    6.43
 -12   1   5   51.14    5.94
  11 -12   2   69.07   11.01
  12  -1  -2   89.67    8.66
 -12   1   2   76.26    7.79
  11 -12  -1   65.59   10.61
 -12   1  -1   63.84    8.07
  12  -1   1   84.53    9.15
  12  -1   4   17.55    6.88
 -12   1  -7   93.59   10.78
  12  -1   7  104.72   12.02
 -12   1 -10    0.74    3.29
  12  -1  10   14.00    7.85
 -12   1 -13   24.29    7.26
  12  -1  13   27.63    9.84
  12  -1  16   47.84   11.50
  -1 -11  16   16.08    5.90
  12  -1  19   17.92   10.06
  -1 -11  19    7.46    5.09
  12  -1  22   17.07   10.40
  -1 -11  22   13.72    5.59
  12  -1  25    8.37    9.20
  -1 -11  25   -2.10    5.50
  11 -12 -25   -4.83    5.06
  12  -1  28   39.29   11.06
  -1 -11  28   33.97    7.56
  11 -12 -28   27.09    7.17
  -1 -11  31   10.73    5.20
  12  -1  31   18.12   10.88
  12  -1  34    4.04    7.93
  -1 -11  34    2.47    3.68
  -1 -11  37   -2.87    4.62
  12  -1  37    7.66    7.83
  12 -12  36    0.15    7.39
  12 -12  33  -18.98    9.59
  12 -12  30   24.71   10.20
  12 -12  27    9.45    8.54
  12 -12  24    0.17    6.07
  12 -12  21   38.97   11.08
  12 -12  18   -7.70    8.39
  12 -12  15   63.51   11.89
  12 -12  12  485.12   28.34
  12 -12   9  380.69   24.47
 -12   0   9  412.21   13.03
  12 -12   6  150.95   15.60
  12   0  -6  165.96    9.74
 -12   0   6  154.16    9.70
  12   0  -3  157.06   10.56
 -12   0   3  157.98   10.99
  12 -12   3  143.88   14.83
  12   0   0   87.76    9.13
 -12   0   0   77.48    8.67
  12 -12   0   79.03   11.15
  12 -12  -3   91.49   11.83
  12   0   3   81.07   10.09
 -12   0  -6  319.81   19.50
  12   0   6  338.59   19.55
 -12   0  -9  401.08   22.94
  12   0   9  406.97   22.58
  12   0  12  449.39   25.10
 -12   0 -12  447.41   25.55
  12   0  15  367.41   24.09
  12   0  18  146.00   16.70
   0 -12  18  120.93   13.37
  12   0  21   34.29   10.81
   0 -12  21   47.88    8.98
   0 -12  24   -5.11    4.96
  12   0  24   10.91    8.89
  12 -12 -27   -1.52    3.69
   0 -12  27   -4.39    5.29
  12   0  27    2.50    7.14
   0 -12  30    4.91    4.89
  12   0  30   18.24    9.28
  12   0  33   24.05   11.01
   0 -12  33    7.02    5.28
   0 -12  36   -6.12    5.05
  12   0  36   -0.59    6.17
  12   1  35    0.57    7.51
   1 -13  35    2.90    4.52
   1 -13  32   -5.08    4.88
  12   1  32    3.12    6.52
   1 -13  29    0.29    4.79
  12   1  29   -0.25    7.41
  13 -12 -26   -2.77    3.81
   1 -13  26    0.38    5.05
   1 -13  23    5.43    5.45
  12   1  23    1.26    6.64
  12   1  20   -4.31    8.04
   1 -13  20    0.16    5.02
   1 -13  17   54.27   10.15
  12   1  17   50.64   11.24
  12   1  14   30.23    8.76
 -12  -1 -11   30.50    8.12
  12   1  11   40.85    9.61
 -12  -1  -8  350.26   21.29
  12   1   8  314.77   19.86
  13 -12  -5  160.36   15.07
 -12  -1  -5  169.97   14.45
  12   1   5  170.89   13.95
  13 -12  -2    1.10    5.40
  12   1   2   -0.02    4.37
  13 -12   1   26.34    7.82
 -12  -1   1   35.12    6.33
  12   1  -1   34.75    6.60
 -12  -1   4   11.28    3.74
  13 -12   4   14.84    6.76
  13 -12   7   62.67   11.24
 -12  -1   7   54.45    5.94
  13 -12  10  155.25   16.68
 -12  -1  10  153.68    7.68
  13 -12  13   40.90    9.94
  13 -12  16   -2.78    6.42
  13 -12  19   39.38   10.62
  13 -12  22    6.60    7.91
  13 -12  25   12.37    7.57
  13 -12  28   18.49    9.53
  13 -12  31   -9.46    7.93
  13 -12  34   -4.49    7.95
  11   2  36   -2.41    6.52
   2 -13  36    2.03    4.30
   2 -13  33   -0.60    4.82
  11   2  33   -3.98    7.52
  11   2  30   40.97   12.00
   2 -13  30   25.79    8.01
   2 -13  27    2.66    5.32
  13 -11 -27    3.96    3.83
  11   2  27    6.78    8.20
   2 -13  24    3.15    5.69
  11   2  24   -2.19    7.04
   2 -13  21    7.82    5.87
  11   2  21    6.81    8.19
   2 -13  18   10.08    6.08
  11   2  18    7.83    7.49
   2 -13  15   14.32    7.11
  11   2  15   13.70    8.07
 -11  -2 -12   -6.73    6.06
  11   2  12   -7.86    6.92
  13 -11  -9    1.89    4.40
 -11  -2  -9   -3.46    5.52
  11   2   9   -1.94    5.68
  13 -11  -6    3.06    4.65
 -11  -2  -6   -3.21    4.85
  11   2   6   10.45    6.18
  13 -11  -3   25.69    6.78
  11   2   3   15.11    5.54
 -11  -2   0  139.07   11.47
  13 -11   0  141.33   14.18
  11   2   0  123.99   10.80
  13 -11   3    5.17    5.67
 -11  -2   3    1.13    3.12
  13 -11   6  100.65   12.60
 -11  -2   6  106.18    8.32
 -11  -2   9   20.76    3.53
  13 -11   9   13.67    6.22
  13 -11  12    7.07    5.88
 -11  -2  12   10.01    1.75
  13 -11  15   21.10    7.87
  13 -11  18   60.03   12.20
  13 -11  21  109.11   15.65
  13 -11  24   17.13    9.24
  13 -11  27   13.07    8.19
  13 -11  30  -12.36   11.22
  13 -11  33    0.16    8.52
  13 -11  36   -0.87    7.64
  10   3  34    2.66    7.74
   3 -13  34    2.47    4.82
   3 -13  31    9.67    6.19
  10   3  31   -8.78    9.85
   3 -13  28   12.48    6.54
  10   3  28   25.86   10.32
  13 -10 -28   28.72    6.28
  13 -10 -25   97.73   10.17
  10   3  25  108.16   15.63
   3 -13  25  105.78   14.18
   3 -13  22  112.54   14.08
  10   3  22  107.37   15.65
  10   3  19   43.28   11.00
   3 -13  19   32.85    8.78
  10   3  16  -11.91    8.39
   3 -13  16    0.74    5.41
  10   3  13    8.42    6.27
   3 -13  13   17.45    6.97
 -10  -3 -13   20.73    6.42
  10   3  10   99.06   12.05
 -10  -3 -10   95.11   11.92
  13 -10 -10   87.90   10.27
 -10  -3  -7  315.16   19.84
  10   3   7  301.14   18.73
  13 -10  -7  292.53   18.30
  13 -10  -4  216.67   16.12
  10   3   4  214.85   15.12
 -10  -3  -1  146.04   12.00
  13 -10  -1  151.82   14.05
  13 -10   2   23.19    7.34
 -10  -3   2   16.49    4.36
 -10  -3   5   10.04    3.50
  13 -10   5   12.91    6.27
 -10  -3   8  110.34    7.83
  13 -10   8  109.14   13.20
 -10  -3  11  135.25    7.09
 -13  10 -11  158.59   16.37
  13 -10  11  148.97   15.78
  13 -10  14  159.59   16.46
  13 -10  17  131.17   15.99
  13 -10  20   68.81   12.52
  13 -10  23   18.83    9.20
  13 -10  26    5.96    8.11
  13 -10  29   16.79    8.88
  13 -10  32   38.56   11.16
  13 -10  35   -8.58    7.61
   9   4  35  -14.10    9.05
   4 -13  35    3.20    6.09
   4 -13  32    2.33    4.81
   9   4  32   -8.42    9.07
   4 -13  29   20.90    7.85
   9   4  29    6.44    8.17
   9   4  26   34.39    9.97
   4 -13  26   16.55    6.98
  13  -9 -26   25.89    5.41
  13  -9 -23   91.73    9.03
   9   4  23   74.27   13.39
   4 -13  23   87.08   13.14
   4 -13  20    3.45    5.67
   9   4  20   -7.05    9.30
   9   4  17   -6.67    6.95
   4 -13  17    0.07    5.00
  13  -9 -14   28.63    5.73
  -9  -4 -14   26.54    7.32
   4 -13  14   27.11    8.34
   9   4  14   18.58    7.62
  13  -9 -11   16.41    4.99
   9   4  11    5.42    6.05
  -9  -4 -11   11.71    5.78
  13  -9  -8   30.65    6.36
  -9  -4  -8   32.29    7.40
   9   4   8   18.56    6.41
  13  -9  -5    2.71    3.83
  13  -9  -2    1.61    4.07
  -9  -4   1   38.68    6.63
  13  -9   1   41.18    8.29
  -9  -4   4    7.12    3.68
  13  -9   4   -7.59    6.48
 -13   9  -7    2.05    4.01
  -9  -4   7    6.21    3.47
  13  -9   7    4.12    5.76
  -9  -4  10    7.23    3.14
 -13   9 -10    6.88    4.40
  13  -9  10    3.81    5.40
  13  -9  13   -5.36    6.95
  -9  -4  13    2.53    1.89
 -13   9 -13    1.84    4.26
  13  -9  16    0.01    5.95
  13  -9  19   12.21    8.17
  13  -9  22  101.46   15.63
  13  -9  25  -12.33   10.84
  13  -9  28   -9.18   10.06
  13  -9  31   -3.26    8.04
  13  -9  34   -6.04    9.32
  13  -9  37    7.01    8.50
   5 -13  36   17.94    8.13
   5 -13  33   21.00    8.21
   5 -13  30   75.95   12.81
   8   5  30   69.50   14.18
  13  -8 -27   12.77    3.85
   8   5  27   -3.59    7.54
   5 -13  27    2.32    5.73
  13  -8 -24  133.84    9.60
   8   5  24  106.98   15.09
   5 -13  24  121.00   15.13
   5 -13  21   12.51    7.41
   8   5  21    3.18    8.14
  13  -8 -18    2.02    3.31
   5 -13  18    3.41    5.70
  13  -8 -15    0.23    2.80
  -8  -5 -15    6.35    5.73
   5 -13  15    0.49    5.64
  13  -8 -12    6.35    3.69
  -8  -5 -12   20.68    7.36
   5 -13  12    6.09    6.51
  -8  -5  -9   15.08    6.19
  13  -8  -9   11.14    4.51
  13  -8  -6  249.93   15.24
  -8  -5  -6  233.42   16.34
  13  -8  -3  165.24   12.89
  -8  -5   0  126.09   11.27
  13  -8   0  125.16   11.96
  -8  -5   3   25.92    5.70
  13  -8   3   19.01    5.85
  13  -8   6    8.16    5.40
 -13   8  -6   14.84    5.86
  -8  -5   6   14.02    4.46
  13  -8   9   -1.72    4.80
 -13   8  -9    1.98    3.91
  -8  -5   9    0.25    2.60
  13  -8  12   17.66    7.60
 -13   8 -12   10.97    5.04
  -8  -5  12   18.31    3.50
  -8  -5  15   41.90    4.42
  -8  -5  15   52.95    4.62
  13  -8  15   60.07   11.67
  -8  -5  18  103.63    5.11
  -8  -5  18  100.23    5.23
  13  -8  18  102.99   14.48
  13  -8  21   -6.86   10.05
  13  -8  24    4.98    8.95
  13  -8  27   46.78   12.46
  13  -8  30   77.37   14.51
  13  -8  33    0.23    6.91
  13  -8  36    0.60    7.31
   6 -13  37   27.38    9.13
   6 -13  34   -0.13    5.49
   6 -13  31   -5.45    6.35
   6 -13  28    6.71    6.24
  13  -7 -28    0.52    1.95
  13  -7 -25    4.74    2.78
   6 -13  25   -3.60    7.12
  13  -7 -22   -0.08    2.29
  13  -7 -22    2.03    2.58
   6 -13  22   -3.47    7.70
   6 -13  19   87.00   12.90
  13  -7 -19   78.72    7.03
  13  -7 -16   82.41    7.41
   6 -13  16   78.18   12.25
  -7  -6 -13    9.27    5.93
  13  -7 -13    1.51    2.82
   6 -13  13    1.30    5.36
  -7  -6 -10   11.37    5.78
  13  -7 -10    8.40    3.88
   6 -13  10   -1.13    6.35
  -7  -6  -7   32.05    7.60
  13  -7  -7   20.22    4.71
  13  -7  -4  111.84   10.33
  13  -7  -1   41.67    6.97
  13  -7   2  579.03   24.75
  -7  -6   2  623.41   22.95
  -7  -6   5  141.26   10.56
  13  -7   5  145.76   13.15
 -13   7  -5  113.85   12.07
  13  -7   8   33.57    8.40
 -13   7  -8   33.57    7.68
  -7  -6   8   43.14    5.96
  -7  -6  11   -3.22    3.19
 -13   7 -11   -0.46    3.89
 -13   7 -14   23.91    7.18
  13  -7  14   26.50    8.64
  13  -7  17  -15.21   10.06
  -7  -6  17    4.11    2.34
  -7  -6  20   12.71    2.85
  13  -7  20    2.09    8.08
  -7  -6  23    0.71    1.59
  13  -7  23   -9.90    9.25
  13  -7  26   28.03   10.87
  -7  -6  26   40.00    3.84
  13  -7  29   12.42    8.55
  -7  -6  29   17.92    2.58
  13  -7  32    7.86    9.15
  13  -7  35   28.30   11.59
   7 -13  35    1.19    6.64
   7 -13  32   18.29    8.07
   7 -13  29   37.16   10.23
   7 -13  26   -4.12    7.39
  13  -6 -26    0.19    0.89
  13  -6 -26    1.13    0.99
  13  -6 -23   16.84    2.60
  13  -6 -23   17.56    2.56
   7 -13  23   10.90    6.64
   7 -13  20   61.80   11.82
  13  -6 -20   49.04    4.47
  13  -6 -20   48.47    4.25
   7 -13  17  142.91   16.33
  13  -6 -17  139.02    7.89
  13  -6 -14   24.42    4.09
  -6  -7 -14   45.14    9.18
   7 -13  14   27.47    8.61
   7 -13  11   71.91   11.41
  -6  -7 -11   83.37   11.50
  13  -6 -11   70.69    6.85
   7 -13   8   42.99    9.49
  13  -6  -8   45.75    6.01
  -6  -7  -8   56.85    9.16
  -6  -7  -5   68.87    9.52
  13  -6  -5   71.67    7.99
  13  -6  -2   -2.56    4.18
  13  -6   1  481.05   21.49
  -6  -7   1  520.18   21.72
  -6  -7   4   15.62    4.51
  13  -6   4   16.72    6.15
 -13   6  -7    3.09    3.76
  13  -6   7    4.23    4.92
  13  -6  10    6.92    6.78
 -13   6 -10    1.07    3.47
 -13   6 -13   11.16    5.80
  13  -6  13    2.97    6.05
  13  -6  16   -8.74    8.65
  -6  -7  16    8.78    3.35
  -6  -7  19    0.38    2.44
  13  -6  19   -4.31    7.02
  13  -6  22  314.07   24.98
  -6  -7  22  334.49   14.04
  -6  -7  25   93.40    7.44
  13  -6  25   93.23   15.36
  13  -6  28    6.41    8.96
  -6  -7  28    8.64    2.92
  -6  -7  31    3.58    2.74
  13  -6  31   16.58    9.73
  13  -6  34   14.58    9.08
  13  -6  37   23.03   11.30
   8 -13  36   18.75    8.43
   8 -13  33   10.46    7.61
   8 -13  30    6.53    7.30
   8 -13  27   -4.96    7.88
   8 -13  24   66.90   12.40
   8 -13  21   62.87   11.59
   8 -13  18   -1.04    5.35
  13  -5 -18    0.21    0.83
  13  -5 -18    1.25    0.90
   8 -13  15    3.12    5.88
  13  -5 -15    6.66    2.05
   8 -13  12    7.58    6.91
  13  -5 -12    3.97    2.18
  -5  -8 -12    6.68    5.35
   8 -13   9   10.58    5.79
  -5  -8  -9   23.03    6.53
  13  -5  -9   18.10    4.03
  13  -5  -6   72.64    7.46
  -5  -8  -6   81.66   10.16
 -13   5   3  100.12    9.48
  13  -5  -3  110.36    9.65
 -13   5   0    3.65    3.21
  13  -5   0   10.23    5.08
  13  -5   3   88.20   10.30
  13  -5   6    3.88    5.55
 -13   5  -6   11.00    4.16
 -13   5  -9   12.50    5.69
  13  -5   9    2.41    5.88
  13  -5  12    9.57    5.60
 -13   5 -12   17.21    6.29
  13  -5  15   26.51    7.60
 -13   5 -15   37.07    8.28
  -5  -8  18    5.56    3.90
  13  -5  18   -0.60    6.94
  13  -5  21   -3.58    8.74
  -5  -8  21    2.26    3.17
  -5  -8  24  142.73   10.71
  13  -5  24  137.23   18.01
  -5  -8  27   64.10    7.45
  13  -5  27   89.16   15.56
  13  -5  30   60.13   13.23
  -5  -8  30   46.48    6.35
  13  -5  33   18.87    9.04
  13  -5  36   11.28   10.24
   9 -13  37   -6.10    6.78
   9 -13  34   10.33    6.69
   9 -13  31    1.13    5.74
   9 -13  28   19.08    8.90
   9 -13  25   21.22    8.70
   9 -13  22   -1.87    7.16
   9 -13  19   -6.04    7.26
   9 -13  16   -0.77    5.65
  13  -4 -13    1.14    1.51
   9 -13  13    1.65    5.90
  -4  -9 -13    0.80    5.17
   9 -13  10    7.70    7.30
  13  -4 -10    3.73    2.61
  -4  -9 -10   10.24    5.36
  13  -4  -7   -2.31    3.70
   9 -13   7   -2.65    6.15
  -4  -9  -7    1.40    4.01
 -13   4   4    1.24    2.54
  -4  -9  -4   -5.99    5.51
  13  -4  -4   -2.28    4.53
 -13   4   1   56.52    7.46
  13  -4  -1   54.04    7.28
  13  -4   2   83.17    9.76
  13  -4   5  309.77   18.71
  13  -4   8   17.39    6.57
 -13   4  -8   27.95    6.96
  13  -4  11   38.63    8.91
 -13   4 -11   49.06    8.85
  13  -4  14    9.38    6.58
 -13   4 -14    9.37    5.53
  -4  -9  17    9.56    4.25
  13  -4  17   12.75    8.69
  13  -4  20   11.38    9.50
  -4  -9  20    4.23    3.49
  -4  -9  23  193.22   13.53
  13  -4  23  197.55   20.44
  -4  -9  26    1.28    3.55
  13  -4  26    8.89    8.62
  13  -4  29   15.57   10.13
  -4  -9  29    5.77    3.98
  13  -4  32   13.85    9.35
  -4  -9  32   -2.53    4.06
  13  -4  35   23.04   11.59
  10 -13  35    6.75    5.95
  10 -13  32   35.95   11.65
  10 -13  29    8.50    7.35
  10 -13  26    4.18    6.28
  10 -13  23   35.09    9.78
  10 -13  20   43.05   10.64
  10 -13  17   16.42    8.28
  10 -13  14   40.39    9.54
  13  -3 -11   43.41    4.15
  10 -13  11   40.39    9.84
  -3 -10 -11   47.89    9.20
  13  -3  -8   15.40    4.11
  10 -13   8   11.35    7.28
  -3 -10  -8    9.50    5.15
  10 -13   5  157.59   16.04
 -13   3   5  168.85   10.96
  13  -3  -5  172.85   10.79
  13  -3  -2   38.91    6.28
 -13   3   2   43.07    6.44
  13  -3   1   15.69    5.33
 -13   3  -1    8.40    4.23
  13  -3   4   59.34    8.94
  13  -3   7    8.27    5.89
 -13   3  -7   14.32    5.13
  13  -3  10    3.37    5.35
 -13   3 -10    2.23    3.65
  13  -3  13    2.59    5.59
 -13   3 -13    1.51    3.61
  -3 -10  16   10.06    5.08
  13  -3  16    6.99    7.85
  -3 -10  19   39.99    7.24
  13  -3  19   44.50   11.30
  13  -3  22   45.75   13.06
  -3 -10  22   19.77    6.09
  13  -3  25   45.62   11.29
  -3 -10  25   40.75    7.42
  13  -3  28   22.92   10.73
  -3 -10  28   -1.39    4.06
  13  -3  31   33.76   12.20
  -3 -10  31   10.75    5.02
  13  -3  34   12.60    9.37
  -3 -10  34   -5.54    4.51
  11 -13  36    7.15    7.70
  11 -13  33   33.56   10.99
  11 -13  30   48.75   11.83
  11 -13  27   45.23   10.90
  11 -13  24   -1.75    6.34
  11 -13  21    2.15    7.14
  11 -13  18   -3.30    8.09
  11 -13  15   29.84    9.05
  11 -13  12    5.59    6.82
  -2 -11  -9   50.56    9.23
  13  -2  -9   44.09    4.84
  11 -13   9   37.20    9.24
  11 -13   6  137.52   15.21
 -13   2   6  130.65    9.37
  13  -2  -6  128.20    8.86
 -13   2   3   58.74    6.98
  13  -2  -3   56.32    7.48
  11 -13   3   45.47    9.42
  13  -2   0    7.94    5.93
 -13   2   0    1.76    3.21
  13  -2   3   78.60   10.64
 -13   2  -6  123.41   12.56
  13  -2   6  142.14   13.52
  13  -2   9    8.21    6.27
 -13   2  -9   14.56    5.62
  13  -2  12   52.39   11.24
 -13   2 -12   30.25    7.60
  13  -2  15   26.19   10.37
  13  -2  18    3.69    8.30
  -2 -11  18    0.93    4.24
  -2 -11  21    1.19    3.94
  13  -2  21   25.86   11.26
  13  -2  24   16.43    9.14
  -2 -11  24    4.34    4.40
  13  -2  27   68.87   14.41
  -2 -11  27   49.45    8.77
  13  -2  30    3.73    7.08
  -2 -11  30    6.19    4.16
  -2 -11  33    3.76    4.56
  13  -2  33   26.00   11.44
  13  -2  36   20.81   11.00
  12 -13  34   -7.27    8.05
  12 -13  31   10.12    8.87
  12 -13  28   26.43    9.70
  12 -13  25    0.42    5.78
  12 -13  22   -1.87    6.63
  12 -13  19   16.61    7.63
  12 -13  16   -5.48    6.66
  12 -13  13   25.94    9.47
  12 -13  10   32.66    9.21
 -13   1   7    3.15    2.67
  13  -1  -7    1.43    2.71
  12 -13   7   -2.85    5.61
  12 -13   4   -0.71    6.01
 -13   1   4   -0.53    2.74
  13  -1  -4    5.39    4.14
  13  -1  -1   21.65    5.70
  12 -13   1   16.00    6.49
 -13   1   1   15.39    4.31
  13  -1   2    5.24    5.54
  12 -13  -2   -2.67    6.25
  13  -1   5   23.06    7.69
 -13   1  -5   18.53    5.64
  13  -1   8   29.14    8.29
 -13   1  -8   28.82    6.94
 -13   1 -11  186.96   16.74
  13  -1  11  189.12   17.10
  13  -1  14  155.41   16.43
  13  -1  17   27.40    9.42
  -1 -12  17   17.77    6.64
  13  -1  20   17.30    8.59
  -1 -12  20    8.25    5.45
  13  -1  23   21.91    9.14
  -1 -12  23   15.77    5.88
  13  -1  26   20.85    9.67
  -1 -12  26   14.62    5.51
  12 -13 -26    2.64    4.46
  -1 -12  29    4.98    4.62
  13  -1  29    0.02    8.15
  -1 -12  32    5.27    4.68
  13  -1  32   -0.61    6.29
  -1 -12  35    1.93    4.86
  13  -1  35   -5.74    8.64
  13 -13  32    9.71    7.51
  13 -13  29   -4.73    7.40
  13 -13  26    7.27    7.42
  13 -13  23    4.90    6.93
  13 -13  20    4.44    7.89
  13 -13  17    3.94    7.78
  13 -13  14   15.84    8.08
  13 -13  11   -4.49    6.69
 -13   0  11    0.26    1.13
 -13   0   8    0.31    2.08
  13 -13   8    0.70    6.79
  13 -13   5  140.23   15.64
  13   0  -5  127.22    9.40
 -13   0   5  131.17    9.92
  13   0  -2  102.84    9.78
 -13   0   2   98.53    9.51
  13 -13   2   86.83   12.64
  13   0   1   90.98   10.06
  13 -13  -1  111.07   13.71
  13 -13  -4  203.16   17.99
 -13   0  -4  199.42   15.44
  13   0   4  223.77   15.95
 -13   0  -7   23.59    6.44
  13   0   7   23.26    7.80
 -13   0 -10   10.95    5.20
  13   0  10    1.20    6.15
  13   0  13   11.50    7.31
   0 -13  16   -3.25    6.47
  13   0  16    1.98    6.66
   0 -13  19   46.49    9.41
  13   0  19   41.23   11.50
   0 -13  22    2.03    4.81
  13   0  22   16.51    9.87
  13   0  25   19.27    9.69
   0 -13  25    2.67    4.60
   0 -13  28    2.32    4.71
  13   0  28   -4.13    8.24
   0 -13  31    5.78    4.59
  13   0  31   10.56    9.27
  13   0  34    0.73    7.25
   0 -13  34   -0.21    3.69
   1 -14  33    6.28    6.12
  13   1  33    5.54    7.46
   1 -14  30    0.45    4.23
  13   1  30   -4.93    6.89
   1 -14  27   -2.26    5.05
  13   1  27    1.24    6.75
   1 -14  24   26.19    7.59
  13   1  24   30.11   10.91
  13   1  21    6.44    8.36
   1 -14  21   11.66    6.72
  13   1  18   68.71   12.98
   1 -14  18   72.78   11.80
  13   1  15   23.03    9.30
  13   1  12   -4.58    7.38
 -13  -1  -9   78.98   11.37
  13   1   9   74.06   11.39
  14 -13  -6   49.80    9.45
 -13  -1  -6   55.11    9.09
  13   1   6   62.57   10.04
 -13  -1  -3   83.50   10.23
  14 -13  -3   64.53   10.88
  13   1   3   76.01    9.66
  14 -13   0   89.62   12.89
  13   1   0   94.07    9.94
  14 -13   3  113.12   14.25
 -13  -1   3  107.98    9.71
  14 -13   6   54.56   11.00
 -13  -1   6   63.00    6.96
  14 -13   9   69.19   11.87
 -13  -1   9   59.99    5.75
 -13  -1  12    1.73    1.00
  14 -13  12   -3.57    7.71
  14 -13  15    9.96    8.15
  14 -13  18   17.08    8.96
  14 -13  21   -1.88    7.02
  14 -13  24   -0.31    6.73
  14 -13  27   60.94   13.71
  14 -13  30   12.09    7.39
  14 -13  33   13.35    9.77
   2 -14  34   -1.06    4.89
  12   2  34   -5.41    9.40
   2 -14  31   11.98    5.73
  12   2  31   16.10    9.55
   2 -14  28   33.08    9.05
  12   2  28   32.53   11.52
   2 -14  25    3.16    5.79
  12   2  25   -3.40    7.13
   2 -14  22   42.89    9.59
  12   2  22   45.77   11.86
   2 -14  19   10.37    6.50
  12   2  19   13.68    8.34
  12   2  16    3.68    7.01
   2 -14  16    9.19    7.06
  12   2  13    4.13    7.14
 -12  -2 -10   18.14    6.50
  14 -12 -10   22.61    6.47
  12   2  10   24.76    8.46
  14 -12  -7  191.61   16.39
 -12  -2  -7  207.89   16.73
  12   2   7  185.22   15.59
  14 -12  -4   41.51    8.42
 -12  -2  -4   26.35    6.58
  12   2   4   43.03    7.83
  12   2   1   40.94    7.41
  14 -12  -1   47.74    9.33
  14 -12   2   10.44    5.87
 -12  -2   2   12.24    4.77
  14 -12   5   56.12   10.30
 -12  -2   5   65.49    7.37
 -12  -2   8   50.49    5.80
  14 -12   8   44.83   10.09
 -12  -2  11    0.65    1.49
  14 -12  11   -6.37    8.13
  14 -12  14   -3.58    8.07
  14 -12  17    3.78    7.68
  14 -12  20    3.94    7.00
  14 -12  23   27.48   10.40
  14 -12  26   70.12   14.02
  14 -12  29   15.47    7.17
  14 -12  32  -13.21   10.76
  11   3  35   -7.69    8.28
   3 -14  35   -0.21    4.23
   3 -14  32    0.55    5.18
  11   3  32    4.88    7.46
   3 -14  29    9.49    5.97
  11   3  29    8.97    8.66
  11   3  26    0.64    8.11
  14 -11 -26    1.75    3.33
   3 -14  26    4.94    5.20
   3 -14  23    8.52    6.56
  11   3  23    6.01    7.73
   3 -14  20  103.95   13.91
  11   3  20  105.56   14.86
   3 -14  17   38.34    9.32
  11   3  17   33.90    9.47
   3 -14  14   22.05    7.96
  11   3  14   25.89    8.91
  14 -11 -11    4.10    4.33
 -11  -3 -11    5.57    3.93
  11   3  11   -0.41    6.62
  14 -11  -8   20.27    6.49
 -11  -3  -8   16.56    5.49
  11   3   8   13.41    6.32
  14 -11  -5   49.64    8.91
 -11  -3  -5   43.32    8.24
  11   3   5   44.21    8.39
  14 -11  -2   15.14    6.65
  14 -11   1   16.70    6.20
 -11  -3   1   21.32    5.20
  14 -11   4    6.24    5.49
 -11  -3   4    2.80    3.66
 -11  -3   7    2.14    2.80
  14 -11   7    7.99    5.98
  14 -11  10    9.64    7.54
 -11  -3  10   11.46    3.11
  14 -11  13   28.77    8.20
 -11  -3  13   25.13    2.67
  14 -11  16    1.99    7.08
  14 -11  19   27.04    9.06
  14 -11  22    6.09    7.65
  14 -11  25   29.63   10.81
  14 -11  28  -28.40   12.89
  14 -11  31   -4.24    9.87
  14 -11  34   -1.97    8.90
   4 -14  33   -3.37    5.23
  10   4  33   -3.62    7.57
   4 -14  30   15.63    7.42
  10   4  30   12.01    8.07
  10   4  27   35.43   11.31
   4 -14  27   28.78    8.77
   4 -14  24    6.53    6.05
  10   4  24    1.39    7.59
  14 -10 -24   -2.17    3.78
   4 -14  21   83.45   13.11
  10   4  21   75.37   13.05
   4 -14  18   45.29   10.49
  10   4  18   32.41    9.55
   4 -14  15   -1.81    5.47
  14 -10 -15    7.24    4.74
  10   4  15   -1.98    7.71
  10   4  12   27.58    7.90
 -10  -4 -12   39.66    8.80
  14 -10 -12   33.58    6.88
 -10  -4  -9   85.42   11.39
  14 -10  -9   85.33   10.39
  10   4   9   74.80   10.71
  14 -10  -6  397.38   21.41
 -10  -4  -6  393.11   22.26
  14 -10  -3  274.17   18.22
  14 -10   0   89.89   11.47
  14 -10   3   27.67    7.27
 -10  -4   3   51.72    7.55
 -10  -4   6    1.72    2.82
  14 -10   6   -2.70    6.73
 -14  10  -9  136.76   15.35
  14 -10   9  127.90   14.55
 -10  -4   9  125.92    8.63
 -10  -4  12   47.03    4.64
  14 -10  12   53.91   10.94
  14 -10  15   34.29   10.04
 -10  -4  15   41.07    2.85
 -10  -4  15   39.14    2.83
  14 -10  18  340.86   25.26
  14 -10  21   33.48    9.94
  14 -10  24   96.36   14.93
  14 -10  27    5.19    8.37
  14 -10  30   -3.71    8.01
  14 -10  33   -2.45    6.27
   5 -14  34   -1.30    4.89
   5 -14  31    4.62    6.06
   9   5  31   -8.28    8.41
   5 -14  28    5.20    5.90
   9   5  28   -3.78    8.77
   9   5  25   -1.71    8.07
   5 -14  25    6.11    5.80
  14  -9 -25    4.52    3.24
   5 -14  22   17.97    7.99
   9   5  22   -2.34    8.08
  14  -9 -19   69.50    8.28
   9   5  19   69.37   12.80
   5 -14  19   65.56   11.68
   5 -14  16    6.66    6.66
  14  -9 -16    9.35    4.45
   5 -14  13    8.56    6.14
  14  -9 -13   12.81    4.58
  -9  -5 -13    7.63    6.15
  -9  -5 -10    5.59    5.12
  14  -9 -10    0.22    4.09
  -9  -5  -7   10.56    5.48
  14  -9  -7    4.64    3.84
  14  -9  -4   30.64    6.38
  -9  -5  -4   26.79    6.86
  14  -9  -1   -9.56    6.38
  -9  -5   2    4.81    4.08
  14  -9   2   -3.14    5.29
  -9  -5   5   16.31    5.05
  14  -9   5    5.44    5.51
  -9  -5   8   17.57    4.35
  14  -9   8    5.40    5.75
 -14   9  -8   -0.10    4.28
  -9  -5  11   14.28    3.87
  14  -9  11    0.22    5.50
 -14   9 -11   -0.01    3.75
  14  -9  14   45.34   10.72
  -9  -5  14   43.37    4.51
  -9  -5  17  116.62    5.50
  14  -9  17  125.54   16.45
  -9  -5  17  109.12    5.23
  14  -9  20  169.78   19.23
  14  -9  23   49.96   10.90
  14  -9  26   -0.95    7.35
  14  -9  29  -15.84    9.27
  14  -9  32   -4.72    9.21
  14  -9  35    2.13    7.72
   6 -14  35   16.27    7.41
   6 -14  32   15.14    7.56
   6 -14  29   64.92   12.45
  14  -8 -26    8.36    3.14
  14  -8 -26    0.99    2.55
   6 -14  26    5.54    6.41
  14  -8 -23   60.78    6.15
   6 -14  23   60.03   11.56
  14  -8 -23   63.47    6.72
   6 -14  20    8.36    7.14
  14  -8 -20    1.23    2.74
   6 -14  17   14.37    6.93
  14  -8 -17   21.15    4.54
   6 -14  14   19.89    8.62
  14  -8 -14   19.17    4.86
   6 -14  11    9.09    6.16
  -8  -6 -11   24.25    8.19
  14  -8 -11   16.12    4.63
  -8  -6  -8   74.91   10.63
  14  -8  -8   60.55    8.11
  -8  -6  -5   24.15    6.73
  14  -8  -5   14.89    4.94
  14  -8  -2   37.60    7.22
  14  -8   1  107.11   11.69
 -14   8  -4  222.32   17.47
  14  -8   4  216.02   16.93
  -8  -6   4  225.72   13.99
  14  -8   7   78.48   10.92
  -8  -6   7   81.92    8.03
 -14   8  -7   82.20   11.16
  14  -8  10  128.53   14.46
  -8  -6  10  130.56    9.30
 -14   8 -10  139.76   14.90
  14  -8  13  117.18   14.42
  -8  -6  13  128.95    8.62
  -8  -6  16   87.95    6.88
  -8  -6  16   81.39    6.17
  14  -8  16   82.95   13.31
  -8  -6  19   38.79    3.93
  14  -8  19   32.69    9.38
  -8  -6  19   39.60    4.03
  14  -8  22  -12.36   10.73
  -8  -6  22   -1.02    1.24
  14  -8  25  106.48   15.84
  14  -8  28  117.96   17.17
  14  -8  31   80.17   15.07
  14  -8  34   14.27    8.74
   7 -14  36    3.39    6.34
   7 -14  33    6.21    7.13
   7 -14  30    2.78    5.92
   7 -14  27   -3.82    6.64
  14  -7 -27    1.00    1.17
  14  -7 -24    3.24    1.92
  14  -7 -24    0.94    1.46
   7 -14  21    7.99    6.93
  14  -7 -21   10.74    2.79
  14  -7 -21    9.94    2.60
  14  -7 -18   21.19    3.92
   7 -14  18   16.36    8.04
   7 -14  15    1.55    6.74
  14  -7 -15    3.33    2.87
   7 -14  12   10.37    6.21
  -7  -7 -12   23.03    7.36
  14  -7 -12    8.20    3.45
  -7  -7  -9   42.99    8.58
   7 -14   9   50.93   10.65
  14  -7  -9   34.11    5.81
  -7  -7  -6   87.72   11.20
  14  -7  -6   95.03    9.47
  14  -7  -3    3.00    3.62
  -7  -7  -3    5.34    3.75
  14  -7   0  304.85   18.08
  14  -7   3  508.75   24.16
  -7  -7   3  502.26   21.18
  14  -7   6  229.99   17.62
  -7  -7   6  237.26   13.99
 -14   7  -6  237.10   17.94
  -7  -7   9    1.05    3.67
  14  -7   9    1.12    5.60
 -14   7  -9    5.54    4.27
  14  -7  12    5.29    6.72
 -14   7 -12    9.05    5.77
  14  -7  15  -12.94    9.71
  14  -7  18   -6.73    9.86
  -7  -7  18   12.73    3.56
  14  -7  21   59.77   11.87
  -7  -7  21   61.62    6.00
  -7  -7  24   28.77    3.97
  14  -7  24   16.80    9.86
  -7  -7  27   35.58    4.06
  14  -7  27   20.15    9.07
  14  -7  30   11.85    9.08
  14  -7  33    6.13    8.12
  14  -7  36   25.50   11.54
   8 -14  34   10.69    7.17
   8 -14  31   51.23   11.95
   8 -14  28   14.13    7.85
   8 -14  25   15.26    8.02
   8 -14  22  -11.37    8.68
   8 -14  19   33.15    9.92
  14  -6 -19   40.18    3.66
  14  -6 -19   33.05    3.29
   8 -14  16  246.25   21.34
  14  -6 -16  208.28    9.51
  14  -6 -13  187.60   10.12
   8 -14  13  194.89   19.06
   8 -14  10  261.99   21.23
  14  -6 -10  237.01   12.52
  -6  -8 -10  272.19   19.64
  14  -6  -7   14.08    4.31
  -6  -8  -7   17.95    5.87
  -6  -8  -4   -2.03    4.79
  14  -6  -4    2.87    3.55
 -14   6   1   55.13    8.11
  14  -6  -1   60.70    8.23
  14  -6   2  311.47   18.29
  14  -6   5  331.38   20.23
 -14   6  -5  330.51   20.31
  -6  -8   5  317.92   17.39
 -14   6  -8    0.18    4.16
  14  -6   8   -4.89    6.05
 -14   6 -11   -0.85    3.33
  14  -6  11   -6.68    7.32
  14  -6  14   -6.20    8.34
  -6  -8  17   41.62    6.31
  14  -6  17   23.86    9.15
  14  -6  20  185.33   19.25
  -6  -8  20  167.10   11.22
  14  -6  23   57.88   12.42
  -6  -8  23   72.65    7.31
  14  -6  26   25.46    9.83
  -6  -8  26   34.03    5.14
  14  -6  29   41.57   12.30
  -6  -8  29   33.12    4.95
  14  -6  32   13.94    9.79
  14  -6  35   14.36    8.98
   9 -14  35    5.06    7.00
   9 -14  32    9.14    7.16
   9 -14  29   12.34    8.40
   9 -14  26   -0.20    7.02
   9 -14  23   -7.83    8.14
   9 -14  20    1.89    6.50
   9 -14  17   88.10   14.28
  14  -5 -14  103.94    6.33
   9 -14  14  115.78   15.40
  14  -5 -11   89.06    7.11
   9 -14  11   90.35   13.73
  -5  -9 -11  111.51   13.27
   9 -14   8   22.02    8.58
  14  -5  -8   24.52    4.68
  -5  -9  -8   25.20    7.59
  -5  -9  -5    2.43    4.06
  14  -5  -5   -6.82    4.41
  14  -5  -2   -9.21    5.52
  -5  -9  -2   -5.81    5.38
 -14   5   2    7.29    3.77
  14  -5   1   32.72    6.58
 -14   5  -4   28.23    6.53
  14  -5   4   33.05    7.09
 -14   5  -7   27.69    6.88
  14  -5   7   27.24    8.10
 -14   5 -10    5.88    5.31
  14  -5  10   -2.72    7.41
  14  -5  13    5.88    5.74
 -14   5 -13   12.36    5.55
  14  -5  16   96.14   13.86
  -5  -9  19  181.61   13.14
  14  -5  19  163.78   18.02
  -5  -9  22    5.72    3.83
  14  -5  22    4.38    8.62
  14  -5  25   40.95   11.88
  -5  -9  25    9.35    3.95
  14  -5  28   14.77   10.12
  -5  -9  28    5.79    3.57
  14  -5  31    9.26    9.49
  -5  -9  31   -5.97    4.14
  14  -5  34   25.10   11.77
  10 -14  33   13.93    8.28
  10 -14  30   16.46    8.64
  10 -14  27    9.07    7.97
  10 -14  24   -8.48    6.99
  10 -14  21   27.99    9.69
  10 -14  18   20.94    7.98
  10 -14  15  146.86   17.06
  14  -4 -12   95.41    6.32
  10 -14  12   94.14   14.12
  -4 -10  -9   98.15   12.51
  10 -14   9  103.58   14.05
  14  -4  -9   99.55    7.68
  14  -4  -6   22.70    4.93
  -4 -10  -6   25.95    7.31
  10 -14   6   16.46    7.21
 -14   4   3   -0.15    3.38
  14  -4  -3   -4.24    4.51
  -4 -10  -3   -6.63    5.52
 -14   4   0   53.61    7.73
  14  -4   0   50.53    7.91
  14  -4   3  218.44   15.81
  14  -4   6  216.16   16.51
 -14   4  -6  240.91   17.90
  14  -4   9    8.99    6.57
 -14   4  -9    6.88    4.62
  14  -4  12   -1.67    5.79
 -14   4 -12   -5.77    5.32
  14  -4  15    5.85    7.91
  -4 -10  18    9.14    4.75
  14  -4  18   18.59    8.15
  14  -4  21   13.20    9.49
  -4 -10  21    7.26    4.80
  14  -4  24   38.07   12.50
  -4 -10  24   12.29    4.76
  14  -4  27   68.14   13.90
  -4 -10  27   55.46    8.07
  14  -4  30   60.98   13.09
  -4 -10  30   52.40    7.77
  14  -4  33   13.27    8.68
  11 -14  34    5.16    6.88
  11 -14  31    9.93    7.27
  11 -14  28   20.28    8.71
  11 -14  25   -2.95    6.41
  11 -14  22   -3.23    7.18
  11 -14  19    7.03    7.74
  11 -14  16   -1.32    7.21
  11 -14  13    3.36    6.80
  14  -3 -10   10.73    3.36
  11 -14  10    7.45    7.02
  14  -3  -7   14.77    4.55
 -14   3   7    5.93    2.63
  11 -14   7    1.59    6.73
  -3 -11  -7    0.31    4.88
  14  -3  -4   29.87    5.75
  11 -14   4   21.94    7.57
 -14   3   4   34.83    5.86
  14  -3  -1    1.19    4.49
 -14   3   1    1.35    3.09
  14  -3   2    7.97    5.63
  14  -3   5   26.24    8.03
 -14   3  -5    6.03    4.05
 -14   3  -8  143.64   14.41
  14  -3   8  148.92   14.44
  14  -3  11    9.13    7.62
 -14   3 -11   -1.56    4.90
  14  -3  14   21.74    9.83
  14  -3  17   32.00   11.25
  -3 -11  17    6.33    4.84
  -3 -11  20    0.39    4.04
  14  -3  20   12.32    9.16
  14  -3  23   44.44   12.81
  -3 -11  23   22.29    5.86
  14  -3  26   27.76   11.09
  -3 -11  26    1.99    4.00
  14  -3  29   31.95   11.62
  -3 -11  29   11.94    4.64
  14  -3  32    9.44    8.30
  -3 -11  32    3.42    3.68
  14  -3  35   -0.58    6.33
  12 -14  32   38.57   11.46
  12 -14  29    0.43    5.89
  12 -14  26   22.28    8.82
  12 -14  23    9.50    6.83
  12 -14  20    1.17    6.33
  12 -14  17    6.57    6.09
  12 -14  14   19.36    8.70
  12 -14  11    3.90    7.23
  14  -2  -8   90.54    7.29
  12 -14   8   88.48   13.12
 -14   2   8   87.37    7.47
 -14   2   5  106.91    9.30
  12 -14   5   94.57   13.62
  14  -2  -5  119.14    9.53
  12 -14   2   45.53    9.63
  14  -2  -2   63.20    8.29
 -14   2   2   53.00    7.29
  14  -2   1   31.51    7.25
 -14   2  -4   43.13    7.72
  14  -2   4   85.49   11.12
  14  -2   7  172.08   15.76
 -14   2  -7  185.43   16.04
  14  -2  10    6.91    6.82
 -14   2 -10    1.81    3.37
  14  -2  13   25.15    9.85
  14  -2  16   68.03   13.48
  14  -2  19   50.88   12.52
  -2 -12  19   26.56    7.11
  14  -2  22   86.21   15.02
  -2 -12  22   51.36    9.10
  14  -2  25   97.12   15.73
  -2 -12  25   79.23   10.88
  14  -2  28   42.97   11.33
  -2 -12  28   32.55    7.37
  14  -2  31   34.62   11.82
  -2 -12  31   23.32    6.51
  -2 -12  34   11.54    4.99
  14  -2  34    6.52    7.36
  13 -14  33    2.21    5.92
  13 -14  30   -1.54    6.96
  13 -14  27   -1.71    6.14
  13 -14  24    5.86    6.95
  13 -14  21   -1.00    7.32
  13 -14  18    9.66    8.52
  13 -14  15    3.30    7.54
  13 -14  12    7.57    8.07
  13 -14   9   -0.18    6.69
 -14   1   9    1.78    1.95
 -14   1   6  108.86    9.02
  13 -14   6  127.77   15.78
  14  -1  -6  111.48    8.74
  13 -14   3    4.90    5.72
 -14   1   3   13.19    4.18
  14  -1  -3   16.40    5.48
  13 -14   0   36.84    9.22
  14  -1   0   45.42    7.90
  13 -14  -3   83.50   12.63
 -14   1  -3  103.77   11.44
  14  -1   3  110.66   11.73
  14  -1   6    2.66    5.90
 -14   1  -6    0.46    3.80
  14  -1   9    2.58    6.44
 -14   1  -9    0.10    4.00
  14  -1  12    3.90    6.11
  14  -1  15   36.36   10.61
  14  -1  18   77.96   13.99
  -1 -13  18   72.57   11.05
  -1 -13  21  176.45   16.44
  14  -1  21  180.72   19.46
  14  -1  24   84.74   15.19
  -1 -13  24   70.05   11.16
  -1 -13  27   -0.59    4.38
  14  -1  27    8.97    8.34
  -1 -13  30   -3.89    4.41
  14  -1  30    1.44    7.07
  -1 -13  33    5.15    4.44
  14  -1  33    4.77    8.46
  14 -14  31    1.13    5.58
  14 -14  28    1.44    7.01
  14 -14  25   20.89    8.71
  14 -14  22   46.03   12.03
  14 -14  19   52.56   11.58
  14 -14  16    3.03    7.31
  14 -14  13  -13.96    9.61
  14 -14  10   25.93    9.78
 -14   0  10   32.67    4.17
  14 -14   7   95.93   14.57
 -14   0   7  104.91    8.70
 -14   0   4    9.74    3.93
  14   0  -4    5.25    3.68
  14 -14   4   11.09    6.56
  14 -14   1   25.87    8.21
  14   0  -1   21.13    5.73
  14 -14  -2    6.89    6.03
 -14   0  -2   10.19    4.67
  14   0   2    5.08    5.24
 -14   0  -5   30.31    7.35
  14 -14  -5   26.34    7.75
  14   0   5   31.56    8.37
 -14   0  -8   62.33   10.07
  14   0   8   52.47    9.83
  14   0  11    4.04    7.83
  14   0  14   11.13    8.67
   0 -14  17   32.12    8.43
  14   0  17   43.66   11.40
   0 -14  20   42.24    9.29
  14   0  20   37.45   10.35
   0 -14  23   43.12    9.42
  14   0  23   53.94   13.03
  14   0  26    8.31    9.63
   0 -14  26    0.81    4.57
   0 -14  29    0.30    4.35
  14   0  29   16.73    9.82
   0 -14  32    5.79    5.19
  14   0  32    2.28    7.71
   1 -15  31    0.86    4.35
  14   1  31   -3.75    7.36
   1 -15  28   -2.00    4.41
  14   1  28   -3.73    7.72
   1 -15  25   10.69    6.45
  14   1  25   17.35   10.32
   1 -15  22   10.60    6.35
  14   1  22   21.60    9.52
   1 -15  19   31.95    8.98
  14   1  19   30.97   10.70
   1 -15  16   22.92    8.29
  14   1  16    7.71    8.20
  14   1  13   16.81    8.99
  15 -14 -10   62.80   10.74
  14   1  10   58.18   10.92
  15 -14  -7  199.38   18.41
 -14  -1  -7  221.76   17.98
  14   1   7  216.59   17.17
  15 -14  -4   15.75    7.66
  14   1   4    5.47    5.61
 -14  -1  -4   11.50    5.21
 -14  -1  -1   42.73    7.61
  15 -14  -1   54.45   10.84
  14   1   1   47.36    8.15
  14   1  -2   -5.48    5.00
  15 -14   2   -2.91    6.97
 -14  -1   5    5.31    3.22
  15 -14   5    3.32    6.80
  15 -14   8   14.94    7.73
 -14  -1   8   13.41    3.64
  15 -14  11   -3.96    8.75
 -14  -1  11    3.40    1.76
  15 -14  14    1.88    7.62
  15 -14  17   65.38   13.52
  15 -14  20   28.02    9.99
  15 -14  23   15.21    9.12
  15 -14  26    0.58    5.86
  15 -14  29    0.73    6.87
  15 -14  32   -8.50    9.33
   2 -15  32    7.22    5.58
  13   2  32    0.75    7.60
   2 -15  29   -5.78    6.30
  13   2  29    1.44    7.36
  13   2  26    4.40    6.73
   2 -15  26   -1.45    5.27
   2 -15  23   46.77   10.17
  13   2  23   50.74   12.54
   2 -15  20   -0.01    5.39
  13   2  20    1.41    7.06
   2 -15  17   31.86    9.43
  13   2  17   38.84   10.34
  13   2  14    6.05    7.43
  15 -13 -11   94.66   12.03
  13   2  11   86.86   12.47
 -13  -2  -8  173.62   16.41
  13   2   8  177.93   16.09
  15 -13  -8  170.60   15.98
 -13  -2  -5  129.47   13.41
  15 -13  -5  120.99   14.05
  13   2   5  128.15   13.30
  13   2   2  142.36   13.04
 -13  -2  -2  150.98   13.63
  15 -13  -2  149.93   15.78
  15 -13   1   99.45   13.56
  15 -13   4   73.03   12.11
 -13  -2   4   85.69    8.86
 -13  -2   7   40.48    5.79
  15 -13   7   48.39   11.15
 -13  -2  10   14.44    3.09
  15 -13  10   15.44    8.37
  15 -13  13   -9.76    9.33
  15 -13  16   33.19    9.99
  15 -13  19    2.83    7.89
  15 -13  22    7.70    6.96
  15 -13  25   35.92   10.70
  15 -13  28   10.65    9.64
  15 -13  31  -22.32   10.83
   3 -15  33    5.72    5.67
  12   3  33    3.75    6.88
   3 -15  30    5.78    4.99
  12   3  30    5.98    7.61
   3 -15  27   -3.44    6.47
  12   3  27    9.12    8.60
   3 -15  24    5.29    6.07
  12   3  24   -4.08    7.30
   3 -15  21   89.67   13.87
  12   3  21   71.10   13.26
   3 -15  18    0.01    6.00
  12   3  18   -2.49    6.32
  15 -12 -15   29.41    7.05
   3 -15  15   24.81    8.58
  12   3  15   31.71    9.58
  15 -12 -12  133.43   13.54
  12   3  12  120.12   14.37
 -12  -3  -9   14.51    5.77
  12   3   9   10.39    6.69
  15 -12  -6    5.04    5.28
 -12  -3  -6   -2.06    5.16
  12   3   6   -6.75    6.98
 -12  -3  -3  208.33   16.29
  15 -12  -3  213.84   17.54
  15 -12   0  200.65   17.57
  15 -12   3  127.74   14.92
 -12  -3   3  146.08   11.92
 -12  -3   6   40.95    6.08
  15 -12   6   25.14    8.67
 -12  -3   9   49.86    5.89
  15 -12   9   47.64   10.24
 -12  -3  12   10.99    2.40
  15 -12  12   12.62    7.95
  15 -12  15   12.93    7.33
  15 -12  18   11.22    8.07
  15 -12  21    9.50    8.90
  15 -12  24    6.75    8.01
  15 -12  27    5.68    7.78
  15 -12  30   17.70    9.63
  15 -12  33   31.04   11.40
  11   4  34   -1.98    8.16
   4 -15  34   11.71    6.27
   4 -15  31    7.05    5.72
  11   4  31   -1.29    7.06
   4 -15  28   -6.31    6.21
  11   4  28    1.28    8.29
  11   4  25   22.45    9.29
   4 -15  25   34.41    9.65
   4 -15  22   20.22    8.79
  11   4  22    0.75    8.18
   4 -15  19    4.98    6.08
  11   4  19   -2.55    9.03
   4 -15  16   24.95    8.39
  11   4  16    8.46    7.61
  15 -11 -16   26.34    6.53
  15 -11 -13   26.12    6.72
  11   4  13   23.53    8.44
  15 -11 -10   12.57    5.71
 -11  -4 -10    8.62    5.21
  11   4  10   -4.12    7.73
 -11  -4  -7   32.74    7.69
  15 -11  -7   29.05    6.96
 -11  -4  -4   48.24    8.54
  15 -11  -4   55.41    9.45
  15 -11  -1    9.12    5.40
 -11  -4   2    0.84    3.78
  15 -11   2    0.49    5.70
 -11  -4   5   14.16    4.24
  15 -11   5   20.47    7.52
 -11  -4   8    2.97    3.03
  15 -11   8   -0.40    6.67
  15 -11  11   16.16    8.09
 -11  -4  11   12.49    2.97
  15 -11  14   64.80   12.02
 -11  -4  14   58.16    4.26
  15 -11  17  210.97   20.51
  15 -11  20   52.23   11.88
  15 -11  23  126.59   17.61
  15 -11  26  -15.49   11.04
  15 -11  29    0.22    8.17
  15 -11  32   -5.04    7.64
   5 -15  32   27.66    9.45
   5 -15  29   15.38    7.82
  10   5  29    0.22    6.58
  10   5  26  -11.55    9.96
   5 -15  26   -3.71    5.76
   5 -15  23    9.10    7.23
  10   5  23   -6.56    9.59
  15 -10 -20   30.23    6.06
   5 -15  20   29.23    9.18
  10   5  20   24.57    8.96
   5 -15  17  100.97   14.83
  15 -10 -17  110.73   10.85
  15 -10 -14   40.09    7.30
   5 -15  14   34.87    9.42
  15 -10 -11   17.68    5.58
  15 -10  -8  109.67   11.68
 -10  -5  -8  121.62   13.67
  15 -10  -5   93.78   11.11
 -10  -5  -5   93.16   11.58
 -10  -5  -2   27.57    6.53
  15 -10  -2   21.65    6.56
  15 -10   1   73.32   10.81
  15 -10   4   39.88    8.84
 -10  -5   4   57.79    7.54
  15 -10   7   79.72   11.77
 -10  -5   7   91.85    8.60
  15 -10  10   80.25   12.52
 -10  -5  10   78.01    7.35
  15 -10  13    0.27    6.60
 -10  -5  13    0.60    1.97
 -10  -5  16   31.43    3.18
 -10  -5  16   30.71    3.17
  15 -10  16   24.92    9.13
  15 -10  19   63.00   12.89
  15 -10  22  112.71   15.86
  15 -10  25   -2.52    8.22
  15 -10  28   -1.98    9.74
  15 -10  31    1.75    8.58
  15 -10  34   -3.00    7.47
   6 -15  33    1.88    5.15
   6 -15  30   -5.35    7.01
  15  -9 -27    0.51    2.29
   6 -15  27   -0.08    6.91
  15  -9 -24   48.80    6.26
  15  -9 -24   40.45    5.63
   6 -15  24   53.37   11.45
  15  -9 -21   29.01    5.50
   6 -15  21   33.72   10.00
   6 -15  18   11.23    7.55
  15  -9 -18   10.07    4.22
  15  -9 -15   23.59    5.47
   6 -15  15   25.17    8.76
  15  -9 -12   31.37    6.20
   6 -15  12   29.82    9.48
  15  -9  -9   24.18    6.07
  -9  -6  -9   22.02    6.86
  -9  -6  -6   15.51    6.16
  15  -9  -6    3.10    4.05
  -9  -6  -3    9.37    5.90
  15  -9  -3    5.33    4.57
  15  -9   0   17.82    6.36
  15  -9   3   -2.54    6.17
 -15   9  -6  108.37   13.18
  15  -9   6  109.87   13.16
  -9  -6   6  106.51    9.78
  -9  -6   9   16.49    4.50
  15  -9   9    6.51    5.21
 -15   9  -9   11.55    6.05
  -9  -6  12    3.51    3.18
  15  -9  12    3.65    6.59
  -9  -6  15    8.08    3.04
  15  -9  15    8.23    8.10
  -9  -6  18  114.77    6.51
  15  -9  18  123.68   16.59
  -9  -6  18  120.58    6.36
  15  -9  21   49.86   11.65
  15  -9  24   92.51   15.40
  15  -9  27   -7.03    9.41
  15  -9  30    7.06    8.12
  15  -9  33    1.67    7.04
   7 -15  34   -2.52    5.82
   7 -15  31   22.14    8.27
   7 -15  28    8.56    6.75
  15  -8 -25   15.03    3.15
   7 -15  25    9.75    6.65
   7 -15  22   75.97   13.32
  15  -8 -22   79.17    6.81
  15  -8 -22   67.03    6.20
  15  -8 -19    0.09    2.46
   7 -15  19    4.94    6.36
  15  -8 -16    9.45    3.61
   7 -15  16    0.09    7.21
  15  -8 -13    0.69    3.09
   7 -15  13    4.65    8.00
  15  -8 -10   51.80    7.22
  -8  -7 -10   74.20   11.50
   7 -15  10   58.92   11.22
  -8  -7  -7   52.06    9.70
  15  -8  -7   41.19    6.97
  -8  -7  -4   55.54    9.29
  15  -8  -4   40.05    7.37
  -8  -7  -1    8.32    4.99
  15  -8  -1    2.31    4.39
  15  -8   2   36.16    8.40
 -15   8  -2   29.75    7.06
  15  -8   5  119.72   13.40
  -8  -7   5  125.12   11.08
 -15   8  -5  120.06   13.23
  15  -8   8  294.72   20.89
  -8  -7   8  314.56   16.11
 -15   8  -8  288.56   21.17
  15  -8  11  106.76   13.78
  -8  -7  11  118.28    9.44
  -8  -7  14    0.10    2.89
  15  -8  14   15.55    8.59
  15  -8  17   30.53    8.90
  -8  -7  17   34.25    4.57
  -8  -7  17   32.68    4.82
  -8  -7  20  141.53    7.98
  15  -8  20  138.12   17.83
  -8  -7  20  150.22    8.61
  -8  -7  23   50.84    4.42
  15  -8  23   36.25   10.51
  -8  -7  23   44.28    3.97
  15  -8  26   -4.86    9.37
  -8  -7  26   11.32    1.64
  15  -8  29   35.90   10.78
  15  -8  32   31.97   11.64
   8 -15  32   11.79    8.27
   8 -15  29   -0.35    6.99
   8 -15  26   -1.71    6.17
  15  -7 -23   17.09    2.24
  15  -7 -23   18.11    2.34
   8 -15  23    8.38    7.60
   8 -15  20    6.08    7.41
  15  -7 -20    0.52    1.66
  15  -7 -20    0.30    1.74
  15  -7 -17    1.37    2.07
   8 -15  17    6.46    7.78
   8 -15  14   -2.99    6.97
  15  -7 -14   -2.45    2.87
  15  -7 -11   -0.20    2.94
   8 -15  11   -3.29    7.12
   8 -15   8   73.61   12.45
  15  -7  -8   67.92    8.21
  -7  -8  -8   76.13   10.96
  15  -7  -5   95.00    9.93
  -7  -8  -5  103.03   12.14
  15  -7  -2   12.72    5.41
  -7  -8  -2   13.72    5.86
 -15   7  -1   68.72    9.55
  15  -7   1   87.47   10.91
 -15   7  -4   -2.07    4.08
  15  -7   4    0.50    4.80
 -15   7  -7   58.73    9.99
  -7  -8   7   56.37    7.76
  15  -7   7   66.62   11.07
  -7  -8  10    3.72    3.69
  15  -7  10    6.10    6.30
 -15   7 -10    3.71    4.47
  15  -7  13    8.86    7.70
  15  -7  16   -0.97    7.58
  15  -7  19   -2.57    8.96
  -7  -8  19    8.73    3.80
  15  -7  22   52.78   12.93
  -7  -8  22   62.41    6.68
  15  -7  25   15.09    9.49
  -7  -8  25   19.29    3.79
  15  -7  28   31.27   10.23
  -7  -8  28   23.64    3.71
  15  -7  31   30.28   11.27
  15  -7  34   13.37   10.47
   9 -15  33    0.95    6.65
   9 -15  30   -2.92    6.92
   9 -15  27   -3.21    6.70
   9 -15  24   40.82   11.02
   9 -15  21   10.07    7.99
   9 -15  18    3.36    5.21
  15  -6 -18    0.80    1.33
  15  -6 -15    6.30    2.71
   9 -15  15    2.96    6.37
  15  -6 -12   83.98    7.32
   9 -15  12   83.14   13.48
   9 -15   9  132.04   16.31
  15  -6  -9  124.71    9.97
  -6  -9  -9  125.37   14.13
  15  -6  -6   47.78    7.11
  -6  -9  -6   49.41    9.37
  15  -6  -3   51.00    7.68
  -6  -9  -3   44.99    8.47
  15  -6   0    4.02    4.78
  -6  -9   0   -5.65    5.22
  -6  -9   3   14.91    4.77
 -15   6  -3   29.42    7.06
  15  -6   3   27.31    7.05
  15  -6   6   -5.76    7.84
 -15   6  -6    6.05    5.16
 -15   6  -9   70.05   10.97
  15  -6   9   45.90    9.75
  15  -6  12   11.78    7.41
  15  -6  15   -6.08    8.41
  15  -6  18   16.80    8.88
  -6  -9  18   42.26    6.97
  -6  -9  21    1.79    3.23
  15  -6  21   -4.58    8.19
  15  -6  24   11.65    8.98
  -6  -9  24    7.69    3.23
  15  -6  27   16.36   10.53
  -6  -9  27   11.86    3.66
  15  -6  30   21.82   11.34
  15  -6  33   26.35   11.51
  10 -15  34    4.60    6.25
  10 -15  31    9.04    7.15
  10 -15  28   54.51   12.25
  10 -15  25   67.98   13.61
  10 -15  22   54.02   11.75
  10 -15  19   12.02    8.26
  15  -5 -16    2.78    1.19
  10 -15  16   -1.84    5.99
  15  -5 -13    6.13    2.57
  10 -15  13    6.89    7.02
  15  -5 -10   -2.71    3.63
  10 -15  10    3.85    7.14
  15  -5  -7   58.28    7.15
  -5 -10  -7   67.79   10.56
  10 -15   7   62.24   11.56
  -5 -10  -4   -3.08    5.86
  15  -5  -4   -4.47    5.29
 -15   5   4    1.57    2.76
  15  -5  -1   -1.73    5.57
  -5 -10  -1   -0.92    4.45
  15  -5   2   49.79    8.44
 -15   5  -2   31.00    6.64
 -15   5  -5    1.73    3.54
  15  -5   5   -7.05    7.04
 -15   5  -8   30.53    7.98
  15  -5   8   21.20    7.23
 -15   5 -11   44.36    9.04
  15  -5  11   41.87   10.55
  15  -5  14   43.88   10.36
  -5 -10  17   22.17    6.41
  15  -5  17   33.20   10.58
  15  -5  20    6.81    7.71
  -5 -10  20    1.44    3.40
  -5 -10  23    3.25    3.46
  15  -5  23    2.62    8.18
  15  -5  26   85.99   15.82
  -5 -10  26   65.19    8.24
  15  -5  29   90.23   16.25
  -5 -10  29   62.76    7.95
  15  -5  32   44.40   13.36
  11 -15  32   -7.38    7.45
  11 -15  29   25.15    9.81
  11 -15  26    1.92    7.14
  11 -15  23   13.55    8.41
  11 -15  20   43.36   11.00
  11 -15  17    2.46    7.36
  11 -15  14   70.00   13.43
  15  -4 -14   55.21    3.65
  15  -4 -11   77.24    6.52
  11 -15  11   75.87   13.74
  15  -4  -8   26.14    5.01
  11 -15   8   27.51    9.19
  15  -4  -5   42.12    6.84
 -15   4   5   35.97    5.92
  -4 -11  -5   27.72    7.91
  11 -15   5   36.16   10.09
 -15   4   2    8.36    3.89
  15  -4  -2    9.66    4.65
  15  -4   1   19.73    6.36
 -15   4  -4   98.58   11.90
  15  -4   4   79.24   10.81
  15  -4   7   51.43    9.69
 -15   4  -7   56.96    9.64
  15  -4  10    0.18    6.72
 -15   4 -10   -4.46    5.98
  15  -4  13   21.92    9.54
  15  -4  16   41.36   10.69
  15  -4  19   18.82   10.41
  -4 -11  19   19.52    6.03
  15  -4  22   16.11    9.49
  -4 -11  22    4.69    4.00
  15  -4  25   43.33   13.35
  -4 -11  25   10.77    4.27
  15  -4  28   20.66    9.13
  -4 -11  28    8.47    4.05
  15  -4  31   37.53   13.05
  -4 -11  31   19.45    5.53
  15  -4  34   44.59   13.78
  12 -15  33   10.91    8.13
  12 -15  30    3.36    6.47
  12 -15  27    0.20    6.45
  12 -15  24   -1.19    6.86
  12 -15  21    2.01    6.96
  12 -15  18    2.38    6.52
  12 -15  15   27.82    9.08
  12 -15  12    1.24    6.78
  15  -3 -12    1.19    1.57
  15  -3  -9    3.23    3.13
  12 -15   9    5.75    7.33
  15  -3  -6    8.91    4.37
  12 -15   6    0.92    6.38
 -15   3   6    1.60    3.03
  15  -3  -3   40.66    7.32
 -15   3   3   36.57    6.40
  12 -15   3   37.86    9.69
  15  -3   0    5.28    5.77
  15  -3   3    3.24    5.83
 -15   3  -3    3.86    3.57
  15  -3   6   45.87    9.71
 -15   3  -6   47.72    8.89
  15  -3   9   24.34    8.28
 -15   3  -9   18.25    6.57
  15  -3  12    9.35    8.70
  15  -3  15   68.68   13.32
  15  -3  18   30.70   11.29
  -3 -12  18    0.07    3.91
  15  -3  21   39.54   12.41
  -3 -12  21   23.19    6.58
  15  -3  24   33.33   11.34
  -3 -12  24   15.36    5.88
  15  -3  27   74.56   15.07
  -3 -12  27   34.03    7.31
  15  -3  30   57.01   13.78
  -3 -12  30   51.91    8.81
  15  -3  33   64.00   14.93
  13 -15  31    9.42    8.44
  13 -15  28    6.00    6.07
  13 -15  25   -2.31    6.65
  13 -15  22    7.73    7.98
  13 -15  19   -4.16    8.08
  13 -15  16    1.39    8.15
  13 -15  13   11.22    7.88
  13 -15  10  114.83   15.98
  15  -2 -10  113.44    7.27
 -15   2   7    4.50    2.84
  15  -2  -7    5.70    3.30
  13 -15   7   12.22    8.07
 -15   2   4    6.52    3.46
  13 -15   4    6.54    6.78
  15  -2  -4    1.50    3.82
  15  -2  -1   10.24    5.48
  13 -15   1   -2.39    7.11
  13 -15  -2   28.50    9.25
  15  -2   2   33.27    7.90
 -15   2  -2   19.20    5.54
  15  -2   5   95.67   12.10
 -15   2  -5   73.23   10.32
  15  -2   8   38.58    9.60
 -15   2  -8   29.20    7.50
  15  -2  11    8.04    7.68
  15  -2  14   29.26   10.39
  15  -2  17   47.98   11.01
  -2 -13  17   16.84    6.85
  15  -2  20   32.99   10.32
  -2 -13  20   23.02    7.26
  15  -2  23    4.19    7.39
  -2 -13  23    7.93    4.91
  15  -2  26   33.86   12.08
  -2 -13  26   27.86    7.06
  15  -2  29   29.83   11.91
  -2 -13  29   11.65    5.33
  -2 -13  32    0.36    3.36
  15  -2  32   -5.45    6.30
  14 -15  32    3.48    6.39
  14 -15  29    9.69    8.44
  14 -15  26    3.18    7.29
  14 -15  23   -3.88    8.19
  14 -15  20   -0.90    7.16
  14 -15  17   -0.93    6.97
  14 -15  14   -7.06    8.74
  14 -15  11   56.91   12.42
  14 -15   8   10.55    8.22
 -15   1   8    0.53    2.19
 -15   1   5    8.77    3.60
  15  -1  -5    7.12    4.07
  14 -15   5   11.53    7.03
  14 -15   2   -1.66    5.61
  15  -1  -2    1.72    4.14
  15  -1   1  125.50   12.06
 -15   1  -1  127.66   12.58
  14 -15  -1  134.52   16.08
 -15   1  -4   31.66    7.08
  14 -15  -4   29.93    9.00
  15  -1   4   36.59    8.50
  15  -1   7    6.30    6.96
 -15   1  -7   -4.46    5.08
  15  -1  10   17.12    8.97
  15  -1  13    8.82    8.64
  15  -1  16   17.01    8.91
  15  -1  19   83.23   14.63
  -1 -14  19   65.26   11.43
  -1 -14  22   38.05    8.81
  15  -1  22   35.29   11.03
  -1 -14  25    6.28    5.08
  15  -1  25   14.29    8.91
  -1 -14  28    2.53    4.14
  15  -1  28   10.62    8.53
  -1 -14  31   -0.45    4.21
  15  -1  31   13.53   10.03
  15 -15  30   -3.11    7.22
  15 -15  27    8.45    7.27
  15 -15  24    9.60    8.90
  15 -15  21    8.77    7.08
  15 -15  18   -5.96    9.07
  15 -15  15   10.79    7.20
  15 -15  12   19.91    9.00
  15 -15   9   90.02   14.26
 -15   0   9   97.88    7.95
  15 -15   6   10.17    7.20
 -15   0   6   13.99    4.08
  15   0  -3   16.57    5.12
  15 -15   3   26.53    9.34
  15 -15   0   26.82    8.75
 -15   0   0   21.86    5.79
  15   0   0   29.32    6.63
 -15   0  -3   15.61    5.57
  15   0   3   19.97    6.78
  15 -15  -3   20.43    8.00
 -15   0  -6    3.26    3.95
  15 -15  -6   -3.29    7.10
  15   0   6    4.53    6.29
  15   0   9    4.32    6.54
  15   0  12    8.09    7.46
  15   0  15    6.90    7.44
   0 -15  18    5.87    6.02
  15   0  18   23.79    9.27
   0 -15  21   -1.24    5.45
  15   0  21    6.72    9.02
   0 -15  24   13.26    6.57
  15   0  24    3.30    7.25
  15   0  27    8.47    7.38
   0 -15  27   -2.06    4.36
   0 -15  30    6.16    5.44
  15   0  30    4.98    6.26
   1 -16  29   10.49    6.57
  15   1  29    6.43    8.23
   1 -16  26   -2.11    4.72
  15   1  26   -1.13    7.37
   1 -16  23    0.15    5.43
  15   1  23  -11.07    8.29
   1 -16  20    8.29    6.25
  15   1  20   14.33    8.31
   1 -16  17   -3.85    6.17
  15   1  17   -3.59    7.66
  15   1  14    4.85    6.11
  16 -15 -11    1.12    5.25
  15   1  11    7.13    7.54
  16 -15  -8   38.85    9.54
  15   1   8   26.92    8.23
 -15  -1  -5   66.89   10.34
  16 -15  -5   73.12   12.39
  15   1   5   63.70   10.49
  16 -15  -2   85.40   13.64
 -15  -1  -2  104.48   11.93
  15   1   2   90.88   11.52
  15   1  -1   -6.90    5.43
  16 -15   1   10.34    7.78
 -15  -1   4   16.80    4.68
  16 -15   4   25.18    8.76
  16 -15   7   51.41   12.21
 -15  -1   7   36.78    5.67
 -15  -1  10    3.38    1.95
  16 -15  10   -9.57    7.91
  16 -15  13    2.17    7.23
  16 -15  16   -3.91    8.43
  16 -15  19   19.56    8.91
  16 -15  22   -0.74    7.02
  16 -15  25    2.07    7.49
  16 -15  28    7.94    8.29
   2 -16  30   -3.14    4.67
  14   2  30   -2.18    7.52
  14   2  27    5.76    6.49
   2 -16  27    4.07    4.48
   2 -16  24   14.16    6.63
  14   2  24   11.97    8.38
   2 -16  21    3.11    5.26
  14   2  21    5.80    7.99
   2 -16  18   13.03    6.97
  14   2  18   12.05    7.58
  14   2  15  -11.77    9.02
  16 -14 -12   53.66   10.16
  14   2  12   55.00   10.92
  14   2   9  390.97   24.22
  16 -14  -9  381.05   24.83
 -14  -2  -6  481.70   26.68
  14   2   6  469.56   25.50
  16 -14  -6  472.01   27.55
 -14  -2  -3   63.48    9.69
  14   2   3   73.58   10.24
  16 -14  -3   68.03   11.84
  16 -14   0    7.43    6.77
 -14  -2   0    5.32    3.78
  16 -14   3    0.84    6.26
  16 -14   6   10.60    7.63
 -14  -2   6   12.59    4.13
 -14  -2   9    0.73    2.42
  16 -14   9   -5.69    7.70
 -14  -2  12   81.80    5.39
  16 -14  12   76.59   14.05
  16 -14  15  200.45   21.13
  16 -14  18  127.28   17.56
  16 -14  21    9.56    7.97
  16 -14  24    2.60    7.16
  16 -14  27    8.49    8.23
  16 -14  30    0.54    6.28
   3 -16  31   -2.55    5.18
  13   3  31  -13.97    8.98
   3 -16  28   -2.02    5.95
  13   3  28    3.63    8.35
   3 -16  25   53.66   11.59
  13   3  25   60.77   12.78
   3 -16  22   33.56    9.85
  13   3  22   28.23    9.71
   3 -16  19    3.08    5.77
  13   3  19    0.03    7.30
   3 -16  16   13.86    7.80
  13   3  16    3.93    6.34
  16 -13 -16    2.65    4.34
  16 -13 -13   40.12    8.47
  13   3  13   22.15    8.71
  13   3  10   11.59    6.86
  16 -13 -10   22.59    6.76
  16 -13  -7   -4.43    4.94
 -13  -3  -7  -12.50    6.87
  13   3   7   -5.58    6.89
 -13  -3  -4   -3.92    5.82
  16 -13  -4    1.03    5.49
  16 -13  -1   -1.51    5.29
 -13  -3  -1  -11.42    6.27
  16 -13   2   32.83    9.25
 -13  -3   5   29.38    6.18
  16 -13   5   35.18   10.10
 -13  -3   8  126.38    9.61
  16 -13   8  129.33   16.35
 -13  -3  11  213.91   10.42
  16 -13  11  218.05   20.96
  16 -13  14  201.65   20.62
  16 -13  17   28.25   10.69
  16 -13  20    1.60    8.12
  16 -13  23   19.95    8.60
  16 -13  26   39.80   11.76
  16 -13  29    9.13    7.96
   4 -16  32    0.49    4.95
  12   4  32    0.19    7.87
   4 -16  29   -1.30    6.18
  12   4  29    7.85    7.55
  12   4  26  -14.91    9.93
   4 -16  26    6.15    7.26
   4 -16  23    2.40    5.95
  12   4  23    0.97    8.15
  16 -12 -20  101.18   11.66
   4 -16  20  104.77   14.86
  12   4  20   86.89   14.77
  16 -12 -17    0.35    4.10
  12   4  17   -6.01    8.98
   4 -16  17   -3.97    6.09
   4 -16  14   62.06   12.02
  12   4  14   50.24   10.53
  16 -12 -14   55.95    8.82
  16 -12 -11   11.90    5.69
  12   4  11   -0.93    7.38
 -12  -4  -8   -1.59    4.77
  16 -12  -8   -2.37    5.01
 -12  -4  -5   -2.16    4.49
  16 -12  -5   -0.39    4.62
  16 -12  -2   28.10    8.09
 -12  -4  -2   22.62    6.48
  16 -12   1   49.16   10.16
 -12  -4   4   -5.55    4.56
  16 -12   4    0.18    6.73
  16 -12   7    5.95    5.42
 -12  -4   7    2.54    3.00
  16 -12  10    3.97    6.38
 -12  -4  10    4.01    2.61
  16 -12  13   36.68   10.06
 -12  -4  13   36.88    3.99
  16 -12  16  108.11   15.93
  16 -12  19   45.09   11.82
  16 -12  22   29.68   11.06
  16 -12  25   61.55   14.00
  16 -12  28   31.66   11.08
  16 -12  31  -15.05    9.09
   5 -16  30   33.71    9.90
   5 -16  27   -2.68    6.82
   5 -16  24   19.87    8.21
  11   5  24   22.69    8.91
  16 -11 -24   19.09    5.31
  16 -11 -21    0.41    3.42
   5 -16  21   -3.12    6.80
   5 -16  18    2.38    6.52
  16 -11 -18   -0.36    3.42
  16 -11 -15    9.75    5.04
   5 -16  15    7.81    6.88
  16 -11 -12    5.68    4.46
  16 -11  -9  123.71   12.55
  16 -11  -6  102.49   12.21
 -11  -5  -6   91.66   12.25
  16 -11  -3    2.75    4.96
 -11  -5  -3   -0.01    4.30
 -11  -5   0   11.19    5.14
  16 -11   0    3.71    6.14
  16 -11   3   42.05    9.06
 -11  -5   6   37.99    6.48
  16 -11   6   41.68    9.68
  16 -11   9   55.33   11.54
 -11  -5   9   42.93    6.16
  16 -11  12   16.44    8.83
 -11  -5  12   16.80    3.67
  16 -11  15    4.88    7.99
 -11  -5  15   -1.30    1.50
  16 -11  18    5.28    7.64
  16 -11  21    4.07    6.94
  16 -11  24   -8.19    8.03
  16 -11  27   13.61    8.55
  16 -11  30    5.49    8.54
   6 -16  31   35.03    9.81
   6 -16  28   35.27   10.30
  16 -10 -25   25.27    5.00
   6 -16  25   38.30   10.06
   6 -16  22   71.72   12.86
  16 -10 -22   71.26    8.22
   6 -16  19  141.30   17.87
  16 -10 -19  145.49   11.98
   6 -16  16   27.13    9.23
  16 -10 -16   26.62    6.06
   6 -16  13   46.98   11.02
  16 -10 -13   31.66    6.86
  16 -10 -10   96.47   10.85
 -10  -6  -7   54.16   10.02
  16 -10  -7   52.26    8.38
 -10  -6  -4   21.40    6.92
  16 -10  -4    6.97    4.70
 -10  -6  -1   20.92    6.58
  16 -10  -1    7.28    5.41
  16 -10   2  139.31   14.78
 -10  -6   5   28.00    6.47
  16 -10   5   19.34    7.63
  16 -10   8   21.42    8.03
 -10  -6   8   26.45    5.82
  16 -10  11   19.98    7.81
 -10  -6  11   24.70    5.36
 -10  -6  14    4.35    2.74
  16 -10  14    3.00    7.01
 -10  -6  17   14.86    2.77
 -10  -6  17   17.08    2.86
  16 -10  17    9.49    8.25
  16 -10  20    8.42    7.04
  16 -10  23    6.45    7.11
  16 -10  26    6.59    8.66
  16 -10  29   21.77    9.77
  16 -10  32   -6.74    8.14
   7 -16  32  -10.01    7.39
   7 -16  29   -0.39    5.80
   7 -16  26    0.83    5.28
   7 -16  23    8.59    7.42
  16  -9 -23    6.33    2.91
  16  -9 -20    3.97    3.00
   7 -16  20    0.32    5.40
   7 -16  17   -2.87    6.32
  16  -9 -17    4.70    3.62
   7 -16  14   37.15    9.88
  16  -9 -14   37.97    6.34
   7 -16  11  166.19   18.62
  16  -9 -11  137.14   11.81
  -9  -7  -8   77.84   11.52
  16  -9  -8   79.41    9.67
  16  -9  -5   92.22   10.71
  -9  -7  -5  115.50   13.26
  16  -9  -2  156.53   14.15
  -9  -7  -2  166.56   14.59
  16  -9   1  527.47   26.13
  -9  -7   1  496.86   23.53
  16  -9   4  199.14   17.32
  16  -9   7    4.05    6.39
 -16   9  -7    2.18    3.60
  -9  -7   7    0.30    3.94
  16  -9  10   31.91    8.98
  -9  -7  10   33.34    5.87
  16  -9  13   33.75   10.29
  -9  -7  13   26.37    4.98
  16  -9  16    2.14    6.00
  -9  -7  16    6.80    3.17
  -9  -7  19   -0.86    1.59
  -9  -7  19    2.12    2.02
  -9  -7  22    3.57    1.28
  -9  -7  22    5.26    1.45
  16  -9  25   -6.60    9.21
  16  -9  28    1.05    6.53
  16  -9  31    5.92    9.29
   8 -16  33  -10.82    6.93
   8 -16  30   -5.17    6.85
   8 -16  27   -1.61    5.66
  16  -8 -24    0.75    1.19
   8 -16  24   -0.09    6.34
   8 -16  21   23.47    9.31
  16  -8 -21   17.37    3.29
  16  -8 -21   17.64    3.23
  16  -8 -18    9.26    3.19
   8 -16  18   12.39    8.66
   8 -16  15    5.29    7.83
  16  -8 -15    7.34    3.41
   8 -16  12   32.29   10.53
  16  -8 -12   25.32    5.27
   8 -16   9  127.89   17.08
  16  -8  -9  150.97   11.94
  16  -8  -6   88.31    9.89
  -8  -8  -6   89.47   11.96
  16  -8  -3   91.74   10.63
  -8  -8  -3   95.42   11.89
  16  -8   0  545.20   25.64
  -8  -8   0  564.19   26.14
 -16   8  -3  527.26   27.48
  16  -8   3  429.89   23.94
  16  -8   6  151.99   15.43
 -16   8  -6  171.21   16.34
  16  -8   9    5.43    6.58
  -8  -8   9    3.07    3.20
  16  -8  12    5.95    7.07
  -8  -8  12    1.70    3.09
  16  -8  15   -5.95    9.87
  -8  -8  15    0.17    2.86
  16  -8  18   -0.48    7.00
  -8  -8  18    4.67    3.19
  -8  -8  18    1.94    2.55
  16  -8  21    3.77    8.79
  -8  -8  21   15.78    3.23
  -8  -8  21   18.36    3.81
  -8  -8  24    0.80    1.53
  16  -8  24    0.28    8.54
  16  -8  27   -4.36    7.61
  16  -8  30   -4.24    7.78
  16  -8  33   27.45   11.65
   9 -16  31   -0.48    5.93
   9 -16  28  -13.44    8.50
   9 -16  25   -2.38    7.49
   9 -16  22    1.74    6.50
   9 -16  19    1.62    6.05
  16  -7 -19    1.99    1.81
   9 -16  16    5.81    8.05
  16  -7 -16    0.92    2.28
   9 -16  13    2.78    7.27
  16  -7 -13    5.87    3.18
   9 -16  10   -1.91    7.27
  16  -7 -10    4.77    3.53
  16  -7  -7   95.28    9.67
  -7  -9  -7   99.08   12.73
  16  -7  -4   65.71    8.84
  -7  -9  -4   88.81   11.52
  16  -7  -1   10.87    5.79
  -7  -9  -1   13.28    6.02
  16  -7   2  182.64   15.58
  -7  -9   2  168.81   14.33
 -16   7  -2  180.48   15.94
  16  -7   5  188.45   16.43
 -16   7  -5  191.65   16.80
  16  -7   8   -6.13    7.21
 -16   7  -8    4.70    5.28
  16  -7  11  -11.06    8.10
  16  -7  14   17.74    7.98
  16  -7  17   39.52   10.85
  -7  -9  20   51.76    7.16
  16  -7  20   30.18    9.99
  16  -7  23   28.22    9.81
  -7  -9  23   31.60    5.05
  -7  -9  26   21.43    4.16
  16  -7  26   22.06    9.81
  16  -7  29    8.48    7.83
  16  -7  32    3.88    8.54
  10 -16  32    9.41    7.81
  10 -16  29    1.99    6.70
  10 -16  26   10.86    7.20
  10 -16  23   28.64    9.86
  10 -16  20   37.46   11.07
  16  -6 -17   15.04    2.41
  10 -16  17   10.92    7.06
  16  -6 -14    0.56    2.44
  10 -16  14   12.09    8.26
  10 -16  11    2.09    8.26
  16  -6 -11   -4.67    4.34
  16  -6  -8   73.59    8.03
  10 -16   8   75.53   13.00
  16  -6  -5   19.19    5.27
  -6 -10  -5   29.21    7.70
  16  -6  -2   11.12    4.78
  -6 -10  -2   11.59    5.28
  16  -6   1   19.68    5.99
 -16   6  -1   26.49    6.61
  -6 -10   1   30.31    7.07
  16  -6   4    2.42    6.21
  -6 -10   4    2.95    4.16
 -16   6  -4   10.11    5.28
 -16   6  -7   95.91   12.66
  16  -6   7   72.97   11.49
  16  -6  10   14.10    7.09
  16  -6  13   65.54   12.18
  16  -6  16  157.90   17.71
  16  -6  19   34.94   10.64
  -6 -10  19   43.09    7.43
  -6 -10  22   27.02    5.60
  16  -6  22   29.68   10.90
  16  -6  25   43.66   12.60
  -6 -10  25   51.54    7.10
  16  -6  28   60.79   14.71
  16  -6  31   28.63   11.85
  11 -16  30    2.86    5.78
  11 -16  27    2.77    6.14
  11 -16  24   61.87   13.29
  11 -16  21   43.64   11.91
  11 -16  18    9.36    8.08
  16  -5 -15    3.38    1.66
  11 -16  15    1.38    6.61
  11 -16  12  136.11   17.67
  16  -5 -12  140.60    8.71
  11 -16   9   64.31   12.04
  16  -5  -9   75.93    7.65
  16  -5  -6  164.01   12.28
  11 -16   6  184.68   19.54
  16  -5  -3   46.29    7.86
  -5 -11  -3   34.46    7.77
  16  -5   0   59.40    9.30
  -5 -11   0   60.98    9.75
 -16   5  -3   73.00   10.64
  16  -5   3   72.28   10.60
 -16   5  -6   15.09    5.96
  16  -5   6    4.53    5.86
 -16   5  -9   32.58    8.16
  16  -5   9   22.58    7.64
  16  -5  12   67.19   11.84
  16  -5  15    7.61    8.62
  -5 -11  18   -1.77    4.02
  16  -5  18    6.84    7.57
  16  -5  21   62.75   13.73
  -5 -11  21   49.04    8.09
  16  -5  24   37.84   10.94
  -5 -11  24   25.60    6.08
  16  -5  27    9.91    9.80
  -5 -11  27   -2.21    3.54
  16  -5  30   16.19   10.12
  12 -16  31    8.10    8.52
  12 -16  28   -3.51    7.35
  12 -16  25   -1.17    6.62
  12 -16  22   46.20   12.01
  12 -16  19   19.52    9.37
  12 -16  16    7.29    8.36
  12 -16  13   10.67    7.80
  16  -4 -13   12.75    2.53
  12 -16  10   -2.40    7.25
  16  -4 -10    5.73    3.50
  16  -4  -7   19.03    5.51
  12 -16   7   10.60    7.68
  16  -4  -4    3.28    4.85
 -16   4   4    2.40    3.17
  12 -16   4   -1.22    7.35
  16  -4  -1    2.09    4.88
  16  -4   2   19.33    7.32
 -16   4  -2   17.51    5.90
 -16   4  -5   37.63    7.57
  16  -4   5   43.14    9.20
  16  -4   8   33.65    9.36
 -16   4  -8   41.40    8.68
  16  -4  11   25.68    9.53
  16  -4  14    9.77    7.69
  16  -4  17    7.97    8.33
  16  -4  20   14.12    9.73
  -4 -12  20    3.86    4.59
  16  -4  23   17.19   10.54
  -4 -12  23    7.74    4.50
  16  -4  26   30.45   11.77
  -4 -12  26   18.20    5.45
  16  -4  29   56.89   13.45
  -4 -12  29   54.12    8.59
  16  -4  32   48.97   13.99
  13 -16  29    4.90    7.51
  13 -16  26    9.39    8.56
  13 -16  23   36.60   10.87
  13 -16  20   30.95   10.10
  13 -16  17    5.16    6.28
  13 -16  14    1.54    5.40
  13 -16  11    4.61    6.20
  16  -3 -11    1.18    2.15
  13 -16   8    2.20    5.78
  16  -3  -8    1.45    3.45
  16  -3  -5    4.95    4.43
 -16   3   5    7.00    4.08
  13 -16   5   -3.78    6.54
  16  -3  -2   55.71    9.22
  13 -16   2   46.65   10.88
  16  -3   1   16.17    6.54
 -16   3  -1    5.39    4.57
  16  -3   4   27.54    8.11
 -16   3  -4   15.23    5.37
  16  -3   7   98.13   13.20
 -16   3  -7   81.67   11.74
  16  -3  10   18.93    9.09
  16  -3  13    5.18    7.28
  16  -3  16   37.56   11.80
  16  -3  19   21.29   10.29
  -3 -13  19    0.45    4.72
  16  -3  22   33.18   10.96
  -3 -13  22    5.30    4.27
  16  -3  25   10.12    8.05
  -3 -13  25    6.84    4.63
  16  -3  28   13.35   10.43
  -3 -13  28    9.68    4.85
  16  -3  31   18.06    9.95
  14 -16  30   -3.12    5.62
  14 -16  27   -5.16    8.15
  14 -16  24    2.16    6.62
  14 -16  21   26.61   10.35
  14 -16  18   -7.20    9.22
  14 -16  15    5.09    8.53
  14 -16  12    7.15    7.81
  14 -16   9    3.75    5.89
  16  -2  -9    3.12    2.76
  14 -16   6   56.00   12.43
 -16   2   6   62.48    7.48
  16  -2  -6   58.81    7.44
  14 -16   3   65.61   12.63
  16  -2  -3   49.94    8.06
  14 -16   0  108.82   15.75
  16  -2   0  110.36   11.55
 -16   2   0  113.97   11.85
  14 -16  -3   83.20   13.41
  16  -2   3  101.32   11.95
 -16   2  -3   84.44   11.02
  16  -2   6  101.04   13.03
 -16   2  -6   92.94   12.26
  16  -2   9   28.67    8.62
  16  -2  12   13.35    8.57
  16  -2  15   49.44   11.74
  16  -2  18   35.59   10.77
  -2 -14  18   32.94    8.81
  16  -2  21   53.88   12.48
  -2 -14  21   22.87    7.66
  16  -2  24   12.82    8.31
  -2 -14  24   16.01    6.63
  16  -2  27   27.82   10.23
  -2 -14  27   12.82    5.91
  -2 -14  30    1.31    3.66
  16  -2  30    1.04    8.21
  15 -16  28   -1.47    6.74
  15 -16  25    1.61    7.16
  15 -16  22    2.92    7.11
  15 -16  19    7.22    7.88
  15 -16  16   -5.54    8.41
  15 -16  13   -0.49    7.72
  15 -16  10   23.92    9.20
 -16   1   7  105.22    9.41
  15 -16   7  100.14   15.30
 -16   1   4  188.97   13.66
  15 -16   4  194.70   20.16
  16  -1  -4  190.19   13.27
  16  -1  -1  115.79   11.71
  15 -16   1  114.10   15.61
  15 -16  -2   -0.30    6.62
 -16   1  -2   -2.59    4.03
  16  -1   2    4.65    5.47
 -16   1  -5   35.62    7.95
  15 -16  -5   31.69    9.47
  16  -1   5   42.02    9.61
  16  -1   8  114.66   13.87
  16  -1  11   47.39   10.75
  16  -1  14   20.46    9.10
  -1 -15  17   68.54   11.78
  16  -1  17   71.71   13.42
  -1 -15  20   92.99   13.40
  16  -1  20  100.27   15.61
  -1 -15  23   40.91    9.24
  16  -1  23   50.64   12.96
  -1 -15  26    1.71    4.36
  16  -1  26    0.04    7.81
  -1 -15  29    2.47    4.37
  16  -1  29    5.87    8.49
  16 -16  26    0.84    7.29
  16 -16  23   10.44    8.49
  16 -16  20   46.93   12.16
  16 -16  17   38.45   11.38
  16 -16  14   19.76    9.44
  16 -16  11    2.28    7.17
  16 -16   8   -4.10    7.65
 -16   0   8   -0.02    2.45
  16 -16   5   20.79    8.53
 -16   0   5   21.70    5.45
  16   0  -2   -2.38    5.18
  16 -16   2   -0.08    7.60
  16 -16  -1   -4.96    6.70
 -16   0  -1    2.19    3.34
  16   0   1    5.27    4.58
 -16   0  -4   15.77    5.57
  16   0   4   18.63    6.48
  16 -16  -4   18.27    7.82
  16   0   7   52.15   10.11
  16 -16  -7   49.85   11.32
  16 -16 -10    8.22    6.83
  16   0  10   12.96    7.09
  16   0  13    6.31    7.74
  16   0  16   61.00   12.65
   0 -16  19   64.53   12.29
  16   0  19   56.14   12.96
   0 -16  22   26.95    8.31
  16   0  22   28.72   10.24
   0 -16  25   11.68    6.36
  16   0  25   16.17    9.92
   0 -16  28   17.38    6.84
  16   0  28   29.28   11.67
   1 -17  27    4.87    5.88
  16   1  27    5.07    7.13
   1 -17  24    1.96    5.36
  16   1  24    8.67    8.94
   1 -17  21   45.77   11.08
  16   1  21   43.27   11.38
   1 -17  18   66.80   12.91
  16   1  18   73.41   13.23
  16   1  15    4.80    7.64
  17 -16 -12   -4.51    5.47
  16   1  12    2.63    5.96
  17 -16  -9    7.37    6.67
  16   1   9   -2.37    6.23
  17 -16  -6    1.05    6.03
  16   1   6   -3.36    6.13
  17 -16  -3   41.01   10.22
 -16  -1  -3   39.93    8.25
  16   1   3   38.58    8.21
 -16  -1   0    1.91    3.41
  17 -16   0    6.72    7.59
  17 -16   3   21.54    8.64
  17 -16   6   28.88    9.70
 -16  -1   6   19.99    4.86
 -16  -1   9   16.77    3.85
  17 -16   9   12.70    7.59
  17 -16  12   -5.87    8.95
  17 -16  15   -2.60    8.55
  17 -16  18    6.41    6.37
  17 -16  21    2.71    5.78
  17 -16  24    0.15    6.77
  17 -16  27   26.06   11.86
  15   2  28    8.12    7.48
   2 -17  28    8.99    5.77
   2 -17  25   -1.25    5.17
  15   2  25    5.06    8.06
  15   2  22   17.86    9.31
   2 -17  22   31.28    9.30
   2 -17  19   55.23   11.71
  15   2  19   56.74   12.72
  17 -15 -16   -1.54    4.78
   2 -17  16   -5.21    7.67
  15   2  16   -7.66    8.72
  17 -15 -13    2.22    5.68
  15   2  13    2.61    6.57
  15   2  10   10.37    6.64
  17 -15 -10   14.71    6.98
  17 -15  -7    7.57    5.76
  15   2   7    3.31    5.84
  15   2   4   -0.88    6.19
 -15  -2  -4    4.55    4.49
  17 -15  -4   -0.08    5.68
  17 -15  -1   19.60    8.41
 -15  -2  -1   16.58    5.57
 -15  -2   2   28.23    6.34
  17 -15   2   20.98    8.35
  17 -15   5  130.22   17.00
 -15  -2   5  123.82   11.14
 -15  -2   8   60.35    7.23
  17 -15   8   47.13   11.52
 -15  -2  11  123.41    7.91
  17 -15  11  139.81   17.98
  17 -15  14  142.72   18.78
  17 -15  17  104.71   16.33
  17 -15  20   15.29    7.83
  17 -15  23   -3.74    7.12
  17 -15  26    5.83    8.36
   3 -17  29   10.39    7.22
  14   3  29   15.93   10.19
   3 -17  26    6.86    6.38
  14   3  26    0.15    6.13
   3 -17  23    2.02    5.99
  14   3  23   -5.55    7.46
   3 -17  20   18.49    8.11
  14   3  20   19.12    8.54
  17 -14 -20   32.38    8.10
   3 -17  17  -11.89    7.55
  14   3  17    0.56    6.07
  17 -14 -17   -0.67    4.39
  17 -14 -14    4.23    5.52
  14   3  14   -1.75    7.86
  17 -14 -11    0.33    4.72
  14   3  11  -12.86    9.20
  17 -14  -8   19.68    7.55
  14   3   8   12.79    6.78
 -14  -3  -5   55.98    9.68
  17 -14  -5   55.37   10.68
  17 -14  -2    0.47    5.90
 -14  -3  -2    9.44    5.45
  17 -14   1   49.33   10.62
 -14  -3   1   38.52    7.46
  17 -14   4   -0.04    5.54
 -14  -3   7    2.25    3.09
  17 -14   7   -1.42    5.71
  17 -14  10   55.26   12.43
 -14  -3  10   42.32    5.42
 -14  -3  13   43.86    3.75
  17 -14  13   40.44   11.01
  17 -14  16   -0.69    8.37
  17 -14  19    8.01    7.44
  17 -14  22    2.99    7.12
  17 -14  25   22.10   10.62
  17 -14  28    7.33    7.99
   4 -17  30    2.42    6.15
  13   4  30    3.01    6.72
  13   4  27   -7.43    9.72
   4 -17  27   -4.66    6.08
   4 -17  24   53.67   11.55
  13   4  24   51.77   12.23
  17 -13 -24   61.22    9.38
  13   4  21    0.38    6.98
  17 -13 -21    2.81    4.32
   4 -17  21   -1.20    5.94
  17 -13 -18    3.71    4.34
   4 -17  18    1.17    6.54
  13   4  18  -12.59    9.26
  17 -13 -15   41.88    8.53
   4 -17  15   27.92    9.30
  13   4  15   25.95    9.11
  17 -13 -12   12.95    6.04
  17 -13  -9    1.77    5.25
  17 -13  -6    1.94    5.05
 -13  -4  -6   -5.04    5.56
  17 -13  -3    0.84    5.58
 -13  -4  -3   -6.84    5.71
  17 -13   0   12.90    6.76
 -13  -4   0    3.97    4.08
  17 -13   3   -2.67    6.50
  17 -13   6    8.77    6.56
 -13  -4   6    6.52    3.61
  17 -13   9   11.17    6.80
 -13  -4   9   12.89    3.73
 -13  -4  12    1.07    2.07
  17 -13  12   -0.39    5.67
  17 -13  15   22.57    8.91
  17 -13  18   45.26   11.34
  17 -13  21    9.96    8.05
  17 -13  24   15.82    8.81
  17 -13  27   -8.81    8.63
  17 -13  30  -40.55   13.07
   5 -17  28   17.20    7.79
   5 -17  25   54.08   11.94
  17 -12 -25   44.47    7.58
   5 -17  22   14.48    8.41
  17 -12 -22   13.24    4.82
   5 -17  19    0.78    5.55
  17 -12 -19    8.79    4.74
  17 -12 -16   -1.28    3.79
   5 -17  16    1.83    6.80
   5 -17  13    7.48    7.62
  17 -12 -13   -0.66    4.88
  17 -12 -10    1.52    4.65
  17 -12  -7    8.52    5.19
  17 -12  -4   36.58    8.64
 -12  -5  -4   26.93    7.56
 -12  -5  -1    1.11    3.94
  17 -12  -1   -9.16    7.64
 -12  -5   2   71.58    9.47
  17 -12   2   75.61   11.94
  17 -12   5   65.13   11.80
  17 -12   8    0.21    6.38
 -12  -5   8   -2.25    4.02
  17 -12  11   37.24   10.00
 -12  -5  11   33.67    4.99
  17 -12  14    8.72    7.13
 -12  -5  14   13.54    2.77
  17 -12  17   -0.89    6.80
  17 -12  20    3.79    7.59
  17 -12  23    9.30    8.78
  17 -12  26  -12.51    8.23
  17 -12  29   10.29    7.23
   6 -17  29   -1.17    6.16
   6 -17  26   39.17   10.40
   6 -17  23  169.13   19.41
  17 -11 -23  163.67   12.78
  17 -11 -20   61.69    8.33
   6 -17  20   60.26   12.56
   6 -17  17   24.43    8.41
  17 -11 -17   30.69    6.59
  17 -11 -14    1.75    4.35
   6 -17  14   -0.36    5.97
  17 -11 -11   46.65    8.29
  17 -11  -8  281.07   19.22
  17 -11  -5   75.55   10.70
 -11  -6  -5   80.34   11.49
 -11  -6  -2   14.03    6.18
  17 -11  -2   -0.39    5.90
 -11  -6   1   30.70    7.24
  17 -11   1   25.58    7.54
  17 -11   4   91.31   12.94
  17 -11   7   34.97    9.40
 -11  -6   7   51.20    7.57
  17 -11  10   -0.89    6.72
 -11  -6  10    4.44    3.57
 -11  -6  13    2.95    2.53
  17 -11  13    3.80    5.69
 -11  -6  16   56.27    4.96
  17 -11  16   58.64   12.56
  17 -11  19   43.93   12.14
  17 -11  22   -3.40    8.29
  17 -11  25  -17.79   11.10
  17 -11  28    0.02    8.22
  17 -11  31   -1.88    6.55
   7 -17  30   17.46    7.64
   7 -17  27   13.60    7.47
   7 -17  24   16.83    8.70
  17 -10 -24   16.51    4.10
  17 -10 -21    0.97    2.71
   7 -17  21    7.74    8.01
  17 -10 -18    3.19    3.60
   7 -17  18   15.06    9.61
   7 -17  15    0.05    6.92
  17 -10 -15   -0.54    3.17
   7 -17  12   -1.09    7.85
  17 -10 -12   -5.00    4.78
  17 -10  -9   20.92    6.16
 -10  -7  -6   45.03    9.38
  17 -10  -6   35.63    7.90
 -10  -7  -3   20.80    6.86
  17 -10  -3   16.53    6.38
 -10  -7   0   10.73    5.78
  17 -10   0   -0.94    5.96
 -10  -7   3   43.38    7.74
  17 -10   3   29.42    8.55
  17 -10   6   11.70    7.08
  17 -10   9  117.19   15.26
 -10  -7   9  109.19   10.22
 -10  -7  12   33.55    5.87
  17 -10  12   23.65    9.10
 -10  -7  15    5.16    3.19
  17 -10  15    8.29    7.85
 -10  -7  18   12.74    2.90
  17 -10  18    2.43    8.59
 -10  -7  18    5.11    2.20
  17 -10  21   22.36    8.93
  17 -10  24   10.87    8.59
  17 -10  27   31.76   10.82
  17 -10  30   12.28    9.60
   8 -17  31    6.15    6.96
   8 -17  28    4.83    5.96
   8 -17  25    6.11    6.14
   8 -17  22    7.25    7.29
  17  -9 -22    5.66    2.73
  17  -9 -19   -2.28    3.08
   8 -17  19    7.56    8.01
   8 -17  16   14.90    7.58
  17  -9 -16    6.96    3.35
   8 -17  13   13.08    8.23
  17  -9 -13   20.46    4.92
  17  -9 -10    5.56    3.73
   8 -17  10    4.73    7.50
  17  -9  -7    1.99    4.81
  -9  -8  -4   76.01   11.02
  17  -9  -4   60.48    9.38
  -9  -8  -1   48.12    9.06
  17  -9  -1   32.28    7.71
  17  -9   2   60.42   10.27
  -9  -8   2   79.51   10.34
 -17   9  -5    6.49    4.76
  17  -9   5   12.81    6.92
  17  -9   8    9.23    7.50
  17  -9  11    8.86    8.03
  -9  -8  11    8.23    4.19
  17  -9  14  -14.54    8.96
  -9  -8  14   -0.84    2.82
  -9  -8  17    3.00    2.75
  -9  -8  17    3.98    2.87
  -9  -8  20   23.16    4.04
  17  -9  20    4.61    8.63
  -9  -8  20   20.55    3.56
  17  -9  23   -1.22    9.20
  17  -9  26    2.47    6.70
  17  -9  29    1.73    7.71
   9 -17  29   -6.46    7.28
   9 -17  26   13.20    7.87
   9 -17  23   51.89   12.52
   9 -17  20   99.53   15.67
  17  -8 -20  105.55    7.02
   9 -17  17  156.68   19.21
  17  -8 -17  140.28    9.41
  17  -8 -14  154.97   10.80
   9 -17  14  151.15   18.77
   9 -17  11  134.83   17.63
  17  -8 -11  135.00   11.16
   9 -17   8  192.29   20.58
  17  -8  -8  195.84   14.28
  -8  -9  -5   34.51    8.51
  17  -8  -5   33.32    6.87
  17  -8  -2    5.42    4.93
  -8  -9  -2   -1.47    4.57
  17  -8   1  194.34   16.26
  -8  -9   1  168.28   15.20
 -17   8  -4   26.28    7.22
  17  -8   4   30.51    8.34
  -8  -9   4   29.57    7.08
  17  -8   7   32.51    8.99
  17  -8  10    8.24    7.19
  17  -8  13    1.13    8.11
  -8  -9  13    4.61    3.59
  17  -8  16   -3.03    8.78
  -8  -9  16   12.08    3.71
  -8  -9  19   34.80    5.87
  -8  -9  19   26.17    4.91
  17  -8  22  -11.40    8.78
  -8  -9  22   -1.78    2.11
  17  -8  25    2.72    6.99
  17  -8  28   22.82    9.92
  17  -8  31   14.37   10.30
  10 -17  30   16.87    9.53
  10 -17  27    0.99    5.84
  10 -17  24    5.70    7.18
  10 -17  21   22.97    9.24
  17  -7 -18   20.69    3.06
  10 -17  18   16.55    9.86
  17  -7 -15   12.76    3.45
  10 -17  15   16.91    8.73
  10 -17  12   -2.83    7.78
  17  -7 -12   -1.66    3.71
  10 -17   9    6.06    7.65
  17  -7  -9    7.65    3.98
  17  -7  -6   53.15    8.08
  17  -7  -3    2.60    4.51
  -7 -10  -3    3.29    4.85
 -17   7   0   18.66    6.34
  17  -7   0   -0.80    6.15
  -7 -10   0   16.53    5.78
  17  -7   3   -4.02    7.09
  -7 -10   3    4.07    4.84
 -17   7  -3    3.42    3.95
  17  -7   6   80.19   11.77
 -17   7  -6   94.05   12.75
  -7 -10   6   98.61   11.51
  17  -7   9   -7.94    8.60
  -7 -10   9    7.51    4.43
  17  -7  12   -0.37    7.46
  17  -7  15    6.60    6.97
  -7 -10  18   12.62    5.00
  17  -7  18   11.91    8.82
  17  -7  21    6.77    8.71
  -7 -10  21   17.11    5.10
  17  -7  24   13.12    9.80
  -7 -10  24    7.06    3.46
  17  -7  27   13.35    9.20
  17  -7  30   13.41   10.24
  11 -17  31   11.46    8.02
  11 -17  28   -5.22    7.58
  11 -17  25   -3.46    8.29
  11 -17  22   -1.59    7.44
  11 -17  19   -2.16    5.71
  17  -6 -16   11.84    2.49
  11 -17  16   12.36    8.47
  17  -6 -13   49.22    5.67
  11 -17  13   37.63   10.84
  17  -6 -10   96.87    8.92
  11 -17  10  100.95   15.82
  17  -6  -7    2.27    4.35
  11 -17   7   12.19    7.85
  17  -6  -4   -1.82    5.41
  17  -6  -1   38.11    7.93
 -17   6   1   38.77    7.68
  -6 -11  -1   43.70    8.72
  17  -6   2  116.22   12.72
  -6 -11   2  122.94   13.29
 -17   6  -2  119.63   13.12
  17  -6   5  235.01   19.16
 -17   6  -5  236.69   19.18
  17  -6   8  344.06   23.78
  17  -6  11   33.94    9.69
  17  -6  14    1.47    6.38
  17  -6  17   27.68    9.93
  17  -6  20   32.80   11.19
  -6 -11  20   29.55    6.60
  -6 -11  23   11.57    4.30
  17  -6  23   18.05    9.25
  17  -6  26   12.48    9.49
  -6 -11  26    2.34    2.78
  17  -6  29   33.06   12.27
  12 -17  29    0.93    7.80
  12 -17  26   16.80    9.69
  12 -17  23    7.06    7.44
  12 -17  20   26.89   10.32
  12 -17  17    2.79    6.58
  12 -17  14   48.09   11.90
  17  -5 -14   53.40    4.55
  12 -17  11  284.61   24.99
  17  -5 -11  289.38   13.34
  12 -17   8  336.16   26.82
  17  -5  -8  322.48   15.99
  12 -17   5  228.61   22.37
  17  -5  -5  181.54   13.62
  17  -5  -2   45.50    8.28
 -17   5  -1   11.40    5.04
  17  -5   1    8.46    5.92
  17  -5   4   -5.92    6.51
 -17   5  -4    0.64    3.96
  17  -5   7   -2.76    6.12
 -17   5  -7   -1.60    4.55
  17  -5  10   24.65    8.93
  17  -5  13   35.51   10.29
  17  -5  16    0.78    6.54
  17  -5  19   76.04   14.09
  -5 -12  19   77.78   10.77
  17  -5  22   46.04   12.17
  -5 -12  22   30.69    7.03
  17  -5  25   10.22    8.86
  -5 -12  25   -0.63    3.19
  17  -5  28   30.18   11.50
  13 -17  30    8.83    6.41
  13 -17  27   17.44    8.97
  13 -17  24   11.29    8.73
  13 -17  21    1.83    7.61
  13 -17  18   12.88    9.15
  13 -17  15    5.76    7.75
  17  -4 -12   36.85    4.33
  13 -17  12   42.28   12.17
  13 -17   9   69.44   14.27
  17  -4  -9   75.80    7.66
  17  -4  -6   13.75    5.23
  13 -17   6   -1.21    7.42
  17  -4  -3   26.29    7.36
  13 -17   3   15.00    8.33
  17  -4   0   39.44    8.19
 -17   4   0   32.00    7.22
  17  -4   3   40.25    9.27
 -17   4  -3   37.88    7.55
 -17   4  -6   -1.95    4.13
  17  -4   6    1.66    5.95
  17  -4   9    7.23    7.27
  17  -4  12   48.22   11.34
  17  -4  15   10.60    8.94
  17  -4  18    8.87    8.88
  -4 -13  18    0.13    4.39
  17  -4  21   21.60   10.63
  -4 -13  21    7.11    4.71
  17  -4  24   18.83   10.07
  -4 -13  24    1.55    3.85
  17  -4  27   18.75    9.29
  -4 -13  27   -5.58    4.79
  17  -4  30    4.56    8.26
  14 -17  28    9.33    7.45
  14 -17  25   27.66   10.93
  14 -17  22   -3.96    7.70
  14 -17  19   40.67   11.13
  14 -17  16   35.73   10.60
  14 -17  13    6.24    7.66
  17  -3 -10   94.68    7.39
  14 -17  10   91.12   15.84
 -17   3   7  139.19   11.11
  14 -17   7  135.95   17.98
  17  -3  -7  125.64   10.16
  17  -3  -4   22.55    6.32
  14 -17   4   10.58    6.98
  14 -17   1  120.27   16.90
 -17   3   1  113.92   11.97
  17  -3  -1  123.86   12.31
 -17   3  -2   53.95    9.08
  14 -17  -2   60.53   12.45
  17  -3   2   70.27   10.87
  17  -3   5    6.44    7.41
 -17   3  -5    5.87    4.43
  17  -3   8   21.56    8.76
  17  -3  11   56.45   11.86
  17  -3  14  145.55   17.08
  17  -3  17   89.39   15.03
  17  -3  20   16.89    9.77
  -3 -14  20   21.42    6.90
  17  -3  23    0.11    7.49
  -3 -14  23    0.56    3.76
  -3 -14  26   25.97    7.04
  17  -3  26   12.62    9.37
  17  -3  29    8.12    7.61
  -3 -14  29    0.23    3.52
  15 -17  26    1.99    5.35
  15 -17  23   -5.15    8.58
  15 -17  20    6.58    5.96
  15 -17  17   22.96   10.05
  15 -17  14   16.45    8.88
  15 -17  11   16.85    8.79
 -17   2   8   25.56    4.92
  15 -17   8   22.55    9.04
  17  -2  -8   21.99    4.79
  15 -17   5   -2.22    5.94
  17  -2  -5   -2.82    4.23
 -17   2   5    2.08    2.92
  15 -17   2    6.54    7.23
  17  -2  -2   12.85    5.86
  15 -17  -1   -3.70    6.36
 -17   2  -1    0.56    3.19
  17  -2   1    3.07    6.13
  17  -2   4   11.09    6.70
  15 -17  -4   -2.65    7.07
 -17   2  -4   11.62    5.71
  17  -2   7   24.13    8.42
  17  -2  10   78.27   12.67
  17  -2  13   96.75   14.34
  17  -2  16   29.80   11.12
  17  -2  19   51.99   12.42
  -2 -15  19   50.64    9.97
  17  -2  22   33.86   11.30
  -2 -15  22    9.88    5.50
  -2 -15  25    4.50    4.75
  17  -2  25    7.79    8.78
  -2 -15  28    2.98    4.31
  17  -2  28    6.65    8.52
  16 -17  27    9.76    7.69
  16 -17  24   -2.91    7.39
  16 -17  21    4.63    5.97
  16 -17  18    7.83    7.61
  16 -17  15    3.93    7.56
  16 -17  12   24.96    9.95
 -17   1   9   -1.45    2.46
  16 -17   9   -0.76    7.05
  16 -17   6   29.56    9.43
 -17   1   6   30.38    5.79
  17  -1  -3   96.73   10.30
  16 -17   3  110.52   16.34
  16 -17   0   22.11    8.94
 -17   1   0   11.18    4.72
  17  -1   0    9.61    5.52
  16 -17  -3   -5.91    7.23
 -17   1  -3   -3.89    4.35
  17  -1   3   -0.89    5.26
  16 -17  -6    5.45    5.87
  17  -1   6   19.32    8.01
  17  -1   9   26.96    8.88
  17  -1  12   20.91    9.02
  17  -1  15    3.37    6.43
  -1 -16  18    9.07    6.48
  17  -1  18   22.83   10.15
  -1 -16  21    1.85    4.59
  17  -1  21    1.72    7.17
  -1 -16  24    3.49    5.60
  17  -1  24    0.02    7.63
  -1 -16  27   11.88    5.83
  17  -1  27   11.80    9.73
  17 -17  25    8.85    7.96
  17 -17  22    5.21    7.01
  17 -17  19    1.15    6.05
  17 -17  16    4.39    7.77
  17 -17  13   -0.60    7.37
  17 -17  10    3.27    7.36
 -17   0  10    0.65    1.97
  17 -17   7   23.63    8.64
 -17   0   7   25.49    5.16
  17 -17   4   32.49   10.45
 -17   0   1   16.69    5.45
  17   0  -1   12.08    5.29
  17 -17   1   16.40    8.53
  17 -17  -2   11.36    7.42
 -17   0  -2   15.03    5.52
  17   0   2   13.05    5.95
  17 -17  -5   -0.13    6.42
  17   0   5   -4.60    5.64
  17 -17  -8   19.37    8.52
  17   0   8   24.87    8.45
  17   0  11    2.04    6.56
  17 -17 -11    9.53    6.29
  17   0  14   81.26   13.39
   0 -17  17   60.71   12.08
  17   0  17   58.83   12.82
   0 -17  20    7.53    6.05
  17   0  20   -2.86    6.34
   0 -17  23    8.26    6.49
  17   0  23    7.73    8.64
   0 -17  26    7.30    4.93
  17   0  26   14.19    8.09
   1 -18  22    3.54    5.72
  17   1  22   -7.53    8.21
   1 -18  19   -1.64    5.44
  17   1  19   -2.32    7.33
  17   1  16   -3.61    7.81
  18 -17 -16   -0.50    5.60
  18 -17 -13   29.75    9.28
  17   1  13   24.25    8.65
  17   1  10    4.58    5.97
  18 -17 -10   -0.20    5.42
  18 -17  -7   -0.46    5.71
  17   1   7   -1.99    6.07
  18 -17  -4    2.22    5.56
  17   1   4   -1.15    5.56
 -17  -1  -1   16.56    5.84
  18 -17  -1   29.36    9.90
  18 -17   2   27.04    9.38
 -17  -1   2   25.06    6.31
  18 -17   5   31.66   10.55
  18 -17   8   25.14    9.57
  18 -17  11   22.22    8.90
  18 -17  14    9.95    6.58
  18 -17  17    9.73    7.08
  18 -17  20   11.62    7.68
  18 -17  23   -6.21    6.85
  16   2  23  -20.55    9.77
   2 -18  23   -2.02    5.14
   2 -18  20   18.30    7.86
  18 -16 -20   17.30    6.44
  16   2  20   13.77    9.16
  18 -16 -17   39.14    9.59
   2 -18  17   39.33   10.58
  16   2  17   42.20   11.14
  18 -16 -14    2.34    5.50
  16   2  14    2.91    6.56
  18 -16 -11   -0.45    5.38
  16   2  11    3.03    6.00
  18 -16  -8   -2.44    5.62
  16   2   8  -11.44    7.63
  16   2   5   18.26    6.78
  18 -16  -5   23.72    7.81
 -16  -2  -2   48.95    9.15
  18 -16  -2   68.45   12.70
  18 -16   1  124.24   16.68
 -16  -2   1  122.67   12.71
  18 -16   4  164.63   18.84
 -16  -2   7  151.43   11.71
  18 -16   7  161.43   19.05
  18 -16  10   44.33   11.34
  18 -16  13   19.60    8.52
  18 -16  16   36.84   10.60
  18 -16  19    9.34    7.53
  18 -16  22   32.35   10.65
  18 -16  25   56.76   13.56
  15   3  27  -10.36    7.96
  18 -15 -24    3.67    4.23
   3 -18  24    7.47    6.87
  15   3  24   -2.74    7.47
   3 -18  21    6.59    6.67
  18 -15 -21   14.60    6.10
  15   3  21    0.02    7.03
   3 -18  18   22.74    9.12
  18 -15 -18   20.00    6.24
  15   3  18    7.55    6.81
  15   3  15    0.12    7.28
  18 -15 -15    6.90    5.90
   3 -18  15    1.90    6.39
  18 -15 -12   32.71    8.50
  15   3  12   18.19    8.45
  18 -15  -9   25.00    8.31
  18 -15  -6    5.02    6.01
  18 -15  -3   16.94    7.11
 -15  -3  -3   16.61    6.21
  18 -15   0   15.85    7.77
 -15  -3   0    9.78    4.83
 -15  -3   3    4.35    3.62
  18 -15   3    5.49    6.85
  18 -15   6  -13.50    8.78
 -15  -3   9    5.13    3.09
  18 -15   9    6.88    7.53
 -15  -3  12    3.17    1.92
  18 -15  12   -3.47    7.16
  18 -15  15   15.67    8.93
  18 -15  18   13.84    8.05
  18 -15  21   29.82    9.89
  18 -15  24    2.54    6.23
   4 -18  25    4.02    5.66
  18 -14 -25   -2.53    4.21
  14   4  25   -2.38    6.31
  18 -14 -22    0.73    4.13
   4 -18  22    2.72    5.59
   4 -18  19   46.16   11.77
  14   4  19   36.16   10.04
  18 -14 -19   48.79    9.19
  18 -14 -16    9.33    5.27
  14   4  16    3.36    6.80
   4 -18  16    1.64    6.65
  18 -14 -13   13.96    6.21
  18 -14 -10   21.63    7.12
  18 -14  -7   10.60    6.68
  18 -14  -4   19.31    7.54
 -14  -4  -4   10.05    5.24
  18 -14  -1   12.20    7.18
 -14  -4  -1    6.68    4.22
 -14  -4   2   42.40    7.84
  18 -14   2   39.34    9.73
  18 -14   5   56.10   11.68
  18 -14   8    6.88    6.99
 -14  -4   8    2.02    2.66
 -14  -4  11    6.23    2.80
  18 -14  11    1.56    5.66
 -14  -4  14    1.17    0.91
  18 -14  14    6.68    6.91
  18 -14  17    3.55    7.48
  18 -14  20   18.33    9.24
  18 -14  23   10.36    8.81
  18 -14  26    8.66    8.76
   5 -18  26    3.87    6.25
  18 -13 -23   -1.26    3.63
   5 -18  23    2.32    5.26
   5 -18  20    6.41    6.41
  18 -13 -20    8.48    4.01
   5 -18  17   -0.88    6.31
  18 -13 -17   14.03    5.51
   5 -18  14   61.07   13.41
  18 -13 -14   65.16   10.21
  18 -13 -11  124.01   13.82
  18 -13  -8   71.18   10.91
  18 -13  -5   95.72   13.13
 -13  -5  -2   96.50   12.22
  18 -13  -2   96.92   13.47
 -13  -5   1   -1.64    4.46
  18 -13   1   -6.89    7.41
  18 -13   4    1.69    6.60
  18 -13   7   11.64    7.39
 -13  -5   7   11.83    4.25
  18 -13  10    5.50    6.32
 -13  -5  10    3.88    2.95
  18 -13  13    3.97    7.27
 -13  -5  13    9.86    2.95
  18 -13  16   43.34   11.57
  18 -13  19   15.91    8.42
  18 -13  22   62.63   13.69
  18 -13  25   -9.52    9.57
  18 -13  28  -28.18   11.36
   6 -18  27    1.79    5.73
   6 -18  24    0.52    5.12
  18 -12 -21    1.58    3.30
   6 -18  21    3.37    5.89
   6 -18  18   33.05   10.18
  18 -12 -18   32.42    7.03
   6 -18  15    6.29    6.26
  18 -12 -15    4.90    4.82
  18 -12 -12   31.59    7.37
  18 -12  -9   76.90   10.91
  18 -12  -6    7.67    5.30
 -12  -6  -3    3.09    4.21
  18 -12  -3   -3.37    5.82
 -12  -6   0    0.16    4.37
  18 -12   0   -3.05    6.50
  18 -12   3   89.54   13.11
 -12  -6   3   84.85   10.60
  18 -12   6   30.11    9.56
  18 -12   9    2.19    5.66
 -12  -6   9    2.73    3.44
  18 -12  12    2.69    7.21
 -12  -6  12   -0.04    2.58
 -12  -6  15   13.65    2.84
  18 -12  15   14.54    8.54
  18 -12  18   12.18    7.78
  18 -12  21    2.36    8.17
  18 -12  24   -7.04    8.65
  18 -12  27  -16.26   10.01
   7 -18  28    6.35    7.25
   7 -18  25   26.33    9.54
  18 -11 -22   48.29    6.94
   7 -18  22   43.73   11.46
  18 -11 -19    4.12    3.26
   7 -18  19    3.47    5.79
   7 -18  16    0.09    6.75
  18 -11 -16   12.62    4.33
   7 -18  13    5.18    7.11
  18 -11 -13   -2.91    4.75
  18 -11 -10    9.43    4.77
  18 -11  -7  134.10   13.72
 -11  -7  -4   27.75    7.66
  18 -11  -4   32.06    7.76
 -11  -7  -1   46.74    8.89
  18 -11  -1   32.31    8.32
 -11  -7   2    2.61    4.62
  18 -11   2    4.42    5.90
  18 -11   5   22.96    8.06
 -11  -7   5   27.30    6.40
  18 -11   8   53.38   11.16
 -11  -7  11   24.84    5.32
  18 -11  11   27.71    9.70
 -11  -7  14   18.85    4.27
  18 -11  14   21.63    9.60
 -11  -7  17   13.98    3.12
 -11  -7  17   14.03    2.94
  18 -11  17    6.96    6.54
  18 -11  20   -3.13    9.73
  18 -11  23   -8.33    8.92
  18 -11  26   -5.88    9.49
  18 -11  29   -3.00    7.61
   8 -18  29    3.05    5.51
   8 -18  26   -2.48    6.84
   8 -18  23   28.54    9.91
  18 -10 -20    8.70    3.38
   8 -18  20   11.50    7.41
   8 -18  17   23.34    9.69
  18 -10 -17   11.98    4.06
  18 -10 -14   20.01    5.22
   8 -18  14   32.24   10.67
  18 -10 -11    0.78    4.07
   8 -18  11    1.51    6.32
  18 -10  -8   20.81    6.17
  18 -10  -5    5.58    4.97
  18 -10  -2   46.19    8.95
 -10  -8  -2   65.42   10.46
  18 -10   1    5.70    6.20
 -10  -8   1   11.20    5.74
  18 -10   4   16.60    7.79
 -10  -8   4   21.76    6.58
  18 -10   7    4.26    7.38
  18 -10  10   22.47    9.16
 -10  -8  13   12.29    4.67
  18 -10  13   19.92    8.21
 -10  -8  16  109.56    8.63
  18 -10  16   80.01   14.35
 -10  -8  19  101.84    7.64
  18 -10  19   93.05   15.78
  18 -10  22   69.45   14.02
  18 -10  25   10.21    7.82
  18 -10  28   -0.02    8.72
   9 -18  27   -7.99    8.41
   9 -18  24    7.02    7.38
   9 -18  21    1.71    6.57
  18  -9 -18    5.17    2.92
   9 -18  18   16.09    9.78
  18  -9 -15    7.65    3.85
   9 -18  15    8.45    8.17
  18  -9 -12   32.11    6.25
   9 -18  12   25.62   10.57
   9 -18   9  138.01   18.63
  18  -9  -9  125.66   11.74
  18  -9  -6   90.47   10.88
  -9  -9  -3   18.35    6.92
  18  -9  -3   13.89    6.57
  -9  -9   0   58.33    9.75
  18  -9   0   71.40   10.77
  18  -9   3  329.07   22.30
  -9  -9   3  315.86   20.46
  18  -9   6  298.88   22.41
  -9  -9   6  305.19   18.89
  18  -9   9   55.37   11.09
  18  -9  12   -9.22    8.49
  18  -9  15   -4.99    7.32
  -9  -9  15    3.06    3.34
  -9  -9  18    3.79    3.11
  18  -9  18   -5.57    7.42
  -9  -9  18    3.75    2.89
  -9  -9  21   11.60    3.28
  18  -9  21    3.88    6.69
  18  -9  24   30.69   11.31
  18  -9  27   17.14    9.50
  10 -18  28    5.31    6.93
  10 -18  25   16.24    9.31
  10 -18  22   66.06   14.36
  18  -8 -19  119.09    7.36
  10 -18  19  117.38   17.56
  18  -8 -16  101.30    8.06
  10 -18  16   95.51   16.08
  18  -8 -13   61.63    7.30
  10 -18  13   61.07   13.29
  18  -8 -10   62.29    8.08
  10 -18  10   58.47   13.33
  18  -8  -7   68.61    9.06
  10 -18   7   73.32   14.43
  18  -8  -4    1.28    4.52
  18  -8  -1   14.47    6.80
  -8 -10  -1    4.14    5.24
  18  -8   2  104.66   13.07
 -18   8  -2  111.49   13.62
  -8 -10   2   86.40   11.61
  -8 -10   5  107.58   12.29
  18  -8   5  108.44   13.58
  18  -8   8   37.70    9.84
  -8 -10   8   46.60    8.09
  18  -8  11   -8.54    8.27
  -8 -10  11   -1.66    4.06
  18  -8  14    6.50    6.88
  18  -8  17    3.94    7.86
  -8 -10  17   13.13    4.19
  -8 -10  20    3.36    3.27
  18  -8  20   -3.46    8.17
  18  -8  23   35.20   11.91
  -8 -10  23   30.08    5.06
  18  -8  26    5.05    9.04
  18  -8  29   15.00   10.50
  11 -18  29  -11.61    8.37
  11 -18  26    8.67    8.28
  11 -18  23    4.42    6.90
  11 -18  20   62.11   13.38
  11 -18  17  102.43   16.51
  18  -7 -17   99.29    6.30
  18  -7 -14  120.51    8.99
  11 -18  14  137.71   19.09
  18  -7 -11   28.67    5.50
  11 -18  11   53.65   13.24
  18  -7  -8   -2.73    5.28
  11 -18   8    0.28    7.13
  18  -7  -5   57.23    8.40
  11 -18   5   58.93   12.58
  18  -7  -2    0.37    6.21
  18  -7   1   11.90    6.06
 -18   7  -1   32.97    7.53
  -7 -11   1   32.12    8.01
  18  -7   4   26.49    7.52
 -18   7  -4   42.98    9.22
  -7 -11   4   28.87    7.34
  18  -7   7   20.72    7.92
  -7 -11   7   31.84    7.17
  18  -7  10   12.28    7.27
  -7 -11  10   12.92    4.94
  18  -7  13    2.94    6.24
  18  -7  16   -2.90    7.92
  -7 -11  19    1.27    3.55
  18  -7  19   -3.12    8.24
  18  -7  22    3.15    6.30
  -7 -11  22   -1.72    2.93
  18  -7  25   18.95    9.49
  18  -7  28   29.78   12.20
  12 -18  27   10.66    7.97
  12 -18  24   -6.81    7.23
  12 -18  21   41.66   12.15
  12 -18  18   44.16   11.72
  12 -18  15   75.84   14.25
  18  -6 -15   64.50    5.19
  12 -18  12   22.84    9.24
  18  -6 -12   27.08    4.75
  12 -18   9   62.01   12.69
  18  -6  -9   69.41    8.34
  12 -18   6  225.88   22.90
  18  -6  -6  233.39   15.44
  18  -6  -3   45.45    8.14
 -18   6   0   33.16    7.40
  18  -6   0   35.61    8.02
 -18   6  -3   24.03    6.84
  18  -6   3   15.98    6.50
  -6 -12   3   25.88    6.82
  18  -6   6  171.78   16.79
  18  -6   9  117.83   15.12
  18  -6  12   30.56    9.64
  18  -6  15   35.45   10.44
  18  -6  18    5.56    8.14
  -6 -12  18    6.03    4.67
  -6 -12  21   17.11    5.52
  18  -6  21   11.88    9.32
  -6 -12  24    2.08    2.81
  18  -6  24   13.72    9.00
  18  -6  27   35.41   12.32
  13 -18  28   23.89    9.93
  13 -18  25    1.24    5.65
  13 -18  22    0.51    6.28
  13 -18  19    2.23    6.73
  13 -18  16   14.02    8.83
  13 -18  13   -8.72    8.28
  18  -5 -13    4.43    2.59
  18  -5 -10    7.92    3.98
  13 -18  10   10.99    8.82
  18  -5  -7   27.23    6.34
  13 -18   7   20.82   10.27
  18  -5  -4   17.58    6.10
  13 -18   4   15.06    8.86
  13 -18   1   -0.29    6.46
  18  -5  -1    3.71    5.40
 -18   5   1    2.36    3.47
  18  -5   2    6.82    5.97
 -18   5  -2    0.15    3.74
  18  -5   5   10.76    6.69
 -18   5  -5   14.24    5.87
  18  -5   8   29.90    9.29
  18  -5  11    7.21    7.75
  18  -5  14   23.82    9.96
  18  -5  17   41.05   12.51
  18  -5  20   26.90   11.03
  -5 -13  20   24.36    6.79
  18  -5  23   23.79   10.63
  -5 -13  23    8.06    4.38
  18  -5  26   14.66   10.13
  -5 -13  26    1.42    3.66
  14 -18  26    9.43    7.85
  14 -18  23    3.49    6.64
  14 -18  20   -8.34    9.39
  14 -18  17   -8.19    7.99
  14 -18  14    0.46    5.60
  14 -18  11   27.45   10.25
  18  -4 -11   17.77    3.77
  14 -18   8  157.15   19.49
  18  -4  -8  131.16   10.48
  18  -4  -5   46.62    7.72
  14 -18   5   37.37   11.00
  18  -4  -2   30.81    7.81
 -18   4   2   21.19    6.04
  14 -18   2   11.84    7.71
  18  -4   1   13.19    6.43
 -18   4  -1   -0.82    3.41
  14 -18  -1    5.02    7.27
  18  -4   4   13.66    7.10
 -18   4  -4    2.79    4.05
  18  -4   7   36.96    9.55
  18  -4  10   32.62   10.32
  18  -4  13   79.21   13.65
  18  -4  16  120.83   16.73
  18  -4  19   26.45   10.47
  -4 -14  19    3.92    4.23
  -4 -14  22    3.81    4.12
  18  -4  22   19.98   10.17
  18  -4  25    9.54    9.66
  -4 -14  25    6.97    4.81
  15 -18  24   54.00   13.04
  15 -18  21   11.86    8.99
  15 -18  18    4.59    6.63
  15 -18  15   10.32    9.73
  15 -18  12   17.06    9.30
  18  -3  -9   57.55    6.56
  15 -18   9   51.27   12.63
  15 -18   6   12.60    8.92
 -18   3   6    8.72    3.86
  18  -3  -6   12.93    4.95
  15 -18   3   15.06    8.55
  18  -3  -3    9.67    5.67
 -18   3   3    4.70    3.23
  18  -3   0   20.84    6.75
  15 -18   0   16.05    8.65
 -18   3   0   15.59    5.49
  18  -3   3   55.62   10.28
 -18   3  -3   47.47    8.91
  15 -18  -3   46.56   11.78
  18  -3   6   26.38    8.39
  18  -3   9   15.29    7.66
  18  -3  12   12.17    8.30
  18  -3  15   29.11    9.37
  18  -3  18   26.55   10.66
  -3 -15  18   35.00    8.76
  18  -3  21   23.96   10.59
  -3 -15  21   10.50    5.58
  18  -3  24   22.25   10.61
  -3 -15  24   -1.50    4.64
  18  -3  27    8.40    8.13
  16 -18  25   -3.05    6.05
  16 -18  22   11.10    9.10
  16 -18  19   22.29   10.04
  16 -18  16   33.41   10.58
  16 -18  13   80.82   15.50
  16 -18  10  103.60   16.60
  18  -2  -7   92.37    9.06
  16 -18   7  114.30   17.10
 -18   2   7   95.56    9.61
  16 -18   4    4.21    6.91
  18  -2  -4   -1.03    4.23
 -18   2   1   -0.68    3.15
  16 -18   1   -6.74    7.27
  18  -2  -1    1.22    4.23
  16 -18  -2   27.61   10.31
  18  -2   2   28.74    7.93
 -18   2  -2   28.36    7.58
  16 -18  -5    9.59    7.15
  18  -2   5   15.25    7.22
  18  -2   8   13.64    7.69
  18  -2  11    1.64    6.21
  18  -2  14   15.48    8.52
  18  -2  17    3.90    7.01
  -2 -16  20    3.09    5.56
  18  -2  20   17.85    9.98
  -2 -16  23    4.36    4.99
  18  -2  23   -1.78    7.64
  17 -18  23   16.69    9.15
  17 -18  20   35.07   11.97
  17 -18  17   24.17    9.36
  17 -18  14    0.85    7.14
  17 -18  11    7.54    8.93
  17 -18   8   11.90    7.71
  17 -18   5    1.13    5.95
 -18   1   2    0.70    3.35
  18  -1  -2   -9.33    5.47
  17 -18   2    2.08    6.37
  17 -18  -1    2.03    6.39
 -18   1  -1    0.19    3.31
  18  -1   1    5.54    5.27
  18  -1   4    4.49    5.75
  17 -18  -4    3.69    6.03
  17 -18  -7   -1.41    5.80
  18  -1   7    1.07    5.78
  17 -18 -10   -2.22    5.86
  18  -1  10   10.63    7.79
  18  -1  13    6.33    6.55
  18  -1  16    5.44    7.64
  -1 -17  19   18.47    7.77
  18  -1  19   16.22    9.03
  -1 -17  22   -3.12    4.92
  18  -1  22   -0.63    7.31
  18 -18  21   18.25    9.75
  18 -18  18   -0.04    6.53
  18 -18  15   -3.92    7.03
  18 -18  12   33.38   10.33
  18 -18   9  108.30   17.00
  18 -18   6  143.23   19.11
  18 -18   3   37.50   10.98
 -18   0   3   33.68    6.82
 -18   0   0   25.89    6.88
  18   0   0   32.91    7.46
  18 -18   0   33.58    9.82
  18 -18  -3   22.76    8.92
  18   0   3   13.52    6.30
  18 -18  -6   23.94    8.73
  18   0   6   21.78    7.74
  18 -18  -9    5.62    6.69
  18   0   9    0.20    5.58
  18 -18 -12    8.66    5.74
  18   0  12   10.24    7.16
  18 -18 -15   31.05    9.35
  18   0  15   35.82   11.11
   0 -18  18   17.99    8.28
  18   0  18   26.85   10.37
   0 -18  21   10.03    6.89
  18   0  21   -6.76    8.02
  19 -18 -20   36.77    9.92
   1 -19  20   34.66   10.12
  18   1  20   37.70   12.08
  18   1  17   13.94    8.03
   1 -19  17   10.74    7.11
  19 -18 -17    7.18    5.78
  19 -18 -14    3.87    5.69
  18   1  14   -4.94    7.07
  19 -18 -11   30.05    9.50
  18   1  11   28.52    9.21
  19 -18  -8   29.57    9.43
  18   1   8   24.94    8.48
  18   1   5   16.26    6.95
  19 -18  -5   18.13    8.16
  19 -18  -2    3.23    6.80
  19 -18   1   -0.88    5.41
 -18  -1   1   -4.60    3.89
  19 -18   4   17.84    8.41
  19 -18   7    2.81    7.14
  19 -18  10  -11.35    9.69
  19 -18  13  -11.07    9.10
  19 -18  16    3.16    6.92
  19 -18  19   16.18    8.94
  19 -17 -21   -0.43    4.73
   2 -19  21    2.62    5.94
  17   2  21    4.48    7.19
  19 -17 -18    5.50    5.42
   2 -19  18   10.51    7.54
  17   2  18   -5.39    7.17
  17   2  15    1.91    6.68
  19 -17 -15   -1.10    4.84
  19 -17 -12   -2.44    5.33
  17   2  12   -5.18    6.65
  19 -17  -9    0.76    5.33
  17   2   9   -2.15    6.58
  19 -17  -6    2.68    5.88
  19 -17  -3   21.28    8.62
 -17  -2   0    4.41    4.04
  19 -17   0    2.84    5.88
  19 -17   3   35.64   10.50
 -17  -2   3   27.43    6.39
  19 -17   6    0.70    7.42
  19 -17   9   11.09    8.03
  19 -17  12    2.69    7.16
  19 -17  15    4.44    7.93
  19 -17  18    8.32    7.69
  19 -17  21   48.38   12.93
  19 -16 -22    5.78    4.94
  16   3  22    0.95    7.28
   3 -19  22   -0.78    5.68
  16   3  19   -7.05    7.69
   3 -19  19    0.96    6.56
  19 -16 -19    2.50    4.29
  19 -16 -16    0.42    4.36
  16   3  16   -5.22    7.54
   3 -19  16   -2.76    6.58
  19 -16 -13   -1.66    4.70
  16   3  13  -10.23    8.89
  19 -16 -10   -2.89    4.85
  19 -16  -7    4.50    5.46
  19 -16  -4   33.40    9.39
  19 -16  -1   63.05   12.42
 -16  -3  -1   58.04    9.46
 -16  -3   2  143.29   13.75
  19 -16   2  145.97   18.27
  19 -16   5   71.91   13.00
  19 -16   8  101.32   15.76
  19 -16  11   37.96   11.15
  19 -16  14   19.83    9.50
  19 -16  17    7.07    7.44
  19 -16  20   18.06    8.10
  19 -16  23    2.41    5.91
   4 -19  23   14.18    7.63
  15   4  23    0.02    6.59
  19 -15 -23   11.09    5.33
   4 -19  20   -2.75    5.77
  19 -15 -20    1.59    3.74
  19 -15 -17    7.62    5.00
   4 -19  17   18.43    8.56
  19 -15 -14    2.47    4.48
  19 -15 -11   20.50    7.25
  19 -15  -8   24.85    7.98
  19 -15  -5    8.75    6.57
  19 -15  -2    3.68    6.63
 -15  -4  -2    3.52    3.95
 -15  -4   1    8.49    5.09
  19 -15   1   -3.67    6.07
  19 -15   4    7.17    6.43
 -15  -4   4   12.19    4.65
  19 -15   7    0.76    6.66
  19 -15  10   -3.39    6.50
  19 -15  13   -1.73    6.03
  19 -15  16    4.52    7.85
  19 -15  19    0.20    7.04
  19 -15  22    4.39    7.26
  19 -15  25    7.22    7.77
   5 -19  24   -5.89    5.60
  19 -14 -21   -0.01    3.51
   5 -19  21   -1.96    5.55
   5 -19  18   -1.30    6.09
  19 -14 -18   -0.27    3.66
   5 -19  15    7.46    6.53
  19 -14 -15   12.33    5.65
  19 -14 -12    8.32    5.69
  19 -14  -9    1.26    4.51
  19 -14  -6   16.51    7.06
  19 -14  -3   25.36    8.40
 -14  -5   0    1.60    5.06
  19 -14   0    3.96    5.52
  19 -14   3   -8.84    8.36
 -14  -5   3   -1.65    4.63
  19 -14   6   15.43    8.42
  19 -14   9    1.35    6.10
 -14  -5   9    0.89    2.58
  19 -14  12   -4.57    8.01
  19 -14  15    2.51    6.34
  19 -14  18  -12.14    8.21
  19 -14  21    8.84    8.72
  19 -14  24    2.72    7.34
   6 -19  25   -1.18    5.74
  19 -13 -22    4.47    3.77
   6 -19  22   -5.19    6.53
   6 -19  19   11.66    7.69
  19 -13 -19   -1.35    3.58
   6 -19  16    3.25    6.05
  19 -13 -16    0.27    3.77
  19 -13 -13   54.28    9.42
   6 -19  13   60.88   13.69
  19 -13 -10   32.03    8.29
  19 -13  -7    0.29    4.67
  19 -13  -4   -4.80    6.08
 -13  -6  -1    1.49    3.98
  19 -13  -1   -6.57    6.90
  19 -13   2    5.39    5.50
 -13  -6   2   10.96    5.25
  19 -13   5    7.74    6.81
 -13  -6   5    9.44    4.49
  19 -13   8   17.79    7.36
  19 -13  11   44.70   11.56
 -13  -6  11   29.15    5.31
  19 -13  14   41.60   11.32
  19 -13  17   21.34    9.41
  19 -13  20   15.16    7.95
  19 -13  23    0.04    7.94
  19 -13  26  -21.50   10.52
   7 -19  26    5.47    7.42
   7 -19  23   12.60    8.41
  19 -12 -20   10.11    4.46
   7 -19  20    9.17    6.89
   7 -19  17   31.19    9.83
  19 -12 -17   37.36    6.99
   7 -19  14   30.23   10.09
  19 -12 -14   31.70    6.97
  19 -12 -11    6.72    4.98
  19 -12  -8    6.89    5.52
  19 -12  -5   10.88    5.89
 -12  -7  -2    4.73    4.89
  19 -12  -2    9.70    5.90
  19 -12   1    0.91    5.43
 -12  -7   1   15.01    5.78
  19 -12   4   78.86   12.86
 -12  -7   4   57.40    8.88
  19 -12   7   55.06   11.67
  19 -12  10    3.91    7.04
 -12  -7  10    5.16    3.42
 -12  -7  13    0.04    2.56
  19 -12  13    3.82    7.30
  19 -12  16    7.88    8.06
  19 -12  19   13.32    7.34
  19 -12  22  -27.56   11.32
  19 -12  25   -6.72   10.14
   8 -19  27    2.28    5.81
   8 -19  24    2.47    6.36
   8 -19  21   22.78    9.31
   8 -19  18   -0.78    6.12
  19 -11 -18    6.77    3.70
  19 -11 -15    4.60    3.55
   8 -19  15    4.69    7.56
   8 -19  12    5.05    6.32
  19 -11 -12   19.09    5.45
  19 -11  -9   99.13   11.87
  19 -11  -6   20.04    6.60
  19 -11  -3    4.78    4.64
  19 -11   0    5.72    5.68
 -11  -8   0   12.18    5.85
  19 -11   3    4.38    6.35
 -11  -8   3    9.27    5.43
 -11  -8   6   94.09   10.77
  19 -11   6   83.17   12.99
  19 -11   9   13.04    7.85
 -11  -8  12    9.20    4.18
  19 -11  12    4.24    7.51
  19 -11  15   32.29   10.18
 -11  -8  18    6.74    2.60
  19 -11  18   -5.78    7.94
  19 -11  21  -12.08   10.46
  19 -11  24   -1.71    8.91
  19 -11  27   -3.84    7.44
   9 -19  25    4.58    6.62
   9 -19  22    4.42    7.54
  19 -10 -19    0.89    2.29
   9 -19  19    2.10    6.95
  19 -10 -16   45.65    6.82
   9 -19  16   66.15   13.76
  19 -10 -13  161.86   13.06
   9 -19  13  166.50   20.76
   9 -19  10  101.15   16.41
  19 -10 -10  100.61   10.99
  19 -10  -7    1.27    4.38
  19 -10  -4    3.63    4.73
  19 -10  -1    3.15    4.94
 -10  -9   2   27.92    7.57
  19 -10   2   17.36    7.31
 -10  -9   5   23.37    6.48
  19 -10   5   22.75    8.52
 -10  -9   8    0.39    3.31
  19 -10   8    9.68    7.53
  19 -10  11   22.60    8.09
 -10  -9  14    3.47    3.53
  19 -10  14  -17.00   10.33
  19 -10  17   14.52    8.39
  19 -10  20   37.12   11.71
  19 -10  23    0.02    8.19
  19 -10  26   -2.03    7.68
  10 -19  26   -0.76    6.19
  10 -19  23    0.41    6.77
  10 -19  20   54.27   12.74
  19  -9 -17   31.48    5.06
  10 -19  17   19.72    8.50
  19  -9 -14   90.38    9.10
  10 -19  14  106.10   17.61
  19  -9 -11  221.17   15.00
  10 -19  11  265.15   25.55
  19  -9  -8  196.85   15.17
  10 -19   8  184.08   22.07
  19  -9  -5   10.94    5.35
  19  -9  -2    3.13    4.33
  19  -9   1  138.49   15.19
  -9 -10   1  136.59   14.43
  19  -9   4   24.49    7.37
  -9 -10   4   20.22    6.57
  19  -9   7    4.97    6.98
  -9 -10   7   11.20    5.70
  19  -9  10  -17.10   10.01
  -9 -10  10    4.09    4.34
  19  -9  13   -4.94    7.06
  19  -9  16   -7.72    8.19
  19  -9  19   59.79   13.11
  -9 -10  19   55.73    7.42
  19  -9  22   35.68   11.57
  19  -9  25   13.83    9.62
  11 -19  27   -3.37    8.34
  11 -19  24   24.39   10.25
  11 -19  21    6.86    7.66
  11 -19  18   10.88    7.98
  19  -8 -15   36.09    5.36
  11 -19  15   31.29   10.37
  11 -19  12   55.92   13.00
  19  -8 -12   51.84    7.09
  11 -19   9   21.23   10.99
  19  -8  -9   21.82    5.80
  11 -19   6   43.23   12.24
  19  -8  -6   23.88    5.78
  19  -8  -3   17.56    5.53
  19  -8   0   19.10    7.01
  19  -8   3   44.62    9.88
  -8 -11   3   54.58    9.72
  19  -8   6   -2.07    7.33
  -8 -11   6    3.00    4.30
  19  -8   9   15.07    6.67
  -8 -11   9   21.86    5.89
  19  -8  12   15.81    7.80
  -8 -11  12   15.64    5.29
  19  -8  15   -3.44    7.99
  -8 -11  15    1.18    3.41
  -8 -11  18   88.26   10.48
  19  -8  18   65.79   13.78
  19  -8  21   92.94   15.60
  -8 -11  21   95.70   10.01
  19  -8  24   60.02   13.68
  19  -8  27   10.51    9.68
  12 -19  25    2.77    6.16
  12 -19  22    5.17    7.03
  12 -19  19    0.42    6.14
  12 -19  16   -0.06    6.87
  12 -19  13    2.14    6.76
  19  -7 -13    4.14    3.05
  19  -7 -10   11.62    4.47
  12 -19  10   16.87    8.27
  19  -7  -7    1.98    4.35
  12 -19   7   12.56    8.57
  19  -7  -4   18.93    6.69
  12 -19   4    8.78    8.88
  19  -7  -1   -5.12    5.91
 -19   7  -2    1.40    3.68
  19  -7   2    5.62    5.44
  19  -7   5   -4.49    6.79
  -7 -12   5   -1.45    5.12
  19  -7   8   -1.03    7.08
  -7 -12   8   -6.84    5.27
  19  -7  11   19.97    8.00
  -7 -12  11   13.80    5.68
  19  -7  14   15.69    7.90
  19  -7  17    1.31    7.61
  19  -7  20   21.11   10.52
  -7 -12  20    1.14    3.28
  19  -7  23   -1.68    7.46
  19  -7  26   30.31   10.78
  13 -19  26   25.37   10.16
  13 -19  23   41.81   11.72
  13 -19  20   38.94   11.66
  13 -19  17    7.63    8.71
  13 -19  14   11.33    9.11
  19  -6 -14    8.39    2.76
  13 -19  11    9.57    9.23
  19  -6 -11    6.67    3.81
  13 -19   8   76.67   14.77
  19  -6  -8   91.98    9.82
  19  -6  -5   46.06    8.41
  13 -19   5   32.24   10.87
  13 -19   2   14.65    9.22
  19  -6  -2   16.19    6.57
 -19   6   2   19.44    5.77
  19  -6   1    5.04    5.60
 -19   6  -1    5.04    4.57
  19  -6   4    2.20    6.06
  19  -6   7   -6.36    6.86
  19  -6  10   -2.26    6.95
  19  -6  13   10.00    8.20
  19  -6  16   17.88    9.36
  19  -6  19   14.23    9.71
  -6 -13  19    4.57    4.02
  19  -6  22    6.33    7.57
  -6 -13  22   -0.80    3.04
  19  -6  25   19.41   10.57
  14 -19  24   -4.56    6.79
  14 -19  21   10.25    7.41
  14 -19  18    2.69    7.32
  14 -19  15    4.27    6.72
  14 -19  12    6.15    6.45
  19  -5 -12    1.56    2.29
  19  -5  -9    3.31    3.42
  14 -19   9   -2.78    7.58
  19  -5  -6   43.32    7.83
  14 -19   6   28.36   10.30
 -19   5   3   61.50    9.26
  19  -5  -3   58.66    9.05
  14 -19   3   68.26   14.47
  19  -5   0   15.34    6.99
  14 -19   0    5.71    6.62
 -19   5   0    6.65    4.55
  19  -5   3   32.93    8.68
 -19   5  -3   13.31    5.49
  19  -5   6   14.77    7.56
  19  -5   9   42.47   10.45
  19  -5  12    7.32    8.09
  19  -5  15   11.28    8.64
  19  -5  18   30.25   10.91
  19  -5  21   16.05   10.00
  -5 -14  21   -0.15    3.72
  19  -5  24   10.57    8.76
  -5 -14  24    2.72    3.94
  15 -19  25    1.50    6.89
  15 -19  22   14.72    9.11
  15 -19  19   -0.47    8.08
  15 -19  16    2.37    6.61
  15 -19  13   -0.71    7.56
  15 -19  10    2.74    5.97
  19  -4 -10    3.15    2.78
  15 -19   7   21.91    9.66
  19  -4  -7   43.33    6.99
  19  -4  -4   15.53    6.09
 -19   4   4   10.00    4.33
  15 -19   4   17.67    8.26
  19  -4  -1    9.13    5.92
 -19   4   1   -1.49    3.18
  15 -19   1   -3.34    8.32
  19  -4   2    4.55    5.70
  15 -19  -2    1.72    7.71
 -19   4  -2   -1.04    3.77
  19  -4   5   11.19    7.71
  19  -4   8    8.01    7.60
  19  -4  11   17.17    8.49
  19  -4  14   14.44    8.71
  19  -4  17   13.22    9.03
  19  -4  20    9.64    8.64
  -4 -15  20   -0.52    4.08
  19  -4  23    2.39    8.02
  -4 -15  23   -3.17    4.68
  16 -19  23    4.75    6.25
  16 -19  20   -9.60    8.01
  16 -19  17    1.55    6.99
  16 -19  14   21.04    9.55
  16 -19  11   34.08   11.13
  16 -19   8   20.05    9.21
  19  -3  -8   16.03    4.30
  16 -19   5    0.69    7.56
  19  -3  -5    0.20    3.81
  16 -19   2  -10.40    8.93
 -19   3   2   -1.90    3.33
  19  -3  -2    2.15    4.40
  16 -19  -1   -1.94    6.79
 -19   3  -1    2.51    3.60
  19  -3   1    3.63    5.70
  19  -3   4   10.23    6.40
  16 -19  -4    0.16    6.57
  19  -3   7   47.40   10.39
  19  -3  10   23.98    8.41
  19  -3  13   -7.05    6.83
  19  -3  16   15.74    8.94
  19  -3  19   23.21   10.39
  -3 -16  19   16.24    7.29
  19  -3  22   21.39   10.33
  -3 -16  22   22.92    7.55
  17 -19  21   -0.81    7.99
  17 -19  18   12.24    8.93
  17 -19  15    1.06    7.10
  17 -19  12   -1.84    6.82
  17 -19   9   -0.04    6.62
  17 -19   6   30.14   10.81
  19  -2  -6   21.22    5.40
 -19   2   3   -4.57    3.53
  19  -2  -3   -6.60    5.08
  17 -19   3    6.18    7.45
 -19   2   0    0.25    3.25
  17 -19   0    2.44    7.17
  19  -2   0   -2.40    5.02
  19  -2   3    0.59    5.18
  17 -19  -3   -6.69    7.79
  19  -2   6   28.98    8.36
  17 -19  -6   17.46    8.61
  17 -19  -9   19.15    8.09
  19  -2   9   24.38    8.86
  19  -2  12    0.62    5.90
  19  -2  15    5.94    7.33
  -2 -17  18   -3.04    5.54
  19  -2  18    8.69    6.95
  -2 -17  21    6.28    5.02
  19  -2  21    7.15    8.83
  18 -19  19   -5.78    8.84
  18 -19  16   -0.82    7.54
  18 -19  13    9.11    8.02
  18 -19  10   39.76   11.73
  18 -19   7   24.27   10.04
  18 -19   4    6.86    6.42
 -19   1   1    1.66    3.91
  19  -1  -1    0.31    4.13
  18 -19   1    3.42    7.12
  18 -19  -2   -4.18    7.02
  19  -1   2   -1.66    4.93
  18 -19  -5   10.41    8.09
  19  -1   5   13.68    6.70
  18 -19  -8   44.77   11.36
  19  -1   8   40.38   10.15
  18 -19 -11   12.64    8.05
  19  -1  11   18.10    7.70
  19  -1  14   16.87    8.48
  19  -1  17    1.79    7.08
  19  -1  20    0.02    7.24
  -1 -18  20    3.87    5.76
  19 -19  17  -16.89    9.65
  19 -19  14   -0.87    8.52
  19 -19  11   -2.97    7.63
  19 -19   8   20.46    9.62
  19 -19   5   21.24    9.14
  19 -19   2   56.17   12.51
  19   0   1   78.39   11.14
  19 -19  -1   86.49   15.33
  19 -19  -4   10.11    8.43
  19   0   4   11.75    6.08
  19 -19  -7    3.97    6.03
  19   0   7    0.03    5.49
  19   0  10   10.56    7.40
  19 -19 -10   -4.93    6.37
  19 -19 -13   -0.85    5.57
  19   0  13    3.96    6.72
  19 -19 -16    0.62    5.17
  19   0  16    1.11    5.69
  19   0  19    0.98    5.78
  19   1  15   -0.02    6.53
  20 -19 -15    0.32    4.77
  20 -19 -12   12.79    7.09
  19   1  12    4.88    6.14
  20 -19  -9   11.62    7.46
  19   1   9    2.10    5.49
  19   1   6   -5.68    6.20
  20 -19  -6   -3.69    6.10
  20 -19  -3    5.93    6.40
  20 -19   0    0.19    6.55
  20 -19   3   -1.85    5.55
  20 -19   6   16.47    9.45
  20 -19   9    7.85    6.89
  20 -19  12    3.03    5.40
  20 -19  15   -4.87    7.14
  20 -18 -16    3.94    4.67
   2 -20  16    4.42    6.19
  20 -18 -13   19.84    7.97
  18   2  13   10.18    7.69
  18   2  10   22.39    8.56
  20 -18 -10   26.39    8.52
  20 -18  -7   17.57    8.02
  20 -18  -4   58.73   12.29
  20 -18  -1   53.01   12.59
  20 -18   2   -0.99    6.12
  20 -18   5   -2.69    6.83
  20 -18   8   11.73    7.53
  20 -18  11   22.54    9.17
  20 -18  14   -1.67    7.72
  20 -18  17    6.19    7.50
   3 -20  20    7.27    6.37
  20 -17 -20   -2.52    5.08
  20 -17 -17   13.20    6.73
  17   3  17   -3.76    8.13
   3 -20  17    6.69    6.76
  20 -17 -14   37.27    9.21
  20 -17 -11   34.46    9.40
  20 -17  -8    5.45    6.20
  20 -17  -5    2.73    5.45
  20 -17  -2    4.92    6.84
  20 -17   1   -3.99    6.31
  20 -17   4   -7.06    8.13
  20 -17   7   16.36    9.04
  20 -17  10   18.31    8.55
  20 -17  13    5.11    6.93
  20 -17  16    1.58    6.86
  20 -17  19   29.73   10.78
   4 -20  21   -4.62    6.95
  20 -16 -21    4.08    4.40
  20 -16 -18    2.48    4.69
   4 -20  18   -0.77    6.64
   4 -20  15   11.05    7.89
  20 -16 -15    8.66    6.27
  20 -16 -12   24.92    8.28
  20 -16  -9    6.88    5.77
  20 -16  -6   21.03    8.26
  20 -16  -3   85.37   13.78
 -16  -4   0  112.69   13.16
  20 -16   0   91.62   14.49
 -16  -4   3  145.73   13.96
  20 -16   3  168.47   19.38
  20 -16   6   75.49   14.01
  20 -16   9    2.23    6.69
  20 -16  12   -8.22    7.59
  20 -16  15   15.15    9.46
  20 -16  18   -2.55    7.10
  20 -16  21   -2.66    6.20
   5 -20  22   -3.81    6.37
   5 -20  19    0.58    5.66
  20 -15 -19   -1.47    3.98
  20 -15 -16    6.87    5.44
   5 -20  16    8.15    7.85
  20 -15 -13   14.12    6.30
  20 -15 -10   42.16    9.51
  20 -15  -7   37.86    9.22
  20 -15  -4   41.68    9.67
  20 -15  -1   28.00    8.45
  20 -15   2   43.94   10.52
 -15  -5   2   49.29    8.81
  20 -15   5   22.47    8.90
 -15  -5   5   19.89    6.03
  20 -15   8   -3.69    7.57
  20 -15  11   -1.13    6.67
  20 -15  14   31.09   10.97
  20 -15  17   51.29   12.97
  20 -15  20   10.79    8.95
   6 -20  23   10.12    7.74
   6 -20  20   19.55    8.28
  20 -14 -20   15.76    5.57
  20 -14 -17   18.67    5.96
   6 -20  17   26.70    9.61
  20 -14 -14    3.22    4.31
   6 -20  14    1.15    6.90
  20 -14 -11    4.24    4.94
  20 -14  -8    6.91    5.46
  20 -14  -5   -2.62    6.39
  20 -14  -2    4.10    5.88
  20 -14   1   -0.45    6.06
 -14  -6   1    1.28    3.95
  20 -14   4   77.27   13.48
 -14  -6   4   65.51    9.41
  20 -14   7   32.32    9.53
  20 -14  10   11.04    8.62
  20 -14  13   11.05    6.52
  20 -14  16   56.42   13.36
  20 -14  19   48.19   11.72
  20 -14  22   42.43   12.31
   7 -20  24   44.66   12.17
   7 -20  21   41.51   12.41
   7 -20  18   27.63    9.74
  20 -13 -18   25.42    6.33
   7 -20  15    4.55    7.81
  20 -13 -15    5.11    4.15
   7 -20  12    0.72    5.84
  20 -13 -12   -3.05    4.38
  20 -13  -9   14.53    5.83
  20 -13  -6    6.14    4.90
  20 -13  -3   -2.14    5.56
  20 -13   0   19.19    7.27
 -13  -7   0   27.96    7.34
  20 -13   3    2.74    5.68
 -13  -7   3   -1.76    4.09
  20 -13   6    0.69    6.31
 -13  -7   6    0.91    3.21
  20 -13   9    1.81    6.24
  20 -13  12   13.34    7.91
  20 -13  15   -0.76    6.36
  20 -13  18   21.28    9.93
  20 -13  21  -11.15    8.19
  20 -13  24  -14.51   10.67
   8 -20  22  133.14   19.26
   8 -20  19  171.63   21.63
  20 -12 -16   42.36    7.43
   8 -20  16   40.78   11.88
  20 -12 -13    3.07    3.93
   8 -20  13    2.34    5.99
  20 -12 -10    3.04    3.78
  20 -12  -7    8.48    5.97
  20 -12  -4   15.65    6.55
  20 -12  -1   10.23    6.15
  20 -12   2   29.90    8.38
 -12  -8   2   31.65    7.95
  20 -12   5   50.91   10.75
 -12  -8   5   59.81    9.34
 -12  -8   8    8.59    4.91
  20 -12   8   15.57    8.13
  20 -12  11   -1.21    6.64
  20 -12  14    7.09    7.69
  20 -12  17   18.91    9.73
  20 -12  20    7.70    7.39
  20 -12  23  -18.33    9.44
   9 -20  23   14.95    7.77
   9 -20  20   58.84   13.25
   9 -20  17   12.54    9.10
  20 -11 -17   15.66    4.67
  20 -11 -14    6.01    4.39
   9 -20  14   -3.76    7.67
  20 -11 -11    1.21    3.35
   9 -20  11    0.66    6.27
  20 -11  -8   11.66    5.22
  20 -11  -5    8.61    5.56
  20 -11  -2   18.65    6.98
  20 -11   1   63.53   11.21
 -11  -9   4   70.29   10.53
  20 -11   4   60.42   11.53
 -11  -9   7   32.87    7.42
  20 -11   7   34.04    9.40
 -11  -9  10   16.43    5.21
  20 -11  10   14.69    7.81
  20 -11  13   30.13   10.17
  20 -11  16    2.48    6.92
  20 -11  19  -12.34    8.98
  20 -11  22   -9.55    8.71
  20 -11  25   -3.70    7.67
  10 -20  24   10.11    8.20
  10 -20  21   46.12   12.27
  10 -20  18    9.32    8.61
  10 -20  15    3.72    6.50
  20 -10 -15    1.43    3.30
  10 -20  12   20.94    8.77
  20 -10 -12   19.88    5.56
  10 -20   9    9.59    7.20
  20 -10  -9   16.09    5.86
  20 -10  -6   19.71    6.15
  20 -10  -3   30.32    7.64
  20 -10   0  129.54   14.77
  20 -10   3  261.60   21.46
 -10 -10   3  277.20   19.86
  20 -10   6  129.07   15.48
 -10 -10   6  105.01   12.08
 -10 -10   9    9.83    4.75
  20 -10   9   -5.08    7.43
  20 -10  12  -21.69   11.04
  20 -10  15    3.46    7.55
 -10 -10  18    8.82    3.62
  20 -10  18   -4.94    8.32
  20 -10  21   -2.16    8.09
  20 -10  24  -12.01    8.48
  11 -20  25   -0.89    7.57
  11 -20  22    5.95    7.78
  11 -20  19    6.32    8.39
  11 -20  16    2.82    7.73
  11 -20  13    1.53    7.08
  20  -9 -13   -4.60    4.45
  11 -20  10   25.31   10.04
  20  -9 -10   12.12    4.55
  11 -20   7    6.07    9.04
  20  -9  -7   -1.02    4.30
  20  -9  -4   -2.93    5.54
  20  -9  -1   -6.53    7.44
  20  -9   2   13.80    6.45
  20  -9   5   32.23    8.55
  -9 -11   5   34.82    8.08
  20  -9   8   28.22    9.37
  -9 -11   8   38.92    7.99
  20  -9  11    3.85    7.52
  -9 -11  11   15.48    5.49
  20  -9  14   16.62    7.82
  20  -9  17   -8.31    8.79
  20  -9  20   -9.21    8.95
  20  -9  23    2.65    7.88
  12 -20  23    9.37    8.54
  12 -20  20    9.38    7.87
  12 -20  17    0.44    7.02
  20  -8 -14    1.58    2.62
  12 -20  14   10.87    8.78
  20  -8 -11   -1.59    3.53
  12 -20  11    4.50    8.59
  20  -8  -8   77.57    9.69
  12 -20   8  104.31   17.25
  20  -8  -5    9.52    4.60
  12 -20   5   28.95   10.59
  20  -8  -2    6.85    5.56
  20  -8   1   -5.19    5.86
  20  -8   4   -1.84    7.06
  20  -8   7    5.14    5.96
  -8 -12   7    5.18    4.63
  20  -8  10   -6.17    6.81
  -8 -12  10   -7.45    4.61
  20  -8  13   57.62   12.49
  20  -8  16   76.76   14.20
  20  -8  19   25.32    9.92
  -8 -12  19   31.25    6.92
  20  -8  22   49.95   13.41
  13 -20  24    3.37    7.09
  13 -20  21    3.72    7.83
  13 -20  18   29.71   10.71
  13 -20  15   74.15   15.27
  13 -20  12   19.07    9.35
  20  -7 -12   21.00    4.90
  20  -7  -9    5.55    4.37
  13 -20   9   17.83    9.98
  20  -7  -6    9.16    5.06
  13 -20   6    0.41    8.30
  13 -20   3   -9.42    7.59
  20  -7  -3   -0.26    4.61
 -20   7   0   -2.37    3.78
  20  -7   0   -1.13    5.40
  20  -7   3   -1.28    5.92
  20  -7   6   -3.64    6.58
  20  -7   9   10.23    7.50
  20  -7  12    5.63    7.64
  20  -7  15    2.86    7.35
  20  -7  18   10.71    8.85
  20  -7  21   13.52    8.15
  -7 -13  21   -0.33    3.49
  20  -7  24   28.42   11.22
  14 -20  22  163.97   22.42
  14 -20  19  165.30   21.94
  14 -20  16   51.36   13.46
  14 -20  13   50.29   13.74
  14 -20  10   44.99   13.17
  20  -6 -10   58.26    7.47
  14 -20   7  136.95   18.89
  20  -6  -7  120.46   11.60
  20  -6  -4    6.55    4.98
  14 -20   4    4.27    8.64
 -20   6   1   -0.30    3.52
  20  -6  -1    4.89    5.37
  14 -20   1   -7.30    8.38
  20  -6   2   12.73    6.72
  20  -6   5   13.34    6.88
  20  -6   8   12.40    7.32
  20  -6  11   19.12    9.07
  20  -6  14   11.20    8.03
  20  -6  17    8.43    8.55
  -6 -14  20   -0.20    3.37
  20  -6  20   10.97    7.77
  20  -6  23   29.29   11.49
  15 -20  20    8.69    8.20
  15 -20  17   13.84    8.45
  15 -20  14   16.75    9.61
  15 -20  11   10.76    8.09
  15 -20   8   11.11    8.59
  20  -5  -8   19.86    5.43
  20  -5  -5   31.81    6.83
  15 -20   5   34.72   10.66
  20  -5  -2   43.57    8.43
 -20   5   2   37.91    7.89
  15 -20   2   34.56   11.81
  20  -5   1   30.21    8.46
  15 -20  -1   20.73    9.86
 -20   5  -1   25.33    6.96
  20  -5   4   12.06    7.14
  20  -5   7   20.82    8.31
  20  -5  10    4.44    7.10
  20  -5  13    7.32    7.79
  20  -5  16    6.02    7.81
  20  -5  19   20.98   10.01
  -5 -15  19   12.31    6.44
  20  -5  22    9.24    9.03
  -5 -15  22    7.57    5.12
  16 -20  21    0.30    8.06
  16 -20  18    1.07    5.76
  16 -20  15  -13.37    9.25
  16 -20  12    4.78    7.67
  20  -4  -9   59.89    7.06
  16 -20   9   59.06   13.25
  16 -20   6   22.68   10.51
  20  -4  -6   26.23    6.19
  16 -20   3   15.00    8.97
 -20   4   3    7.06    4.12
  20  -4  -3    6.46    4.79
  20  -4   0   27.06    7.56
 -20   4   0   26.88    6.51
  16 -20   0    6.82    7.35
  20  -4   3    8.45    6.44
  16 -20  -3    9.06    8.29
  20  -4   6   13.46    7.60
  20  -4   9   26.85    9.31
  20  -4  12   17.34    8.36
  20  -4  15   16.34    9.05
  20  -4  18    4.75    6.38
  -4 -16  18   -2.48    4.70
  20  -4  21    7.39    7.80
  -4 -16  21   -2.74    4.16
  17 -20  19   -5.80    7.58
  17 -20  16   -6.77    7.91
  17 -20  13   25.44   10.71
  17 -20  10   18.84   10.14
  17 -20   7   19.02    9.77
  20  -3  -7   14.43    4.63
  17 -20   4    1.50    6.19
  20  -3  -4    3.22    4.01
  17 -20   1   15.06    7.66
  20  -3  -1   21.35    7.19
  17 -20  -2   19.66    8.24
  20  -3   2   27.05    7.66
  17 -20  -5   16.83    8.94
  20  -3   5   28.65    8.38
  17 -20  -8    0.82    6.80
  20  -3   8    0.01    5.86
  20  -3  11    3.51    6.40
  20  -3  14   -2.13    5.96
  20  -3  17   19.19    9.77
  -3 -17  20   46.08   10.30
  20  -3  20   35.06   11.80
  18 -20  17   -4.45    6.78
  18 -20  14   -1.43    6.77
  18 -20  11    6.35    8.49
  18 -20   8   13.54    9.15
  18 -20   5    5.22    7.24
  20  -2  -2    3.71    4.22
  18 -20   2    0.82    6.87
  18 -20  -1   -2.35    5.59
  20  -2   1    2.78    4.57
  18 -20  -4    0.47    5.81
  20  -2   4   -2.18    5.20
  18 -20  -7   20.11    9.24
  20  -2   7   17.07    7.51
  18 -20 -10    1.96    6.40
  20  -2  10    3.24    6.59
  20  -2  13    7.28    7.93
  20  -2  16   -4.09    6.97
  19 -20  15   -0.34    6.70
  19 -20  12    0.13    6.19
  19 -20   9    6.75    6.54
  19 -20   6   31.23   11.30
  19 -20   3   57.04   13.87
  20  -1   0   49.88    9.23
  19 -20   0   63.13   14.04
  19 -20  -3   28.86   10.28
  20  -1   3   36.48    8.32
  19 -20  -6   19.48    8.73
  20  -1   6   19.46    8.17
  19 -20  -9    9.65    6.96
  20  -1   9   13.94    7.95
  19 -20 -12   13.92    7.32
  20  -1  12    2.49    5.88
  20  -1  15   19.65    9.46
  19 -20 -15   20.24    8.82
  20 -20  13   -1.39    8.30
  20 -20  10   -3.42    7.65
  20 -20   7    6.87    8.89
  20 -20   4    7.47    7.58
  20 -20   1   -5.07    7.24
  20 -20  -2    1.40    5.72
  20   0   5  -21.45    7.71
  20 -20  -5    5.13    6.75
  20 -20  -8   -3.60    6.39
  20   0   8   -4.64    6.00
  20 -20 -11    0.38    5.21
  20   0  11   -2.61    5.41
  21 -20  -7    0.02    5.62
  21 -20  -4   -5.50    7.21
  21 -20  -1    5.54    7.16
  21 -20   2   25.72   10.57
  21 -20   5   34.58   11.03
  21 -20   8   20.26   10.08
  21 -19 -11    6.61    5.94
  21 -19  -8    1.96    5.22
  21 -19  -5    8.83    6.99
  21 -19  -2   12.11    7.36
  21 -19   1    4.96    6.70
  21 -19   4   11.54    8.96
  21 -19   7    6.39    6.47
  21 -19  10   -1.19    7.49
  21 -19  13   -7.40    9.39
  21 -18 -15    2.82    4.45
   3 -21  15    7.23    7.63
  21 -18 -12   12.48    6.69
  21 -18  -9    3.86    5.55
  21 -18  -6    0.79    5.25
  21 -18  -3   -0.77    4.87
  21 -18   0   11.22    7.11
  21 -18   3   15.49    7.32
  21 -18   6   13.61    8.39
  21 -18   9    3.11    7.33
  21 -18  12   -7.19    8.42
  21 -18  15    2.12    6.00
   4 -21  16   18.68    8.78
  21 -17 -16    9.66    5.67
  21 -17 -13   32.27    9.13
  21 -17 -10    2.22    5.21
  21 -17  -7    7.04    6.36
  21 -17  -4   11.86    7.29
  21 -17  -1   19.24    7.92
  21 -17   2   -1.24    6.35
  21 -17   5   -0.84    6.49
  21 -17   8   17.20    7.83
  21 -17  11    5.90    7.06
  21 -17  14   34.22   10.95
  21 -17  17   23.58    9.54
   5 -21  17   14.91    9.26
  21 -16 -17    3.70    4.62
  21 -16 -14    3.39    4.86
   5 -21  14   -1.48    6.42
  21 -16 -11   -2.15    5.28
  21 -16  -8   25.07    8.10
  21 -16  -5   -0.25    5.18
  21 -16  -2   -0.88    5.53
  21 -16   1    8.06    5.99
  21 -16   4   32.73    9.76
  21 -16   7   -0.24    6.03
  21 -16  10   25.55   10.20
  21 -16  13   24.87    9.90
  21 -16  16    4.53    6.67
  21 -16  19    8.46    8.67
  21 -15 -18    2.97    4.67
   6 -21  18    8.77    8.22
  21 -15 -15    6.81    5.14
   6 -21  15    5.74    7.09
  21 -15 -12    3.70    4.77
  21 -15  -9    0.90    4.58
  21 -15  -6    1.23    4.90
  21 -15  -3    0.37    5.09
  21 -15   0   -3.32    6.45
  21 -15   3   36.77   10.38
  21 -15   6   12.44    7.57
  21 -15   9   -4.15    5.40
  21 -15  12    0.30    6.43
  21 -15  15    3.86    7.90
  21 -15  18   30.47   10.18
   7 -21  19    2.81    5.59
  21 -14 -16   -1.88    3.95
   7 -21  16    4.83    7.61
   7 -21  13    6.33    6.65
  21 -14 -13    1.59    4.46
  21 -14 -10    3.57    4.65
  21 -14  -7   -0.16    4.66
  21 -14  -4    9.30    5.89
  21 -14  -1   11.28    6.55
  21 -14   2   59.24   11.57
  21 -14   5  107.43   15.58
  21 -14   8   36.24   10.05
  21 -14  11    9.97    6.80
  21 -14  14   30.80   10.85
  21 -14  17   39.93   11.63
  21 -14  20   47.29   12.52
   8 -21  20   26.28    9.11
   8 -21  17   29.76   10.74
   8 -21  14   17.29    9.37
  21 -13 -14   19.58    6.13
   8 -21  11   30.16    9.63
  21 -13 -11   23.52    6.85
  21 -13  -8    7.91    5.22
  21 -13  -5    0.91    4.70
  21 -13  -2   10.91    5.97
  21 -13   1   16.55    7.46
  21 -13   4    5.92    6.88
 -13  -8   4   -1.89    3.62
  21 -13   7    5.79    7.18
  21 -13  10    7.00    7.55
  21 -13  13   20.93    9.62
  21 -13  16   21.10    9.55
  21 -13  19    0.95    7.39
   9 -21  21   -9.35    8.22
   9 -21  18   10.89    8.77
  21 -12 -15    4.82    3.69
   9 -21  15   12.27    8.24
  21 -12 -12   16.64    5.86
   9 -21  12   22.50    9.36
  21 -12  -9    1.86    3.98
  21 -12  -6    4.87    5.07
  21 -12  -3    9.63    5.93
  21 -12   0   23.46    8.25
 -12  -9   3   15.30    5.98
  21 -12   3   17.35    7.85
 -12  -9   6   13.34    5.48
  21 -12   6    8.04    6.56
  21 -12   9    5.30    7.09
  21 -12  12   16.88    8.81
  21 -12  15  -11.61   10.33
  21 -12  18  -12.77    9.70
  21 -12  21  -13.30    9.31
  10 -21  22    1.81    6.15
  10 -21  19    5.84    6.70
  10 -21  16    3.05    5.42
  10 -21  13    0.76    5.71
  21 -11 -13   -0.42    3.45
  10 -21  10    8.21    7.24
  21 -11 -10    4.49    4.33
  21 -11  -7    4.53    4.45
  21 -11  -4    3.34    4.88
  21 -11  -1   21.56    7.37
  21 -11   2  211.65   19.31
 -11 -10   5   79.80   11.34
  21 -11   5   64.80   12.07
  21 -11   8  -15.08    8.45
  21 -11  11   -4.01    8.58
  21 -11  14   -8.99    8.35
  21 -11  17  -10.02    8.71
  21 -11  20   -6.46    8.71
  11 -21  20   -5.52    7.67
  11 -21  17   18.10    9.43
  11 -21  14    2.13    5.91
  11 -21  11    0.63    6.30
  21 -10 -11    7.20    4.15
  21 -10  -8   65.54    9.81
  11 -21   8   62.29   14.36
  21 -10  -5    6.24    4.70
  21 -10  -2    0.64    4.94
  21 -10   1   30.18    8.41
  21 -10   4    8.67    6.42
  21 -10   7  -13.46    9.09
  21 -10  10  -11.37    8.00
  21 -10  13    7.54    6.94
  21 -10  16   -0.88    7.53
  21 -10  19  -13.27    8.40
  21 -10  22    2.06    7.99
  12 -21  21    9.16    8.51
  12 -21  18   -5.40    7.73
  12 -21  15   12.94    7.73
  12 -21  12    9.97    7.39
  21  -9 -12    9.56    4.14
  12 -21   9   12.44    9.88
  21  -9  -9   -0.06    4.22
  12 -21   6   53.08   13.87
  21  -9  -6   29.90    7.17
  21  -9  -3   29.97    7.76
  21  -9   0   -0.95    5.89
  21  -9   3   10.50    6.63
  21  -9   6   -4.47    7.03
  21  -9   9   -7.87    8.18
  21  -9  12   -0.85    6.99
  21  -9  15   -2.31    6.41
  21  -9  18    9.42    8.61
  21  -9  21   11.69    8.52
  13 -21  19   -6.14    7.64
  13 -21  16   -4.46    6.61
  13 -21  13   -7.59    8.47
  21  -8 -10   18.44    5.15
  13 -21  10   24.32   11.07
  13 -21   7   24.01    9.21
  21  -8  -7   28.42    6.92
  13 -21   4  -11.73    9.70
  21  -8  -4    1.34    4.75
  21  -8  -1    3.24    5.12
  21  -8   2   13.37    6.35
  21  -8   5    9.80    6.79
  21  -8   8    5.87    6.28
  21  -8  11   19.74    8.08
  21  -8  14  122.06   17.09
  21  -8  17   85.44   15.35
  21  -8  20   74.59   15.09
  14 -21  20   17.27   10.22
  14 -21  17    0.25    5.41
  14 -21  14  -11.44    9.66
  14 -21  11    3.54    7.26
  21  -7  -8   17.80    6.01
  14 -21   8   13.03    8.25
  21  -7  -5    8.81    5.50
  14 -21   5   10.28    7.60
  14 -21   2   -3.89    8.02
  21  -7  -2    9.37    5.71
  21  -7   1    0.32    4.94
  21  -7   4   13.44    7.15
  21  -7   7   10.05    6.35
  21  -7  10   15.43    7.98
  21  -7  13   20.78    9.53
  21  -7  16   20.34   10.18
  -7 -14  19    8.20    4.91
  21  -7  19    6.40    8.54
  15 -21  18   19.44    9.03
  15 -21  15    7.22    7.85
  15 -21  12   10.36    7.53
  21  -6  -9   25.23    6.10
  15 -21   9   26.38   11.20
  21  -6  -6    9.68    5.49
  15 -21   6   -1.34    6.84
  21  -6  -3    6.85    5.22
  15 -21   3    0.36    5.79
  21  -6   0   13.75    7.03
  15 -21   0   -3.57    7.13
  21  -6   3   15.51    7.49
  21  -6   6    8.41    6.56
  21  -6   9   11.46    8.07
  21  -6  12    8.85    8.07
  21  -6  15   11.71    8.84
  21  -6  18    6.27    7.64
  16 -21  16   17.86   10.06
  16 -21  13    9.73    9.22
  16 -21  10    9.26    7.44
  16 -21   7    4.60    7.07
  21  -5  -7   -0.26    3.67
  21  -5  -4   17.28    5.92
  16 -21   4   11.51    9.30
  21  -5  -1    3.22    5.36
  16 -21   1   14.11    9.52
  21  -5   2   38.96    9.11
  16 -21  -2   27.84   10.45
  21  -5   5   13.35    7.28
  21  -5   8   15.98    8.18
  21  -5  11   19.90    8.62
  21  -5  14   60.20   12.82
  21  -5  17   28.03   10.39
  17 -21  17   -8.51    8.73
  17 -21  14   11.12    9.42
  17 -21  11   17.92    9.82
  17 -21   8   23.93    9.82
  17 -21   5   11.82    7.59
  21  -4  -5   17.97    5.43
  17 -21   2    7.36    6.32
  21  -4  -2    4.37    4.84
  17 -21  -1    4.59    6.13
  21  -4   1   10.13    5.96
  21  -4   4    6.00    5.86
  17 -21  -4   -1.52    7.60
  21  -4   7    5.64    6.60
  17 -21  -7    0.02    7.19
  21  -4  10   12.53    8.08
  21  -4  13   19.92    9.60
  21  -4  16   17.86    9.52
  18 -21  15    3.92    7.42
  18 -21  12    7.64    8.22
  18 -21   9   24.89    9.96
  18 -21   6   10.45    8.49
  21  -3  -3   -2.52    3.99
  18 -21   3   -2.14    6.97
  18 -21   0   16.07    9.46
  21  -3   0   14.41    6.13
  18 -21  -3    7.99    7.12
  21  -3   3   16.25    6.81
  18 -21  -6   -4.93    6.49
  21  -3   6    3.64    5.97
  18 -21  -9   -8.32    7.05
  21  -3   9    5.75    6.72
  21  -3  12    0.02    6.15
  21  -3  15    5.52    7.06
  19 -21  13   -6.13    7.48
  19 -21  10   10.10    9.02
  19 -21   7   13.73    9.29
  19 -21   4   28.49   10.06
  21  -2  -1   26.81    7.11
  19 -21   1   31.72   11.07
  19 -21  -2   41.31   12.59
  21  -2   2   48.79    9.71
  19 -21  -5   17.81    8.66
  21  -2   5   20.73    7.95
  19 -21  -8   33.98   11.24
  21  -2   8   29.74    9.21
  19 -21 -11   28.72   10.27
  21  -2  11   30.88    9.83
  20 -21   8   19.43    9.46
  20 -21   5   19.09    9.69
  20 -21   2   13.78    8.06
  21  -1   1   -2.49    6.07
  20 -21  -1    1.03    6.19
  20 -21  -4    3.11    5.46
  21  -1   4    5.79    5.44
  20 -21  -7   -6.50    7.20
  21  -1   7    2.98    5.60
  21 -21   0    7.65    7.62
  22 -19  -7   11.46    7.63
  22 -19  -4    6.44    6.55
  22 -19  -1    6.23    6.45
  22 -19   2    4.35    6.57
  22 -19   5   12.97    7.91
  22 -19   8    0.11    6.64
  22 -18 -11   -0.59    5.39
  22 -18  -8    6.25    6.11
  22 -18  -5    7.10    6.02
  22 -18  -2    5.89    5.53
  22 -18   1   18.62    8.43
  22 -18   4   40.84   11.48
  22 -18   7    9.34    6.44
  22 -18  10   -8.76    7.67
  22 -17 -12    3.71    5.26
  22 -17  -9    2.55    5.37
  22 -17  -6   -4.40    6.17
  22 -17  -3    9.86    6.51
  22 -17   0   -2.70    5.62
  22 -17   3   15.25    8.31
  22 -17   6    7.56    7.34
  22 -17   9   18.29    9.30
  22 -17  12    6.83    6.92
   6 -22  13    2.70    7.17
  22 -16 -13   -2.60    5.44
  22 -16 -10    1.28    4.64
  22 -16  -7   -5.25    5.86
  22 -16  -4   10.19    5.93
  22 -16  -1    1.16    5.50
  22 -16   2   -1.73    5.42
  22 -16   5   -3.45    6.39
  22 -16   8   17.09    9.27
  22 -16  11   36.00   11.51
  22 -16  14    0.12    6.69
  22 -15 -14    8.15    5.04
   7 -22  14   -1.51    8.11
  22 -15 -11   -2.75    5.10
  22 -15  -8    7.73    5.90
  22 -15  -5   12.23    6.33
  22 -15  -2    5.07    5.54
  22 -15   1    2.18    5.57
  22 -15   4    9.88    7.04
  22 -15   7   -2.07    6.10
  22 -15  10   15.43    8.48
  22 -15  13    3.76    7.04
  22 -15  16    2.09    6.52
   8 -22  15   -3.03    6.56
  22 -14 -15    9.15    4.92
  22 -14 -12    0.41    3.54
   8 -22  12   -4.47    7.87
  22 -14  -9   19.68    6.65
  22 -14  -6   67.54   11.70
  22 -14  -3   84.87   13.02
  22 -14   0   17.05    7.83
  22 -14   3   29.08    9.23
  22 -14   6   64.37   12.98
  22 -14   9    6.84    7.22
  22 -14  12   29.19   10.43
  22 -14  15   16.42    8.57
   9 -22  16    5.24    6.82
  22 -13 -13    2.86    4.11
   9 -22  13   -0.16    5.47
  22 -13 -10    1.05    4.03
   9 -22  10    4.41    6.56
  22 -13  -7   25.14    7.38
  22 -13  -4   -1.30    5.02
  22 -13  -1   23.43    7.89
  22 -13   2    7.11    6.53
  22 -13   5   -4.93    5.99
  22 -13   8    6.78    6.42
  22 -13  11    8.88    7.68
  22 -13  14   -0.86    6.95
  22 -13  17    1.62    7.42
  10 -22  17    4.09    6.53
  10 -22  14   -2.17    7.58
  10 -22  11  -10.09    7.87
  22 -12 -11    4.06    4.19
  10 -22   8   -7.93    9.10
  22 -12  -8    4.46    4.92
  22 -12  -5    7.41    5.44
  22 -12  -2   14.75    6.73
  22 -12   1    4.73    5.71
  22 -12   4   56.58   12.17
  22 -12   7    4.51    6.69
  22 -12  10  -13.40    9.52
  22 -12  13   -3.40    7.89
  22 -12  16  -12.00   10.68
  11 -22  18    0.28    7.17
  11 -22  15   -7.44    8.76
  22 -11 -12    2.41    3.54
  11 -22  12    2.11    6.09
  11 -22   9   -0.76    6.45
  22 -11  -9    6.62    4.97
  22 -11  -6    4.66    4.85
  22 -11  -3   42.87    8.98
  22 -11   0    3.41    5.02
  22 -11   3  -20.11    8.50
  22 -11   6   15.76    7.80
  22 -11   9   -2.45    7.54
  22 -11  12    1.62    7.06
  22 -11  15   -5.38    7.24
  22 -11  18  -13.38    9.09
  12 -22  16  -15.42    9.62
  12 -22  13   -0.86    7.33
  12 -22  10   -2.05    6.53
  22 -10 -10   -4.12    4.81
  12 -22   7   12.21   10.00
  22 -10  -7    2.37    4.13
  22 -10  -4   -4.51    5.54
  22 -10  -1   -6.91    6.66
  22 -10   2   49.71   10.47
  22 -10   5   -5.81    7.02
  22 -10   8    4.66    6.10
  22 -10  11   -3.81    7.71
  22 -10  14   16.43    9.42
  22 -10  17    5.76    6.97
  13 -22  17    2.52    7.89
  13 -22  14    7.60    8.47
  13 -22  11   13.18    9.12
  13 -22   8   44.99   13.20
  22  -9  -8   29.40    6.92
  22  -9  -5   55.51    9.42
  13 -22   5   55.50   14.26
  22  -9  -2    4.97    5.33
  22  -9   1   -3.04    5.59
  22  -9   4   16.57    7.12
  22  -9   7   20.07    8.13
  22  -9  10    9.69    7.38
  22  -9  13   19.20    9.35
  22  -9  16   10.09    7.93
  14 -22  15    2.42    6.68
  14 -22  12    7.68    8.06
  14 -22   9   79.90   15.83
  14 -22   6   45.60   12.99
  22  -8  -6   44.15    8.30
  22  -8  -3    0.53    5.08
  14 -22   3   -2.72    7.38
  22  -8   0    4.68    5.44
  22  -8   3    3.70    6.17
  22  -8   6   -1.00    5.53
  22  -8   9    2.54    6.38
  22  -8  12   11.12    8.41
  22  -8  15   35.56   11.64
  15 -22  16  -11.86    8.87
  15 -22  13   -5.60    8.74
  15 -22  10    6.32    8.01
  22  -7  -7   17.47    5.75
  15 -22   7   -0.98    7.68
  22  -7  -4   23.56    7.35
  15 -22   4   11.01    8.13
  22  -7  -1   29.45    8.21
  15 -22   1   16.12    9.33
  22  -7   2    2.44    5.85
  22  -7   5   27.53    8.87
  22  -7   8   42.60   10.54
  22  -7  11   33.89   10.60
  22  -7  14   23.91    9.71
  16 -22  14    3.67    8.08
  16 -22  11   18.01    9.76
  16 -22   8   17.59    8.13
  22  -6  -5    2.73    4.52
  16 -22   5   -9.14    9.35
  22  -6  -2    9.76    5.74
  16 -22   2    5.21    7.63
  22  -6   1    9.24    7.18
  16 -22  -1    6.15    7.52
  22  -6   4   12.56    6.53
  22  -6   7    2.92    6.67
  22  -6  10    7.54    6.91
  22  -6  13   17.63    8.58
  17 -22  12   -1.36    6.52
  17 -22   9    2.68    6.91
  17 -22   6   -5.54    6.59
  17 -22   3   -0.95    5.76
  22  -5  -3    5.21    4.66
  22  -5   0   13.33    6.04
  17 -22   0    6.53    6.71
  22  -5   3   -1.54    5.28
  17 -22  -3  -12.55    8.66
  22  -5   6    3.48    5.71
  17 -22  -6   -6.65    7.28
  22  -5   9    9.99    7.40
  22  -5  12    2.37    7.53
  18 -22  10   36.47   12.15
  18 -22   7   36.33   12.46
  18 -22   4   -5.50    7.70
  18 -22   1   -3.94    7.45
  22  -4  -1   -1.42    4.43
  18 -22  -2    6.76    5.66
  22  -4   2   16.75    6.58
  18 -22  -5   13.34    8.00
  22  -4   5   18.22    7.67
  18 -22  -8    3.57    6.55
  22  -4   8   -0.14    5.62
  22  -4  11   11.22    8.37
  19 -22   8    2.94    6.99
  19 -22   5    8.04    8.15
  19 -22   2   10.17    7.17
  19 -22  -1    9.54    8.21
  22  -3   1   10.96    6.22
  19 -22  -4    7.62    7.17
  22  -3   4   23.82    8.32
  19 -22  -7   -5.24    7.35
  22  -3   7    5.32    6.31
  23 -18  -1   -8.16    7.80
  23 -18   2   13.05    8.04
  23 -17  -8    2.54    4.75
  23 -17  -5   -4.55    5.81
  23 -17  -2   -5.89    5.50
  23 -17   1    4.82    5.43
  23 -17   4   12.55    7.88
  23 -17   7    9.17    6.85
  23 -16  -9    3.94    4.94
  23 -16  -6    4.20    5.00
  23 -16  -3   -0.62    5.11
  23 -16   0   10.54    6.55
  23 -16   3   -9.60    6.64
  23 -16   6   -0.30    5.04
  23 -16   9   -0.14    5.26
  23 -15 -10   -4.41    5.32
  23 -15  -7   -4.72    5.50
  23 -15  -4   18.64    7.42
  23 -15  -1   21.23    7.75
  23 -15   2   -5.89    6.18
  23 -15   5    2.86    5.40
  23 -15   8   -1.64    5.21
  23 -15  11    7.32    6.29
  23 -14 -11   10.24    5.36
   9 -23  11   28.41   11.15
  23 -14  -8   28.95    7.94
  23 -14  -5   40.88    9.50
  23 -14  -2   40.55    9.91
  23 -14   1   18.31    7.22
  23 -14   4   29.58    9.60
  23 -14   7    5.16    5.92
  23 -14  10   -3.83    5.90
  23 -14  13    5.72    7.18
  10 -23  12    7.24    6.53
  10 -23   9   27.45   11.23
  23 -13  -9   19.80    6.97
  23 -13  -6   26.84    7.82
  23 -13  -3   16.46    6.91
  23 -13   0   10.14    6.15
  23 -13   3    9.99    6.74
  23 -13   6    7.41    6.95
  23 -13   9    9.10    7.52
  23 -13  12   -9.02    8.61
  11 -23  13    1.22    6.42
  11 -23  10   -0.14    6.36
  23 -12 -10    4.84    4.20
  11 -23   7   20.17   11.38
  23 -12  -7   14.25    5.98
  23 -12  -4   51.61   10.55
  23 -12  -1   34.21    9.00
  23 -12   2   -7.17    6.16
  23 -12   5   -6.96    7.46
  23 -12   8  -11.41    8.00
  23 -12  11    1.36    6.79
  23 -12  14    9.47    6.79
  12 -23  14   -3.63    7.67
  12 -23  11    9.73    7.35
  12 -23   8    8.30    9.15
  23 -11  -8   -4.94    4.92
  23 -11  -5   -8.09    5.80
  12 -23   5   13.89    8.49
  23 -11  -2    8.49    5.60
  23 -11   1   26.22    8.28
  23 -11   4   94.26   14.26
  23 -11   7   31.51    9.60
  23 -11  10   -9.69    8.15
  23 -11  13   -7.78    8.39
  13 -23  12   20.51    9.53
  13 -23   9    3.34    7.61
  13 -23   6    1.81    6.28
  23 -10  -6    0.02    5.06
  23 -10  -3   -2.55    4.62
  23 -10   0  -10.02    6.76
  23 -10   3   -0.88    5.90
  23 -10   6   -3.67    6.74
  23 -10   9   -8.79    7.42
  23 -10  12   -7.44    8.21
  14 -23  13    3.83    7.08
  14 -23  10    5.84    7.48
  14 -23   7    0.19    6.09
  23  -9  -4    2.69    4.32
  14 -23   4    5.10    7.68
  23  -9  -1   -2.68    4.94
  23  -9   2    2.04    5.10
  23  -9   5   27.32    8.85
  23  -9   8   22.93    8.73
  23  -9  11   22.87    9.32
  15 -23  11    5.65    7.00
  15 -23   8   15.54    9.02
  15 -23   5   -7.35    6.39
  23  -8  -5    2.80    4.26
  23  -8  -2   12.06    5.92
  15 -23   2    0.05    6.47
  23  -8   1   19.05    7.32
  23  -8   4    7.93    6.75
  23  -8   7    4.98    6.60
  23  -8  10   -0.61    5.97
  16 -23   9    0.60    6.71
  16 -23   6   -4.25    6.12
  16 -23   3   11.94    8.17
  23  -7  -3   18.78    6.75
  23  -7   0   19.49    7.08
  16 -23   0    6.94    7.15
  23  -7   3    6.62    6.35
  16 -23  -3   13.73    9.43
  23  -7   6   16.66    7.55
  23  -7   9   32.91   10.49
  17 -23   7   -5.62    7.96
  17 -23   4    2.07    6.83
  23  -6  -1   -1.09    4.78
  17 -23   1   -1.58    7.62
  23  -6   2    4.78    6.11
  17 -23  -2   -2.10    7.38
  23  -6   5   -2.38    5.10
  17 -23  -5    4.77    6.80
  23  -6   8    9.11    6.98
  18 -23   2   -9.90    9.14
  18 -23  -1    2.61    5.61
  23  -5   1    7.01    5.94
  23  -5   4   10.46    6.40
  24 -15   0   43.87   10.76
  24 -14  -4    2.10    4.66
  24 -14  -1    3.37    4.93
  24 -14   2    8.57    6.33
  24 -14   5   12.30    7.34
  24 -13  -5   -0.18    3.84
  24 -13  -2    5.82    5.63
  24 -13   1   13.06    6.38
  24 -13   4   -6.11    7.75
  24 -12  -6    7.76    5.07
  12 -24   6   15.57    8.74
  24 -12  -3   17.78    6.96
  24 -12   0   63.04   11.83
  24 -12   3  133.38   17.54
  24 -12   6   65.97   13.39
  24 -11  -4   -1.82    5.16
  13 -24   4    0.25    7.43
  24 -11  -1    2.88    4.93
  24 -11   2   30.59    9.36
  24 -11   5    1.82    5.93
  14 -24   2    7.06    9.03
  24 -10  -2   -3.12    5.55
  24 -10   1    9.13    6.28
  24 -10   4   14.40    7.82
  24  -9   0   23.44    7.89
  15 -24   0   29.56   13.03
   0   0   0    0.00    0.00


TITL AGR602e in R-3
REM R-3 (#148 in standard setting)
CELL 0.71073  20.636770  20.636770  37.744182  90.0000  90.0000 120.0000
ZERR    4.00   0.001196   0.001196   0.002143   0.0000   0.0000   0.0000
LATT  3
SYMM -y, x-y, z
SYMM -x+y,-x, z
SFAC C H N Mg P
UNIT 648.00 272.00 72.00 12.00 8.00
TREF
HKLF 4
END
_computing_structure_solution     'SHELXT 2018/2 (Sheldrick, 2018)'
;
_shelx_hkl_checksum              58812
_shelx_fab_file
;
0 0 6 -21.3446 -0.0548
0 0 9 150.9129 0.0995
0 0 12 -105.3766 0.0884
0 0 15 18.7822 0.0843
0 0 18 29.7037 0.1234
0 0 21 -46.7076 0.0899
0 0 24 14.4807 0.1351
0 0 27 18.0008 0.1419
0 0 30 -5.7702 0.1036
0 0 33 -4.6588 0.0316
0 0 36 4.3583 -0.0051
0 0 39 -1.5838 0.0402
0 0 42 7.3267 0.0226
0 1 -43 -4.5691 0.0217
0 1 -40 0.0975 0.0347
0 1 -37 6.9976 -0.0023
0 1 -34 -1.0572 -0.0289
0 1 -31 3.0979 -0.0750
0 1 -28 -6.6419 -0.0610
0 1 -25 -10.6016 -0.0663
0 1 -22 35.1002 -0.0415
0 1 -19 -31.3531 -0.1281
0 1 -16 3.3704 -0.0953
0 1 -13 -3.0326 -0.0751
0 1 -10 4.5300 -0.0214
0 1 -7 -3.7244 0.0142
0 1 2 110.5702 -0.0726
0 1 5 -41.5267 -0.0802
0 1 8 -19.0264 -0.0392
0 1 11 17.0002 0.0772
0 1 14 -18.5986 0.0764
0 1 17 0.7335 0.0376
0 1 20 1.9291 0.0624
0 1 23 -11.3232 0.0942
0 1 26 9.8049 0.0850
0 1 29 0.9233 0.0275
0 1 32 -11.3443 0.0215
0 1 35 10.7324 0.0079
0 1 38 1.2328 0.0156
0 1 41 -2.3210 0.0060
0 1 44 -3.1870 -0.0211
0 2 -44 -1.4571 -0.0492
0 2 -41 0.1448 0.0114
0 2 -38 3.9690 0.0180
0 2 -35 -1.1602 0.0093
0 2 -32 -3.2823 0.0079
0 2 -29 -2.7431 0.0144
0 2 -26 7.1894 -0.0139
0 2 -23 -10.7439 -0.0165
0 2 -20 12.6863 -0.0191
0 2 -17 -2.6364 0.0401
0 2 -14 -20.4976 -0.0523
0 2 -11 6.7651 -0.1061
0 2 -8 78.7430 -0.0486
0 2 -5 -44.3757 0.0227
0 2 -2 72.7987 -0.0211
0 2 1 -94.9577 -0.0695
0 2 4 260.6177 0.0907
0 2 7 -137.1846 -0.0725
0 2 10 24.6268 -0.1080
0 2 13 11.4265 -0.0590
0 2 16 -32.1146 -0.0355
0 2 19 -8.5262 -0.0145
0 2 22 24.2513 -0.0383
0 2 25 -15.1791 -0.0114
0 2 28 -9.5372 -0.0065
0 2 31 5.4066 -0.0045
0 2 34 0.2704 0.0033
0 2 37 1.1209 0.0144
0 2 40 0.0552 0.0125
0 2 43 -0.1073 -0.0264
0 3 -42 2.8224 0.0105
0 3 -39 -2.8475 -0.0010
0 3 -36 -0.7200 0.0097
0 3 -33 0.0155 0.0110
0 3 -30 -1.7914 0.0170
0 3 -27 -4.5362 0.0173
0 3 -24 16.0430 0.0060
0 3 -21 -9.2039 -0.0091
0 3 -18 -4.0017 0.0317
0 3 -15 3.2118 -0.0608
0 3 -9 86.2709 -0.0428
0 3 -6 52.7662 -0.1105
0 3 -3 -123.1882 -0.0290
0 3 0 23.6917 -0.0531
0 3 6 20.0663 -0.1314
0 3 9 -13.4873 -0.1093
0 3 12 -6.9817 -0.0682
0 3 15 -17.4788 -0.0973
0 3 18 24.4173 -0.0530
0 3 21 -14.5691 -0.0301
0 3 24 -5.7399 -0.0090
0 3 27 4.7977 0.0124
0 3 30 -2.0204 0.0028
0 3 33 3.7314 0.0126
0 3 36 -1.7467 -0.0098
0 3 39 2.2600 0.0362
0 3 42 -0.6124 0.0406
0 4 -43 1.7986 0.0032
0 4 -40 -5.3342 -0.0383
0 4 -37 -2.3185 -0.0236
0 4 -34 2.4729 -0.0216
0 4 -31 1.7350 -0.0389
0 4 -28 1.0387 -0.0653
0 4 -25 -7.9276 -0.0722
0 4 -22 6.3001 -0.0723
0 4 -19 3.2058 -0.0642
0 4 -16 -8.2898 -0.0555
0 4 -13 16.0791 -0.0741
0 4 -10 -1.8993 -0.0500
0 4 -7 35.2658 -0.0390
0 4 -4 43.1667 -0.0172
0 4 -1 -124.4505 -0.0302
0 4 5 119.2612 -0.0020
0 4 8 -35.7366 -0.0310
0 4 11 -24.5190 -0.0410
0 4 14 26.1420 -0.0248
0 4 17 -6.0038 -0.0400
0 4 20 2.1444 -0.0333
0 4 23 -0.2658 -0.0149
0 4 26 -0.9642 -0.0243
0 4 29 2.8266 -0.0102
0 4 32 3.9592 -0.0444
0 4 35 -4.0351 -0.0449
0 4 38 3.7425 -0.0613
0 4 41 6.9296 -0.0619
0 5 -41 2.5618 -0.0610
0 5 -38 -6.2290 -0.0280
0 5 -35 6.3160 -0.0271
0 5 -32 0.1771 -0.0766
0 5 -29 -4.2663 -0.0939
0 5 -26 7.5616 -0.0811
0 5 -23 -4.8551 -0.0625
0 5 -20 -10.3514 -0.0727
0 5 -17 20.7444 -0.0211
0 5 -14 -18.3041 -0.0293
0 5 -11 -6.9720 -0.0289
0 5 -8 38.1680 -0.0146
0 5 -5 -17.1098 -0.0568
0 5 -2 7.1382 0.0344
0 5 1 0.7579 -0.0445
0 5 4 4.0504 0.0056
0 5 7 41.8533 -0.0307
0 5 10 -4.3407 -0.0390
0 5 13 -19.6877 -0.0567
0 5 16 13.3676 -0.1268
0 5 19 -2.5827 -0.0590
0 5 22 -3.5454 -0.0560
0 5 25 4.4722 -0.0358
0 5 28 -1.3870 -0.0400
0 5 31 -0.3438 -0.0525
0 5 34 0.0112 -0.0868
0 5 37 9.1481 -0.0478
0 5 40 -6.6631 -0.0093
0 5 43 11.6067 0.0179
0 6 -42 -10.3036 0.0176
0 6 -39 9.9041 0.0081
0 6 -36 4.5539 -0.0078
0 6 -33 -2.7601 0.0028
0 6 -30 8.0479 -0.0179
0 6 -27 -12.8165 -0.0198
0 6 -24 5.1774 -0.0319
0 6 -21 9.0841 -0.0098
0 6 -18 -25.5931 -0.0146
0 6 -15 14.7687 -0.0369
0 6 -12 2.6209 -0.0748
0 6 -9 -27.3673 -0.0865
0 6 -6 51.1087 -0.0852
0 6 -3 -11.9895 -0.0932
0 6 0 -22.4021 -0.0615
0 6 3 4.0028 -0.0676
0 6 6 5.3697 -0.0936
0 6 9 19.0377 -0.0718
0 6 12 -4.6941 -0.0866
0 6 15 -12.0073 -0.0271
0 6 18 3.0792 -0.0453
0 6 21 2.6732 -0.0231
0 6 24 -5.4914 -0.0004
0 6 27 8.5751 0.0305
0 6 30 -3.7610 0.0459
0 6 33 -6.2887 -0.0047
0 6 36 11.7799 0.0017
0 6 39 4.1583 0.0016
0 6 42 -17.5361 0.0027
0 7 -40 -1.0995 0.0130
0 7 -37 9.8291 0.0386
0 7 -34 -4.5903 0.0113
0 7 -31 -8.5902 -0.0458
0 7 -28 14.8818 -0.0182
0 7 -25 -3.3529 -0.0146
0 7 -22 -9.2369 -0.0276
0 7 -19 7.5012 -0.0475
0 7 -16 -11.6637 -0.0672
0 7 -13 2.9050 -0.0608
0 7 -10 3.5607 -0.0631
0 7 -7 -8.0006 -0.0792
0 7 -4 29.5992 -0.0376
0 7 -1 -9.6168 -0.0213
0 7 2 -56.0071 -0.0276
0 7 5 47.0056 -0.0246
0 7 8 -5.6058 -0.0169
0 7 11 -8.3760 0.0142
0 7 14 17.6809 -0.0035
0 7 17 -16.9109 0.0129
0 7 20 -0.1696 -0.0018
0 7 23 7.9390 -0.0026
0 7 26 2.2144 0.0044
0 7 29 0.2871 0.0214
0 7 32 3.5970 -0.0093
0 7 35 -2.9562 -0.0201
0 7 38 -2.7046 -0.0270
0 7 41 7.2258 -0.0400
0 8 -41 7.1242 -0.0558
0 8 -38 0.6195 -0.0035
0 8 -35 -4.1572 -0.0283
0 8 -32 3.4179 -0.0242
0 8 -29 -5.6190 -0.0321
0 8 -26 8.3125 -0.0064
0 8 -23 -0.7952 -0.0310
0 8 -20 -10.5212 -0.0073
0 8 -17 9.4857 0.0069
0 8 -14 -3.0788 -0.0019
0 8 -11 -15.9808 0.0114
0 8 -8 36.3226 0.0252
0 8 -5 -27.9261 0.0000
0 8 -2 -0.3550 0.0176
0 8 1 20.1599 0.0005
0 8 4 -26.7206 -0.0142
0 8 7 20.5101 -0.0341
0 8 10 15.6689 -0.0405
0 8 13 -46.8902 -0.0687
0 8 16 20.3971 -0.0624
0 8 19 0.6160 -0.0489
0 8 22 -9.2413 -0.0766
0 8 25 8.9228 -0.0787
0 8 28 -0.7034 -0.0601
0 8 31 1.2126 -0.0246
0 8 34 7.0120 -0.0394
0 8 37 3.2073 -0.0135
0 8 40 1.2749 -0.0416
0 9 -39 6.7871 0.0319
0 9 -36 1.4462 0.0052
0 9 -33 -0.7569 0.0006
0 9 -30 3.6875 -0.0081
0 9 -27 -8.3540 0.0094
0 9 -24 3.7649 -0.0252
0 9 -21 4.9043 0.0018
0 9 -18 -6.4725 -0.0175
0 9 -15 5.0761 -0.0226
0 9 -12 3.6187 -0.0153
0 9 -9 -11.9187 -0.0476
0 9 -6 -4.5057 -0.0572
0 9 -3 5.8034 -0.0734
0 9 0 0.1119 -0.0937
0 9 3 10.3749 -0.0836
0 9 6 -6.9450 -0.0677
0 9 9 16.0899 -0.0975
0 9 12 -26.3902 -0.0903
0 9 15 -2.1541 -0.0531
0 9 18 11.9727 -0.0251
0 9 21 -12.2572 -0.0499
0 9 24 -0.3920 -0.0306
0 9 27 -11.7705 0.0023
0 9 30 23.1768 -0.0036
0 9 33 -4.3191 -0.0161
0 9 36 4.4875 0.0060
0 9 39 8.9883 0.0338
0 10 -37 3.7568 -0.0360
0 10 -34 1.3706 -0.0292
0 10 -31 6.4876 -0.0117
0 10 -28 -1.8033 -0.0434
0 10 -25 -5.9098 -0.0422
0 10 -22 -3.3870 -0.0823
0 10 -19 8.6968 -0.0654
0 10 -16 -3.0336 -0.0784
0 10 -13 -4.9573 -0.0775
0 10 -10 -1.3532 -0.0631
0 10 -7 -14.3852 -0.0618
0 10 -4 13.7099 -0.0435
0 10 -1 1.0725 -0.0431
0 10 2 -14.5948 -0.0381
0 10 5 12.1974 -0.0358
0 10 8 0.7050 -0.0023
0 10 11 -0.4432 -0.0110
0 10 14 12.1092 -0.0031
0 10 17 -14.4949 0.0043
0 10 20 -3.1165 0.0136
0 10 23 8.2038 -0.0035
0 10 26 -14.4155 -0.0211
0 10 29 10.4159 -0.0005
0 10 32 5.0714 -0.0030
0 10 35 -9.5589 -0.0367
0 10 38 4.7896 -0.0717
0 11 -35 -7.3385 -0.0459
0 11 -32 10.0834 -0.0185
0 11 -29 -3.2577 -0.0209
0 11 -26 -4.4876 -0.0166
0 11 -23 2.5366 -0.0485
0 11 -20 -2.7707 -0.0175
0 11 -17 0.7717 -0.0254
0 11 -14 -7.4576 -0.0180
0 11 -11 4.5494 0.0154
0 11 -8 -7.4960 0.0041
0 11 -5 1.5401 0.0310
0 11 -2 3.8915 0.0220
0 11 1 -7.6047 -0.0152
0 11 4 3.3713 0.0003
0 11 7 -2.0930 -0.0394
0 11 10 3.5092 -0.0549
0 11 13 7.0634 -0.0612
0 11 16 0.5006 -0.0264
0 11 19 -6.3486 -0.0435
0 11 22 4.1387 -0.0799
0 11 25 0.3342 -0.0436
0 11 28 -2.0228 -0.0253
0 11 31 -4.1848 -0.0289
0 11 34 0.7677 -0.0398
0 11 37 -1.6942 -0.0343
0 12 -36 -3.0602 0.0279
0 12 -33 -3.1711 0.0392
0 12 -30 0.4747 0.0058
0 12 -27 4.1502 0.0063
0 12 -24 0.1193 0.0273
0 12 -21 -7.1238 0.0130
0 12 -18 6.5354 0.0092
0 12 -15 -1.4337 -0.0241
0 12 -12 -4.7178 -0.0372
0 12 -9 4.1051 -0.0474
0 12 -6 -3.1873 -0.0342
0 12 -3 -4.4124 -0.0333
0 12 0 1.9926 -0.0520
0 12 3 -5.9719 -0.0664
0 12 6 4.3320 -0.0654
0 12 9 1.9568 -0.0848
0 12 12 -0.9190 -0.0841
0 12 15 -4.5632 -0.0514
0 12 18 13.3039 -0.0264
0 12 21 -8.3643 0.0006
0 12 24 -6.0718 -0.0243
0 12 27 7.7167 -0.0166
0 12 30 -7.3358 0.0192
0 12 33 2.5363 0.0168
0 12 36 10.5978 0.0273
0 13 -34 0.2478 0.0023
0 13 -31 1.3432 -0.0213
0 13 -28 -1.5445 -0.0414
0 13 -25 2.2590 -0.0052
0 13 -22 -1.9194 -0.0371
0 13 -19 2.5610 -0.0357
0 13 -16 5.7449 -0.0542
0 13 -13 -7.4787 -0.0779
0 13 -10 1.2135 -0.0539
0 13 -7 2.1717 -0.0591
0 13 -4 -9.1303 -0.0221
0 13 -1 0.5873 -0.0062
0 13 2 9.4673 0.0030
0 13 5 -14.6942 0.0100
0 13 8 12.1113 -0.0134
0 13 11 -1.2338 -0.0140
0 13 14 2.1074 0.0038
0 13 17 -0.5903 0.0083
0 13 20 -8.9640 -0.0070
0 13 23 -1.5100 0.0049
0 13 26 5.6999 0.0048
0 13 29 -4.5894 -0.0146
0 13 32 2.8641 -0.0231
0 14 -32 -1.2469 -0.0862
0 14 -29 -1.0598 -0.0321
0 14 -26 -1.7209 -0.0074
0 14 -23 5.9334 -0.0183
0 14 -20 0.4072 -0.0093
0 14 -17 1.8557 -0.0113
0 14 -14 -7.7275 0.0124
0 14 -11 9.6150 0.0013
0 14 -8 -2.5054 -0.0042
0 14 -5 3.5159 0.0092
0 14 -2 -2.9534 0.0276
0 14 1 -4.2382 0.0306
0 14 4 5.4291 0.0095
0 14 7 -1.4069 -0.0023
0 14 10 2.3160 -0.0337
0 14 13 -0.6473 -0.0422
0 14 16 -9.1296 -0.0411
0 14 19 2.5076 -0.0483
0 14 22 -0.5090 -0.0512
0 14 25 -3.6106 -0.0288
0 14 28 0.2399 -0.0262
0 14 31 -0.7043 -0.0821
0 15 -30 0.3372 0.0468
0 15 -27 -4.1684 -0.0057
0 15 -24 -1.8911 0.0233
0 15 -21 8.8729 -0.0126
0 15 -18 2.1464 -0.0157
0 15 -15 -8.9941 -0.0297
0 15 -12 2.5220 -0.0282
0 15 -9 10.3592 -0.0381
0 15 -6 -8.6400 -0.0495
0 15 -3 3.1873 -0.0580
0 15 0 -5.5828 -0.0459
0 15 3 -2.2450 -0.0465
0 15 6 5.0636 -0.0427
0 15 9 -2.9441 -0.0566
0 15 12 -2.4040 -0.0400
0 15 15 -7.5618 -0.0273
0 15 18 3.9829 -0.0396
0 15 21 4.1714 -0.0288
0 15 24 -0.4466 -0.0044
0 15 27 -11.7607 -0.0146
0 15 30 9.5003 0.0282
0 16 -28 -2.1960 -0.0630
0 16 -25 3.0361 -0.0412
0 16 -22 -7.0320 -0.0644
0 16 -19 5.0882 -0.0700
0 16 -16 -0.9354 -0.0617
0 16 -13 -1.8475 -0.0350
0 16 -10 -3.5607 -0.0578
0 16 -7 1.2535 -0.0735
0 16 -4 0.3833 -0.0411
0 16 -1 -3.9595 -0.0105
0 16 2 -1.2533 -0.0117
0 16 5 2.9890 -0.0110
0 16 8 -2.5856 0.0113
0 16 11 -2.6840 0.0086
0 16 14 6.2939 0.0009
0 16 17 -6.3905 -0.0284
0 16 20 1.2854 0.0038
0 16 23 5.3612 -0.0015
0 16 26 -10.5214 -0.0046
0 17 -26 1.0847 -0.0008
0 17 -23 -1.7742 -0.0191
0 17 -20 -9.2127 -0.0290
0 17 -17 1.8480 -0.0148
0 17 -14 5.9165 0.0274
0 17 -11 -6.5348 0.0134
0 17 -8 1.0053 0.0018
0 17 -5 -1.2702 -0.0034
0 17 -2 0.1568 0.0028
0 17 1 5.5699 0.0156
0 17 4 -9.8999 -0.0089
0 17 7 1.1323 -0.0194
0 17 10 5.7175 -0.0294
0 17 13 2.9216 -0.0223
0 17 16 -7.9631 -0.0384
0 17 19 -6.8603 -0.0495
0 17 22 0.6118 -0.0273
0 17 25 6.7271 -0.0780
0 18 -21 -2.5426 0.0127
0 18 -18 -0.3032 -0.0059
0 18 -15 5.0682 0.0009
0 18 -12 -4.6723 -0.0171
0 18 -9 -2.8762 -0.0335
0 18 -6 4.9918 -0.0379
0 18 -3 -4.3204 -0.0505
0 18 0 -1.3784 -0.0517
0 18 3 -0.8073 -0.0609
0 18 6 -0.7637 -0.0434
0 18 9 4.5528 -0.0330
0 18 12 1.7175 -0.0082
0 18 15 -12.1337 -0.0238
0 18 18 -4.2645 -0.0163
0 18 21 7.5062 -0.0342
0 19 -19 -4.3521 -0.0775
0 19 -16 0.0246 -0.0642
0 19 -13 7.8332 -0.0377
0 19 -10 -13.4382 -0.0329
0 19 -7 1.6531 -0.0416
0 19 -4 4.0609 -0.0471
0 19 -1 -1.2214 -0.0085
0 19 2 -7.3816 -0.0120
0 19 5 10.5336 -0.0061
0 19 8 -5.1415 0.0005
0 19 11 -0.5469 -0.0028
0 19 14 1.0034 0.0211
0 19 17 -2.9190 0.0732
0 20 -11 1.4335 0.0410
0 20 -8 0.0832 0.0349
0 20 -5 0.5008 0.0233
0 20 -2 -1.7465 0.0195
0 20 1 -2.0006 -0.0060
0 20 4 2.5791 -0.0005
0 20 7 6.3887 0.0005
0 20 10 -6.6841 -0.0263
0 20 13 -7.9116 -0.0670
0 21 0 0.9568 -0.0966
1 1 -42 1.4129 0.0209
1 1 -39 0.9722 -0.0005
1 1 -36 -0.3888 0.0235
1 1 -33 3.6135 0.0049
1 1 -30 -9.1938 -0.0028
1 1 -27 2.4075 -0.0162
1 1 -24 3.3623 -0.0059
1 1 -21 -22.1040 0.0032
1 1 -18 18.8428 0.0344
1 1 -15 -5.4806 0.0163
1 1 -12 -62.6911 0.0200
1 1 -9 81.3706 0.0039
1 1 -6 27.3101 0.0256
1 1 -3 -197.0555 0.0333
1 1 0 379.3331 0.0169
1 1 3 -140.3309 -0.0757
1 1 6 -43.3122 0.0024
1 1 9 136.8851 0.0838
1 1 12 -45.0651 0.0699
1 1 15 -37.1925 0.0232
1 1 18 33.5234 -0.0098
1 1 21 -19.2237 0.0285
1 1 24 6.6414 0.0258
1 1 27 2.9013 0.0381
1 1 30 -4.2173 0.0137
1 1 33 1.8417 -0.0198
1 1 36 -2.2954 -0.0155
1 1 39 0.7800 0.0105
1 1 42 5.6283 0.0175
1 2 -43 -0.4519 -0.0135
1 2 -40 0.9126 0.0069
1 2 -37 2.5359 -0.0335
1 2 -34 -4.7526 -0.0207
1 2 -31 4.9254 -0.0102
1 2 -28 -6.5789 0.0198
1 2 -25 -11.1106 0.0306
1 2 -22 21.6750 0.0499
1 2 -19 -16.1986 0.0270
1 2 -16 -19.5147 0.0180
1 2 -13 49.1922 0.0556
1 2 -10 -53.9309 0.0514
1 2 -7 35.9563 -0.0068
1 2 -4 139.1666 -0.0031
1 2 -1 -160.5724 0.0185
1 2 5 98.3303 -0.0514
1 2 8 -87.9229 -0.0236
1 2 11 67.5327 -0.0275
1 2 14 -35.5220 -0.0480
1 2 17 -4.3725 -0.0303
1 2 20 9.7953 -0.0564
1 2 23 -7.3366 -0.0296
1 2 26 6.8465 -0.0178
1 2 29 1.0149 -0.0067
1 2 32 -2.5356 0.0033
1 2 35 0.4864 0.0246
1 2 38 1.4964 0.0165
1 2 41 3.1286 0.0130
1 2 44 -3.4858 0.0097
1 3 -41 8.4933 -0.0689
1 3 -38 -5.3123 -0.0102
1 3 -35 0.7336 0.0045
1 3 -32 -1.6860 -0.0041
1 3 -29 -1.3055 -0.0362
1 3 -26 8.1566 -0.0376
1 3 -23 -1.9830 -0.0263
1 3 -20 -2.0893 -0.0500
1 3 -17 -3.6608 -0.0195
1 3 -14 16.6501 -0.0498
1 3 -11 0.2096 -0.0468
1 3 -8 22.9826 -0.0101
1 3 -5 32.7728 -0.0145
1 3 -2 -22.5789 0.0079
1 3 1 -60.9089 -0.0798
1 3 4 192.0693 -0.0001
1 3 7 -87.7628 -0.0243
1 3 10 -13.4663 -0.0356
1 3 13 31.0035 -0.0181
1 3 16 -7.2702 -0.0236
1 3 19 -2.9074 0.0136
1 3 22 1.5773 0.0124
1 3 25 -0.2729 0.0138
1 3 28 4.1564 0.0165
1 3 31 2.0239 0.0051
1 3 34 3.2253 -0.0066
1 3 37 -5.8123 -0.0119
1 3 40 7.7977 0.0285
1 3 43 5.4491 0.0260
1 4 -42 -1.7886 0.0514
1 4 -39 3.1230 0.0153
1 4 -36 6.6530 -0.0188
1 4 -33 -7.5101 -0.0544
1 4 -30 12.2112 -0.0613
1 4 -27 -8.3643 -0.0797
1 4 -24 8.4203 -0.0883
1 4 -21 4.1197 -0.0793
1 4 -18 -15.0971 -0.0855
1 4 -15 20.5186 -0.0516
1 4 -12 6.4527 -0.0319
1 4 -9 -30.2148 -0.0387
1 4 -6 71.9124 -0.0292
1 4 -3 -98.9928 -0.0579
1 4 0 29.0160 0.0399
1 4 3 112.4912 0.0034
1 4 6 -53.3464 0.0173
1 4 9 -4.2731 0.0087
1 4 12 9.1398 0.0008
1 4 15 7.1966 0.0216
1 4 18 -8.1424 0.0046
1 4 21 5.7867 0.0137
1 4 24 -11.1475 -0.0142
1 4 27 4.7677 -0.0206
1 4 30 2.3385 -0.0552
1 4 33 -2.1111 -0.0382
1 4 36 4.9809 -0.0221
1 4 39 0.4588 -0.0340
1 4 42 4.2553 0.0184
1 5 -40 -7.0625 -0.0186
1 5 -37 6.3908 -0.0194
1 5 -34 10.2590 -0.0440
1 5 -31 -6.5233 -0.0439
1 5 -28 15.2115 -0.0382
1 5 -25 -8.1808 -0.0069
1 5 -22 -6.9608 -0.0038
1 5 -19 8.4237 -0.0018
1 5 -16 -17.1358 -0.0129
1 5 -13 20.1072 -0.0014
1 5 -10 9.5087 -0.0028
1 5 -7 -39.1782 -0.0131
1 5 -4 12.0233 -0.0188
1 5 -1 25.3541 -0.0504
1 5 2 -12.6714 -0.0325
1 5 5 21.4627 -0.0483
1 5 8 12.6013 -0.0448
1 5 11 -21.0306 -0.0617
1 5 14 22.0241 -0.0518
1 5 17 -20.4277 -0.0676
1 5 20 -5.3963 -0.0514
1 5 23 16.4651 -0.0386
1 5 26 -16.7608 -0.0422
1 5 29 5.8599 -0.0163
1 5 32 0.0749 -0.0045
1 5 35 -7.7314 0.0058
1 5 38 6.5563 0.0010
1 5 41 3.1985 -0.0322
1 6 -41 1.7753 -0.0428
1 6 -38 4.3535 -0.0203
1 6 -35 -3.4229 -0.0027
1 6 -32 5.3424 0.0123
1 6 -29 2.8173 0.0217
1 6 -26 2.7606 -0.0018
1 6 -23 -6.0305 -0.0050
1 6 -20 -10.2613 -0.0199
1 6 -17 11.8559 -0.0009
1 6 -14 -9.8913 -0.0290
1 6 -11 -2.5451 -0.0357
1 6 -8 31.7441 -0.0417
1 6 -5 -42.6124 -0.0582
1 6 -2 21.8014 -0.0483
1 6 1 17.0121 -0.0635
1 6 4 -67.2943 -0.0578
1 6 7 64.7861 -0.0648
1 6 10 -5.9769 -0.0271
1 6 13 -36.4814 -0.0351
1 6 16 22.6023 -0.0208
1 6 19 -1.2342 -0.0102
1 6 22 -3.5247 0.0155
1 6 25 -0.0168 0.0214
1 6 28 3.9478 0.0231
1 6 31 -4.7486 0.0262
1 6 34 4.0475 0.0289
1 6 37 -5.7240 -0.0111
1 6 40 -1.0889 0.0145
1 7 -39 17.1399 0.0260
1 7 -36 -9.3701 0.0038
1 7 -33 -1.1291 -0.0243
1 7 -30 5.6061 -0.0464
1 7 -27 -12.2781 -0.0510
1 7 -24 7.9508 -0.0494
1 7 -21 17.2240 -0.0501
1 7 -18 -24.1152 -0.0418
1 7 -15 4.1741 -0.0524
1 7 -12 5.0206 -0.0362
1 7 -9 -9.8671 -0.0239
1 7 -6 20.8285 -0.0056
1 7 -3 -13.1689 0.0324
1 7 0 -21.1047 0.0128
1 7 3 27.4847 0.0470
1 7 6 -15.2965 0.0320
1 7 9 6.7513 0.0191
1 7 12 -14.0375 0.0110
1 7 15 2.0943 0.0336
1 7 18 3.4393 0.0353
1 7 21 3.4627 -0.0026
1 7 24 -12.3706 -0.0219
1 7 27 7.2817 -0.0263
1 7 30 4.3466 -0.0072
1 7 33 -2.3839 -0.0566
1 7 36 -0.8896 -0.0315
1 7 39 1.1307 0.0084
1 8 -40 6.4351 0.0136
1 8 -37 0.6509 -0.0286
1 8 -34 -0.6629 -0.0295
1 8 -31 -2.4980 -0.0257
1 8 -28 7.5791 -0.0247
1 8 -25 -1.0532 -0.0112
1 8 -22 -4.0396 -0.0018
1 8 -19 11.4129 -0.0228
1 8 -16 -9.8619 -0.0006
1 8 -13 -0.0150 -0.0033
1 8 -10 14.3069 -0.0099
1 8 -7 -14.0513 0.0177
1 8 -4 2.3729 -0.0064
1 8 -1 6.2079 0.0197
1 8 2 -21.2008 -0.0251
1 8 5 37.1907 -0.0248
1 8 8 -13.3309 -0.0340
1 8 11 -12.1885 -0.0364
1 8 14 11.4630 -0.0345
1 8 17 -13.7490 -0.0551
1 8 20 -5.6710 -0.0395
1 8 23 5.8240 -0.0403
1 8 26 -10.6184 -0.0466
1 8 29 11.5102 -0.0472
1 8 32 -0.9743 -0.0018
1 8 35 0.3685 -0.0096
1 8 38 2.3842 -0.0051
1 9 -38 3.3723 -0.0109
1 9 -35 1.3522 0.0061
1 9 -32 3.5254 0.0286
1 9 -29 -6.1213 0.0169
1 9 -26 4.4672 0.0006
1 9 -23 2.9240 -0.0150
1 9 -20 -11.3270 -0.0170
1 9 -17 13.8295 -0.0318
1 9 -14 -0.5020 -0.0535
1 9 -11 -3.5483 -0.0593
1 9 -8 6.5006 -0.0678
1 9 -5 -11.6006 -0.0754
1 9 -2 -5.5016 -0.0966
1 9 1 20.3489 -0.0829
1 9 4 -15.8819 -0.0654
1 9 7 17.8032 -0.0538
1 9 10 -0.3192 -0.0455
1 9 13 -17.1635 -0.0468
1 9 16 4.2918 -0.0088
1 9 19 1.7339 0.0028
1 9 22 -0.9989 0.0052
1 9 25 1.3296 0.0155
1 9 28 -11.0720 0.0320
1 9 31 12.1582 0.0151
1 9 34 0.8796 -0.0124
1 9 37 -1.5459 -0.0114
1 10 -36 0.6587 0.0445
1 10 -33 -5.7328 -0.0066
1 10 -30 2.9775 -0.0492
1 10 -27 -2.9685 -0.0426
1 10 -24 2.3735 -0.0381
1 10 -21 -4.4301 -0.0353
1 10 -18 4.7128 -0.0504
1 10 -15 -3.6515 -0.0502
1 10 -12 -1.9278 -0.0452
1 10 -9 -5.8197 -0.0440
1 10 -6 7.5678 -0.0302
1 10 -3 -3.0848 -0.0159
1 10 0 1.6958 0.0034
1 10 3 1.3628 -0.0044
1 10 6 -8.7817 0.0016
1 10 9 17.2851 0.0029
1 10 12 -4.7136 0.0247
1 10 15 -9.7225 0.0141
1 10 18 10.5266 -0.0064
1 10 21 3.5205 0.0029
1 10 24 -0.3525 0.0067
1 10 27 -7.9957 -0.0255
1 10 30 0.7950 -0.0429
1 10 33 5.3475 -0.0164
1 10 36 -1.1361 0.0298
1 11 -37 3.5134 0.0361
1 11 -34 -2.9632 -0.0664
1 11 -31 -2.0230 -0.0207
1 11 -28 -6.2397 0.0047
1 11 -25 4.5411 0.0173
1 11 -22 -6.5048 0.0068
1 11 -19 0.5536 0.0114
1 11 -16 4.8145 0.0172
1 11 -13 -6.2334 0.0094
1 11 -10 -4.4192 0.0162
1 11 -7 9.3988 0.0249
1 11 -4 -6.3652 0.0126
1 11 -1 2.4434 0.0014
1 11 2 -0.9648 -0.0114
1 11 5 -0.8899 -0.0396
1 11 8 4.5167 -0.0301
1 11 11 -1.5918 -0.0439
1 11 14 -1.2583 -0.0457
1 11 17 3.6045 -0.0444
1 11 20 3.1939 -0.0537
1 11 23 -8.1046 -0.0514
1 11 26 1.1004 -0.0178
1 11 29 -0.7679 0.0002
1 11 32 2.6047 -0.0250
1 11 35 -4.1711 -0.0034
1 12 -35 -4.1589 -0.0276
1 12 -32 2.7315 0.0220
1 12 -29 -4.1736 0.0443
1 12 -26 -6.4154 0.0238
1 12 -23 9.8404 -0.0050
1 12 -20 -0.6865 -0.0158
1 12 -17 -9.9552 -0.0155
1 12 -14 9.5304 -0.0166
1 12 -11 -0.4079 -0.0262
1 12 -8 -6.3266 -0.0470
1 12 -5 5.9075 -0.0553
1 12 -2 -1.1546 -0.0459
1 12 1 -7.0953 -0.0568
1 12 4 8.2645 -0.0440
1 12 7 -6.1264 -0.0529
1 12 10 -0.4312 -0.0363
1 12 13 7.4755 -0.0257
1 12 16 -1.5870 -0.0126
1 12 19 2.5958 0.0025
1 12 22 -8.1416 0.0170
1 12 25 -1.3349 0.0134
1 12 28 2.7598 0.0031
1 12 31 4.6963 -0.0055
1 12 34 -2.5652 0.0323
1 13 -33 3.2374 0.0077
1 13 -30 -2.8328 -0.0210
1 13 -27 5.8824 -0.0348
1 13 -24 -6.6008 -0.0530
1 13 -21 5.6771 -0.0394
1 13 -18 3.3084 -0.0426
1 13 -15 -10.5689 -0.0414
1 13 -12 2.1816 -0.0398
1 13 -9 13.4899 -0.0100
1 13 -6 -8.6804 -0.0092
1 13 -3 3.7555 -0.0067
1 13 0 -2.3873 0.0046
1 13 3 -1.7729 0.0230
1 13 6 7.7055 0.0204
1 13 9 -2.5748 0.0195
1 13 12 2.5059 0.0161
1 13 15 -5.4278 0.0305
1 13 18 -3.3489 0.0119
1 13 21 6.6926 -0.0090
1 13 24 -0.8348 -0.0192
1 13 27 1.0672 -0.0307
1 13 30 -0.2783 -0.0058
1 13 33 0.8395 0.0267
1 14 -31 5.5328 -0.0181
1 14 -28 -6.8590 -0.0199
1 14 -25 5.0962 0.0011
1 14 -22 -0.3831 0.0033
1 14 -19 -1.5865 -0.0053
1 14 -16 7.2548 0.0147
1 14 -13 -7.4350 0.0213
1 14 -10 10.0070 0.0085
1 14 -7 -1.0313 -0.0029
1 14 -4 -5.6209 0.0025
1 14 -1 5.4609 0.0230
1 14 2 5.2658 -0.0243
1 14 5 -8.4478 -0.0042
1 14 8 9.4504 -0.0319
1 14 11 -8.8599 -0.0091
1 14 14 -3.8518 -0.0393
1 14 17 -12.3733 -0.0532
1 14 20 18.3881 -0.0266
1 14 23 0.3603 -0.0198
1 14 26 -8.4061 -0.0192
1 14 29 6.6056 -0.0295
1 14 32 -3.3877 -0.0078
1 15 -29 1.4724 0.0000
1 15 -26 -1.1079 0.0131
1 15 -23 0.7742 0.0174
1 15 -20 5.9467 0.0028
1 15 -17 -4.9599 -0.0197
1 15 -14 4.1906 -0.0486
1 15 -11 2.3154 -0.0471
1 15 -8 -6.8797 -0.0482
1 15 -5 -1.1905 -0.0439
1 15 -2 0.2792 -0.0526
1 15 1 -0.4720 -0.0411
1 15 4 1.7484 -0.0415
1 15 7 -3.8069 -0.0333
1 15 10 1.1817 -0.0390
1 15 13 -2.6504 -0.0375
1 15 16 -8.8444 0.0031
1 15 19 11.5762 0.0064
1 15 22 -3.1479 0.0007
1 15 25 -3.3578 -0.0074
1 15 28 0.8384 -0.0102
1 16 -27 0.1725 0.0039
1 16 -24 -0.4423 -0.0264
1 16 -21 0.4015 -0.0570
1 16 -18 4.3165 -0.0481
1 16 -15 -2.7773 -0.0245
1 16 -12 -6.9669 -0.0365
1 16 -9 2.0560 -0.0044
1 16 -6 -1.4190 -0.0070
1 16 -3 1.6732 0.0112
1 16 0 -4.8534 0.0016
1 16 3 -0.8257 0.0000
1 16 6 5.1277 0.0074
1 16 9 3.7575 0.0098
1 16 12 -1.3401 0.0178
1 16 15 -5.6863 -0.0048
1 16 18 -0.6074 -0.0128
1 16 21 2.5840 -0.0246
1 16 24 -2.6463 -0.0256
1 16 27 -2.8441 0.0519
1 17 -22 -0.9253 -0.0197
1 17 -19 -4.3970 0.0244
1 17 -16 0.2736 0.0217
1 17 -13 6.2233 0.0416
1 17 -10 -13.1406 0.0191
1 17 -7 9.7631 0.0158
1 17 -4 1.2770 0.0115
1 17 -1 -5.4513 -0.0055
1 17 2 3.3986 -0.0024
1 17 5 2.4585 -0.0241
1 17 8 -3.3657 -0.0308
1 17 11 -0.4697 -0.0305
1 17 14 3.3756 -0.0168
1 17 17 -1.8241 -0.0218
1 17 20 -5.1198 -0.0375
1 17 23 -1.3727 0.0033
1 18 -20 -5.7545 0.0547
1 18 -17 2.0824 -0.0088
1 18 -14 4.9160 -0.0590
1 18 -11 -1.7536 -0.0112
1 18 -8 -0.0633 -0.0193
1 18 -5 0.3361 -0.0418
1 18 -2 -6.4665 -0.0393
1 18 1 3.1216 -0.0357
1 18 4 -1.7060 -0.0325
1 18 7 2.9030 -0.0405
1 18 10 -1.7811 -0.0076
1 18 13 0.9190 -0.0151
1 18 16 -1.8264 0.0229
1 18 19 -3.5186 -0.0162
1 19 -15 2.0407 -0.0549
1 19 -12 -2.7895 -0.0134
1 19 -9 -0.3632 0.0025
1 19 -6 0.8419 0.0104
1 19 -3 -7.7818 0.0201
1 19 0 3.7287 0.0105
1 19 3 4.0292 0.0321
1 19 6 2.3750 0.0266
1 19 9 -4.6582 0.0265
1 19 12 -5.2662 -0.0213
1 19 15 -0.1660 0.0104
1 20 -7 7.0711 0.0405
1 20 -4 -0.0817 0.0506
1 20 -1 1.2996 0.0180
1 20 2 -3.9853 0.0298
1 20 5 0.4832 0.0258
1 20 8 -1.5773 0.0621
2 1 -44 4.0639 -0.0092
2 1 -41 -1.9333 -0.0138
2 1 -38 0.2664 -0.0060
2 1 -35 4.3727 -0.0116
2 1 -32 -5.4078 0.0242
2 1 -29 -4.1101 -0.0100
2 1 -26 2.7952 0.0035
2 1 -23 -12.5736 0.0258
2 1 -20 5.9759 0.0670
2 1 -17 -12.8815 0.0655
2 1 -14 -0.4118 0.1025
2 1 -11 17.9692 0.0881
2 1 -8 -128.9203 0.1087
2 1 -5 228.9671 0.0683
2 1 -2 14.2520 -0.0115
2 1 1 -96.1221 0.0737
2 1 4 109.1427 0.0483
2 1 7 -17.8505 0.1189
2 1 10 36.7637 0.0535
2 1 13 12.3167 0.0587
2 1 16 -21.7185 0.0190
2 1 19 -1.9023 -0.0189
2 1 22 22.4987 -0.0138
2 1 25 -9.3962 -0.0368
2 1 28 -3.5697 -0.0406
2 1 31 4.8223 -0.0295
2 1 34 -7.5250 -0.0336
2 1 37 11.2218 -0.0239
2 1 40 -5.5469 -0.0096
2 1 43 -0.9505 0.0067
2 2 -42 1.2705 0.0475
2 2 -39 3.3099 0.0159
2 2 -36 3.5850 0.0367
2 2 -33 -6.4129 -0.0122
2 2 -30 -2.5283 0.0075
2 2 -27 -2.9459 0.0179
2 2 -24 7.1764 0.0214
2 2 -21 -5.1316 0.0107
2 2 -18 -8.0977 0.0099
2 2 -15 20.3243 0.0279
2 2 -12 -6.6178 0.0540
2 2 -9 -67.2360 0.0163
2 2 -6 179.6942 -0.0005
2 2 -3 -77.9203 0.0083
2 2 0 60.8342 0.0338
2 2 3 46.8391 0.0351
2 2 6 -52.7427 -0.0012
2 2 12 30.6651 0.0175
2 2 15 -19.9594 0.0223
2 2 18 11.5699 0.0090
2 2 21 -5.5297 -0.0099
2 2 24 -2.1740 -0.0037
2 2 27 7.4388 -0.0147
2 2 30 -0.3412 -0.0009
2 2 33 1.4848 -0.0000
2 2 36 2.9942 0.0164
2 2 39 -4.1939 -0.0034
2 2 42 2.0497 0.0313
2 3 -43 2.1760 0.0547
2 3 -40 2.0239 0.0494
2 3 -37 1.8001 0.0146
2 3 -34 -4.0019 0.0248
2 3 -31 4.2160 0.0279
2 3 -28 7.2226 0.0207
2 3 -25 -11.4591 0.0043
2 3 -22 5.3278 -0.0173
2 3 -19 5.9669 -0.0314
2 3 -16 -16.0741 -0.0361
2 3 -13 41.4719 -0.0281
2 3 -10 -30.9619 -0.0391
2 3 -7 14.5399 -0.0516
2 3 -4 5.2292 -0.0377
2 3 -1 16.3362 -0.0641
2 3 2 66.5658 -0.0197
2 3 5 -18.1391 0.0043
2 3 8 -25.1889 0.0162
2 3 11 8.5784 0.0155
2 3 14 16.2856 0.0394
2 3 17 -16.8749 0.0730
2 3 20 6.4200 0.0431
2 3 23 1.2753 0.0273
2 3 26 -1.5932 0.0354
2 3 29 3.0311 0.0491
2 3 32 0.8072 0.0445
2 3 35 1.6558 0.0111
2 3 38 -9.6160 -0.0166
2 3 41 14.3156 -0.1002
2 4 -41 -3.8232 -0.0651
2 4 -38 -0.3256 -0.0197
2 4 -35 7.6289 0.0092
2 4 -32 -1.5340 0.0060
2 4 -29 6.6797 -0.0033
2 4 -26 4.1285 -0.0099
2 4 -23 -6.6940 -0.0152
2 4 -20 -11.9884 0.0229
2 4 -17 11.4118 0.0158
2 4 -14 -3.6385 0.0310
2 4 -11 4.6509 0.0258
2 4 -8 9.0987 0.0145
2 4 -5 -88.4245 0.0055
2 4 -2 82.8241 -0.0262
2 4 1 37.0011 0.0041
2 4 4 -14.7377 -0.0013
2 4 7 17.8581 0.0324
2 4 10 -14.4665 0.0149
2 4 13 4.8096 -0.0067
2 4 16 5.9237 -0.0199
2 4 19 -9.3426 -0.0109
2 4 22 -3.4403 -0.0026
2 4 25 6.7703 -0.0042
2 4 28 -1.6559 -0.0138
2 4 31 -11.9469 -0.0377
2 4 34 9.4592 -0.0364
2 4 37 -2.3716 -0.0219
2 4 40 -2.5811 0.0298
2 4 43 10.5932 -0.0089
2 5 -42 -11.4058 -0.0196
2 5 -39 10.9266 -0.0138
2 5 -36 -1.7468 -0.0386
2 5 -33 5.2983 -0.0242
2 5 -30 2.7887 -0.0066
2 5 -27 -11.2828 0.0024
2 5 -24 9.3864 0.0242
2 5 -21 7.4644 0.0494
2 5 -18 -32.4030 0.0613
2 5 -15 7.0943 0.0700
2 5 -12 6.7305 0.0455
2 5 -9 -26.8921 0.0376
2 5 -6 10.8092 0.0196
2 5 -3 10.1253 0.0057
2 5 0 -13.7855 0.0097
2 5 3 55.1075 -0.0399
2 5 6 -23.4811 -0.0256
2 5 9 -14.9968 -0.0538
2 5 12 27.3004 -0.0530
2 5 15 -22.5369 -0.0495
2 5 18 1.1747 -0.0426
2 5 21 8.7817 -0.0314
2 5 24 -12.7224 -0.0398
2 5 27 1.9870 -0.0358
2 5 30 -1.3531 -0.0145
2 5 33 -3.5567 0.0099
2 5 36 4.7612 0.0166
2 5 39 0.5182 0.0434
2 5 42 -7.7550 0.0520
2 6 -40 12.3484 -0.0120
2 6 -37 -6.3866 -0.0089
2 6 -34 4.6607 -0.0119
2 6 -31 -6.3010 -0.0059
2 6 -28 8.0901 -0.0050
2 6 -25 -3.6327 -0.0078
2 6 -22 -4.8014 -0.0156
2 6 -19 12.2094 -0.0259
2 6 -16 -22.4096 -0.0324
2 6 -13 -7.2548 -0.0212
2 6 -10 28.1920 -0.0270
2 6 -7 -38.6821 -0.0203
2 6 -4 25.1742 -0.0031
2 6 -1 -1.2786 -0.0148
2 6 2 2.6651 -0.0130
2 6 8 -3.3004 0.0115
2 6 11 0.2921 0.0320
2 6 14 20.6058 0.0395
2 6 17 -23.2834 0.0352
2 6 20 -6.2401 0.0293
2 6 23 14.0244 0.0286
2 6 26 -13.3243 0.0275
2 6 29 3.7560 0.0038
2 6 32 7.9624 0.0168
2 6 35 -14.2145 0.0427
2 6 38 1.2595 0.0000
2 6 41 6.1486 -0.0730
2 7 -38 5.0137 -0.0285
2 7 -35 1.1636 -0.0087
2 7 -32 3.1752 0.0033
2 7 -29 -4.7186 -0.0222
2 7 -26 6.5101 -0.0395
2 7 -23 -4.2999 -0.0363
2 7 -20 -3.1398 -0.0356
2 7 -17 17.6185 -0.0261
2 7 -14 -18.2330 -0.0175
2 7 -11 -6.3117 -0.0051
2 7 -8 32.5444 0.0111
2 7 -5 -29.1514 0.0178
2 7 -2 -27.0223 0.0214
2 7 1 57.0151 0.0487
2 7 4 -45.3474 0.0476
2 7 7 29.2558 0.0505
2 7 10 7.9735 0.0347
2 7 13 -31.1078 0.0353
2 7 16 22.4388 0.0240
2 7 19 -7.7575 0.0167
2 7 22 -5.7460 0.0111
2 7 25 -1.4111 -0.0074
2 7 28 -0.3347 -0.0069
2 7 31 -0.4453 -0.0292
2 7 34 -0.8609 -0.0245
2 7 37 -3.4225 -0.0295
2 7 40 -0.7914 -0.0094
2 8 -39 1.1767 0.0112
2 8 -36 1.8587 0.0377
2 8 -33 0.2394 -0.0139
2 8 -30 5.7611 0.0053
2 8 -27 -3.9246 0.0196
2 8 -24 -1.7373 0.0351
2 8 -21 10.3817 0.0349
2 8 -18 -9.8805 0.0252
2 8 -15 9.3089 0.0339
2 8 -12 4.5611 0.0139
2 8 -9 -17.2399 0.0105
2 8 -6 18.3364 -0.0008
2 8 -3 -20.9618 0.0011
2 8 0 3.0167 -0.0079
2 8 3 21.1409 -0.0267
2 8 6 -5.6317 -0.0407
2 8 9 -1.3661 -0.0471
2 8 12 -6.2119 -0.0455
2 8 15 -5.6796 -0.0388
2 8 18 14.8964 -0.0345
2 8 21 -0.2282 -0.0185
2 8 24 -9.7630 -0.0019
2 8 27 -6.2292 -0.0182
2 8 30 11.9624 -0.0301
2 8 33 -10.1461 0.0141
2 8 36 6.1192 0.0437
2 8 39 -0.7923 0.0445
2 9 -37 0.3438 0.0015
2 9 -34 3.3427 0.0007
2 9 -31 -5.4324 0.0067
2 9 -28 1.9352 0.0122
2 9 -25 -3.5097 0.0056
2 9 -22 1.4752 0.0102
2 9 -19 4.1301 -0.0004
2 9 -16 1.4882 -0.0112
2 9 -13 -7.6180 -0.0410
2 9 -10 1.4407 -0.0427
2 9 -7 -3.0212 -0.0405
2 9 -4 2.1718 -0.0365
2 9 -1 8.3479 -0.0346
2 9 2 -12.2987 -0.0229
2 9 5 8.4930 -0.0186
2 9 8 2.7240 -0.0082
2 9 11 -13.6291 0.0079
2 9 14 7.7883 0.0062
2 9 17 -5.0619 0.0145
2 9 20 10.4207 0.0269
2 9 23 0.6814 0.0140
2 9 26 -8.8276 0.0105
2 9 29 1.2621 0.0375
2 9 32 6.8266 0.0411
2 9 35 1.3912 0.0091
2 9 38 -8.1674 -0.0847
2 10 -35 -10.8861 -0.0489
2 10 -32 -0.0256 -0.0331
2 10 -29 -2.5730 -0.0002
2 10 -26 -5.7819 -0.0311
2 10 -23 10.5856 -0.0155
2 10 -20 -7.5818 -0.0288
2 10 -17 -2.1720 -0.0246
2 10 -14 -2.5749 -0.0013
2 10 -11 1.4975 0.0019
2 10 -8 -0.8096 0.0174
2 10 -5 6.5699 0.0125
2 10 -2 -8.5583 0.0350
2 10 1 4.4942 0.0313
2 10 4 -3.2376 0.0533
2 10 7 4.2381 0.0356
2 10 10 0.4017 0.0312
2 10 13 5.0247 0.0243
2 10 16 -9.7392 0.0106
2 10 19 2.5238 0.0007
2 10 22 -1.1522 -0.0001
2 10 25 2.0480 0.0043
2 10 28 -3.6514 -0.0269
2 10 31 -3.3403 -0.0199
2 10 34 5.7117 -0.0451
2 10 37 -6.5076 -0.0181
2 11 -36 1.0392 0.0341
2 11 -33 -3.7588 0.0438
2 11 -30 0.5011 -0.0120
2 11 -27 -0.2131 -0.0093
2 11 -24 -4.7384 -0.0082
2 11 -21 -1.7887 0.0236
2 11 -18 -3.5625 0.0319
2 11 -15 -0.2058 0.0385
2 11 -12 8.6993 0.0295
2 11 -9 0.4590 0.0155
2 11 -6 -3.1503 0.0137
2 11 -3 5.9195 -0.0081
2 11 0 -8.4582 -0.0151
2 11 3 -2.2770 -0.0281
2 11 6 10.4628 -0.0228
2 11 9 -3.6393 -0.0159
2 11 12 4.6199 -0.0173
2 11 15 -5.8604 -0.0301
2 11 18 0.1534 -0.0303
2 11 21 -1.1804 -0.0291
2 11 24 -1.3804 -0.0212
2 11 27 -0.3147 -0.0156
2 11 30 -3.2546 0.0068
2 11 33 -7.5348 0.0230
2 11 36 8.8393 0.0560
2 12 -34 3.2751 0.0032
2 12 -31 0.2261 -0.0040
2 12 -28 -8.2288 -0.0188
2 12 -25 8.6547 -0.0133
2 12 -22 -5.4199 0.0023
2 12 -19 -4.7918 -0.0075
2 12 -16 4.9049 -0.0231
2 12 -13 7.4877 -0.0326
2 12 -10 -7.1063 -0.0366
2 12 -7 5.8302 -0.0426
2 12 -4 -9.8117 -0.0430
2 12 -1 19.9167 -0.0385
2 12 2 -4.8860 -0.0210
2 12 5 -9.9066 -0.0063
2 12 8 5.5985 0.0064
2 12 11 -0.4177 0.0141
2 12 14 -2.8719 0.0160
2 12 17 11.9255 0.0101
2 12 20 -3.8017 0.0057
2 12 23 -7.9419 0.0303
2 12 26 6.5868 0.0448
2 12 29 0.1663 0.0184
2 12 32 -1.7840 -0.0096
2 13 -32 9.2749 -0.0430
2 13 -29 -2.7281 -0.0356
2 13 -26 -4.4077 -0.0055
2 13 -23 11.9523 -0.0003
2 13 -20 -5.3372 -0.0222
2 13 -17 -4.1825 -0.0359
2 13 -14 5.3411 -0.0221
2 13 -11 0.7054 -0.0020
2 13 -8 -3.5061 0.0120
2 13 -5 11.2749 0.0303
2 13 -2 -3.6696 0.0207
2 13 1 4.5831 0.0353
2 13 4 6.4196 0.0260
2 13 7 -13.1506 0.0278
2 13 10 6.3142 0.0267
2 13 13 -0.7462 0.0212
2 13 16 -5.7545 0.0195
2 13 19 8.6400 0.0265
2 13 22 -2.5403 0.0084
2 13 25 -3.1123 -0.0193
2 13 28 5.4510 -0.0442
2 13 31 0.6396 -0.0338
2 14 -30 4.3452 0.0418
2 14 -27 3.3518 0.0418
2 14 -24 -5.3293 0.0182
2 14 -21 9.5258 0.0128
2 14 -18 -5.0780 0.0211
2 14 -15 -0.5530 0.0121
2 14 -12 9.0217 0.0208
2 14 -9 0.9282 0.0269
2 14 -6 -6.1627 0.0105
2 14 -3 6.1901 -0.0047
2 14 0 -5.8245 -0.0175
2 14 3 -0.0767 -0.0169
2 14 6 9.1679 -0.0330
2 14 9 -3.0500 -0.0150
2 14 12 -11.2977 -0.0123
2 14 15 -0.6210 -0.0171
2 14 18 -2.5378 -0.0303
2 14 21 6.2306 -0.0355
2 14 24 3.3570 -0.0087
2 14 27 -6.7212 0.0099
2 14 30 2.6838 0.0331
2 15 -28 -1.3230 0.0295
2 15 -25 10.4936 0.0157
2 15 -22 -4.4876 -0.0289
2 15 -19 -3.7323 -0.0200
2 15 -16 11.3477 -0.0089
2 15 -13 -2.8583 -0.0221
2 15 -10 -1.8379 -0.0306
2 15 -7 1.6513 -0.0286
2 15 -4 -10.5856 -0.0300
2 15 -1 3.0769 -0.0299
2 15 2 4.2299 -0.0223
2 15 5 0.6674 -0.0053
2 15 8 1.0215 0.0051
2 15 11 -6.5705 -0.0051
2 15 14 -3.2999 -0.0085
2 15 17 3.6290 0.0148
2 15 20 6.4393 0.0102
2 15 23 -6.6739 0.0194
2 15 26 -4.0347 0.0138
2 16 -23 6.5804 -0.0440
2 16 -20 -7.5965 -0.0002
2 16 -17 2.0102 -0.0007
2 16 -14 -0.8307 -0.0089
2 16 -11 -1.0772 0.0081
2 16 -8 -2.8152 0.0205
2 16 -5 3.2644 0.0273
2 16 -2 -0.3683 0.0173
2 16 1 6.6205 0.0143
2 16 4 -3.0793 0.0144
2 16 7 -1.2082 0.0141
2 16 10 5.5458 0.0159
2 16 13 4.0252 0.0067
2 16 16 -2.7121 0.0047
2 16 19 -3.7503 0.0071
2 16 22 -2.8615 0.0002
2 16 25 -1.7250 -0.0908
2 17 -21 2.6998 0.0494
2 17 -18 1.2830 0.0497
2 17 -15 -6.0295 0.0455
2 17 -12 -1.5386 0.0041
2 17 -9 5.4650 0.0101
2 17 -6 5.0545 0.0120
2 17 -3 -7.6548 0.0052
2 17 0 6.2275 -0.0112
2 17 3 1.5858 -0.0219
2 17 6 -4.6118 -0.0268
2 17 9 6.7200 -0.0471
2 17 12 3.1943 -0.0177
2 17 15 -10.5156 -0.0381
2 17 18 4.9094 -0.0273
2 17 21 -2.6937 0.0251
2 18 -16 -3.1712 -0.0838
2 18 -13 7.7842 -0.0390
2 18 -10 -7.4002 -0.0204
2 18 -7 8.1989 -0.0001
2 18 -4 -5.3443 -0.0073
2 18 -1 -1.8199 0.0042
2 18 2 2.1882 -0.0044
2 18 5 1.6726 0.0118
2 18 8 -2.7219 0.0010
2 18 11 -1.0751 -0.0420
2 18 14 0.1998 -0.0086
2 18 17 1.5081 0.0322
2 19 -11 4.4043 0.0648
2 19 -8 4.3145 0.0419
2 19 -5 -5.3856 0.0454
2 19 -2 -2.1200 0.0547
2 19 1 3.6962 0.0628
2 19 4 -0.6507 0.0529
2 19 7 3.0640 0.0752
2 19 10 -7.5970 0.0075
2 19 13 0.0049 -0.0171
3 1 -43 10.5447 0.0107
3 1 -40 2.7406 0.0425
3 1 -37 -2.4022 0.0269
3 1 -34 -3.3045 0.0454
3 1 -31 1.9626 0.0167
3 1 -28 2.2881 0.0135
3 1 -25 -8.8581 -0.0034
3 1 -22 2.2206 0.0285
3 1 -19 6.1170 0.0165
3 1 -16 -5.1547 0.0959
3 1 -13 13.7945 0.0571
3 1 -10 -24.3610 0.0517
3 1 -7 -41.4083 0.0528
3 1 -4 262.3626 -0.0217
3 1 -1 -133.7187 0.1501
3 1 2 40.9823 0.0171
3 1 5 -50.9700 0.1032
3 1 8 65.4603 0.0302
3 1 11 23.6976 0.0812
3 1 14 -29.6982 0.0503
3 1 17 10.6000 -0.0159
3 1 20 1.7515 0.0194
3 1 23 -4.3703 0.0001
3 1 26 5.7930 0.0065
3 1 29 -3.3366 -0.0136
3 1 32 1.4150 -0.0135
3 1 35 -0.4828 -0.0369
3 1 38 -8.0841 -0.0038
3 1 41 2.1425 -0.0371
3 2 -41 3.6443 0.0100
3 2 -38 -0.5754 0.0560
3 2 -35 -3.7843 0.0548
3 2 -32 2.0030 0.0929
3 2 -29 2.1311 0.0531
3 2 -26 -1.8612 0.0629
3 2 -23 -1.4317 0.0307
3 2 -20 2.1858 0.0602
3 2 -17 1.1256 0.0286
3 2 -14 8.5775 0.0094
3 2 -11 15.0324 0.0137
3 2 -8 -23.0540 -0.0194
3 2 -5 72.7051 -0.0024
3 2 -2 28.2428 -0.0161
3 2 1 6.8669 0.0052
3 2 4 -16.1421 -0.0304
3 2 7 17.8213 -0.0120
3 2 10 -17.8655 0.0057
3 2 13 0.5219 -0.0051
3 2 16 -1.5092 -0.0019
3 2 19 15.6862 0.0222
3 2 22 -7.1666 0.0423
3 2 25 -4.9289 0.0539
3 2 28 0.0835 0.0371
3 2 31 1.0788 0.0175
3 2 34 2.3985 0.0181
3 2 37 -2.2477 0.0134
3 2 40 -6.1169 0.0159
3 2 43 -2.8671 0.0286
3 3 -42 -9.5400 0.0592
3 3 -39 3.1898 0.0224
3 3 -36 0.2359 0.0325
3 3 -33 -1.5530 0.0219
3 3 -30 5.2941 0.0320
3 3 -27 -4.5409 0.0305
3 3 -24 4.7710 0.0249
3 3 -21 2.6735 0.0176
3 3 -18 -16.2989 0.0207
3 3 -15 19.2993 0.0338
3 3 -12 -8.9132 0.0216
3 3 -9 8.5306 -0.0007
3 3 -6 28.0777 0.0013
3 3 -3 -53.8843 0.0061
3 3 0 76.5358 -0.0155
3 3 3 22.8566 0.0211
3 3 6 -30.3534 0.0082
3 3 9 -26.0172 0.0221
3 3 12 42.1221 0.0161
3 3 15 -15.4295 0.0238
3 3 18 1.5636 0.0344
3 3 21 3.6820 0.0187
3 3 24 -7.2107 0.0232
3 3 27 4.1077 0.0099
3 3 30 -3.6028 0.0078
3 3 33 -1.4774 0.0172
3 3 36 6.0143 -0.0060
3 3 39 -9.8624 0.0031
3 3 42 -4.2599 0.0559
3 4 -40 -4.5672 -0.0160
3 4 -37 -0.4414 -0.0337
3 4 -34 5.8729 -0.0417
3 4 -31 -9.2252 -0.0379
3 4 -28 10.4759 -0.0195
3 4 -25 -0.5529 0.0080
3 4 -22 -6.8059 0.0167
3 4 -19 -2.4817 0.0289
3 4 -16 -13.6464 0.0379
3 4 -13 -7.6848 0.0412
3 4 -10 27.7132 0.0592
3 4 -7 -34.5384 0.0407
3 4 -4 -7.2484 0.0540
3 4 -1 66.5528 0.0557
3 4 2 -8.5414 0.0642
3 4 5 9.9547 0.0586
3 4 8 -26.6355 0.0263
3 4 11 34.5904 0.0130
3 4 14 -7.7804 -0.0092
3 4 17 -14.3978 -0.0136
3 4 20 -2.2469 -0.0390
3 4 23 12.2477 -0.0562
3 4 26 -12.3456 -0.0450
3 4 29 2.7319 -0.0294
3 4 32 -1.8835 -0.0268
3 4 35 -5.9566 -0.0238
3 4 38 7.8679 -0.0327
3 4 41 -4.5782 -0.0498
3 5 -41 -0.3081 -0.0277
3 5 -38 -4.3497 -0.0349
3 5 -35 7.2202 0.0148
3 5 -32 3.6369 0.0218
3 5 -29 -11.8349 0.0150
3 5 -26 2.1787 0.0049
3 5 -23 -3.7724 0.0040
3 5 -20 -8.0829 0.0119
3 5 -17 11.0020 0.0212
3 5 -14 -27.6599 0.0068
3 5 -11 2.4002 -0.0127
3 5 -8 14.5240 -0.0145
3 5 -5 -26.4991 -0.0126
3 5 -2 43.3352 -0.0231
3 5 1 21.3792 -0.0121
3 5 4 -41.3309 0.0086
3 5 7 33.1902 -0.0121
3 5 10 2.0500 -0.0143
3 5 13 -27.2116 -0.0096
3 5 16 16.3620 -0.0147
3 5 19 -8.7096 -0.0078
3 5 22 -7.2561 0.0052
3 5 25 5.8880 0.0260
3 5 28 -5.9785 0.0106
3 5 31 -6.0350 0.0005
3 5 34 10.4832 -0.0040
3 5 37 -6.9364 0.0142
3 5 40 2.0381 -0.0249
3 6 -39 5.8580 0.0810
3 6 -36 -1.6449 0.0403
3 6 -33 1.9080 0.0146
3 6 -30 0.6870 0.0168
3 6 -27 -12.4031 0.0121
3 6 -24 3.8213 0.0019
3 6 -21 7.8489 -0.0056
3 6 -18 -14.0602 -0.0150
3 6 -15 4.5182 -0.0364
3 6 -12 3.1438 -0.0436
3 6 -9 -26.9924 -0.0449
3 6 -6 40.9120 -0.0506
3 6 -3 -8.5989 -0.0262
3 6 0 -29.3832 -0.0206
3 6 3 49.6665 -0.0035
3 6 6 -23.2757 0.0013
3 6 9 -0.2266 0.0228
3 6 12 9.4496 0.0412
3 6 15 3.2731 0.0410
3 6 18 -1.1877 0.0580
3 6 21 -1.6747 0.0538
3 6 24 -10.1007 0.0489
3 6 27 1.7657 0.0390
3 6 30 0.0947 0.0217
3 6 33 -0.5556 0.0017
3 6 36 -3.0448 0.0085
3 6 39 -0.7921 0.0488
3 7 -40 -8.8155 0.0387
3 7 -37 2.2783 -0.0221
3 7 -34 3.7889 0.0011
3 7 -31 2.1943 0.0088
3 7 -28 0.6032 0.0160
3 7 -25 -1.7118 0.0144
3 7 -22 -1.9995 0.0257
3 7 -19 1.4647 0.0351
3 7 -16 -5.8783 0.0322
3 7 -13 3.3937 0.0366
3 7 -10 4.5525 0.0437
3 7 -7 -10.5068 0.0456
3 7 -4 14.9943 0.0346
3 7 -1 -17.1104 0.0447
3 7 2 3.9803 0.0307
3 7 5 19.1199 0.0148
3 7 8 -11.3590 0.0111
3 7 11 -1.6745 0.0086
3 7 14 24.6962 0.0137
3 7 17 -10.4203 -0.0122
3 7 20 -6.4525 -0.0287
3 7 23 7.9776 -0.0268
3 7 26 -3.5918 -0.0172
3 7 29 0.7527 0.0068
3 7 32 -5.3681 0.0091
3 7 35 1.5117 -0.0192
3 7 38 1.3103 -0.0225
3 8 -38 10.8357 -0.0327
3 8 -35 -4.7472 -0.0034
3 8 -32 -3.8881 0.0292
3 8 -29 0.7663 0.0323
3 8 -26 4.8211 0.0414
3 8 -23 -7.0907 0.0404
3 8 -20 -2.4183 0.0463
3 8 -17 7.9078 0.0428
3 8 -14 -4.2475 0.0466
3 8 -11 -8.9784 0.0430
3 8 -8 11.7761 0.0135
3 8 -5 -7.9788 0.0237
3 8 -2 -12.1073 0.0018
3 8 1 27.7464 0.0028
3 8 4 -13.7157 -0.0157
3 8 7 7.0224 -0.0106
3 8 10 -2.4377 -0.0272
3 8 13 -10.8854 -0.0413
3 8 16 6.9130 -0.0201
3 8 19 4.8276 -0.0201
3 8 22 2.2446 0.0043
3 8 25 -2.4002 0.0008
3 8 28 1.2271 0.0152
3 8 31 -4.2570 0.0056
3 8 34 11.2457 0.0080
3 8 37 -2.2900 -0.0192
3 9 -36 -10.8145 0.0789
3 9 -33 -0.2359 0.0278
3 9 -30 1.2064 -0.0195
3 9 -27 -3.5075 -0.0180
3 9 -24 -9.6741 -0.0036
3 9 -21 10.0848 -0.0137
3 9 -18 -0.4721 -0.0102
3 9 -15 -7.0724 -0.0214
3 9 -12 0.8492 -0.0254
3 9 -9 -2.9030 -0.0198
3 9 -6 -2.8234 -0.0137
3 9 -3 1.3564 -0.0009
3 9 0 1.4961 0.0059
3 9 3 3.7707 0.0117
3 9 6 -5.6993 0.0254
3 9 9 3.5464 0.0338
3 9 12 3.9950 0.0457
3 9 15 -9.6551 0.0361
3 9 18 -4.4530 0.0445
3 9 21 7.6185 0.0412
3 9 24 4.3332 0.0252
3 9 27 -6.8107 0.0043
3 9 30 -1.8122 -0.0087
3 9 33 1.0536 0.0241
3 9 36 7.6308 0.0725
3 10 -34 1.1668 -0.0433
3 10 -31 -3.0354 -0.0320
3 10 -28 -7.3024 -0.0285
3 10 -25 6.2632 -0.0052
3 10 -22 -4.8295 0.0053
3 10 -19 -5.4970 0.0170
3 10 -16 -2.4334 0.0041
3 10 -13 5.0291 0.0130
3 10 -10 0.9337 0.0193
3 10 -7 1.8871 0.0266
3 10 -4 -10.3374 0.0345
3 10 -1 11.7203 0.0287
3 10 2 -6.7152 0.0391
3 10 5 -0.8173 0.0305
3 10 8 13.0874 0.0338
3 10 11 -5.7762 0.0137
3 10 14 -3.8982 0.0042
3 10 17 2.3947 -0.0070
3 10 20 -3.9313 -0.0161
3 10 23 -1.7069 -0.0227
3 10 26 -1.8332 -0.0084
3 10 29 -3.2202 0.0178
3 10 32 -5.2127 -0.0211
3 10 35 5.4300 -0.0332
3 11 -35 1.2090 -0.0460
3 11 -32 -0.2467 -0.0010
3 11 -29 2.9897 0.0261
3 11 -26 -10.0594 0.0489
3 11 -23 9.3043 0.0397
3 11 -20 -14.0853 0.0121
3 11 -17 -2.0312 0.0114
3 11 -14 14.9280 0.0140
3 11 -11 -4.7687 0.0169
3 11 -8 -6.2652 0.0105
3 11 -5 13.2355 -0.0036
3 11 -2 -5.5794 -0.0053
3 11 1 -4.3114 -0.0236
3 11 4 9.1069 -0.0298
3 11 7 -9.0917 -0.0294
3 11 10 6.3818 -0.0282
3 11 13 0.3739 -0.0228
3 11 16 -0.6018 -0.0153
3 11 19 3.1754 -0.0027
3 11 22 -8.3771 0.0112
3 11 25 -2.0758 -0.0008
3 11 28 2.0309 -0.0114
3 11 31 -1.0093 -0.0277
3 11 34 3.0259 0.0217
3 12 -33 -2.2883 0.0449
3 12 -30 3.6732 0.0307
3 12 -27 4.5677 0.0038
3 12 -24 -12.1558 -0.0211
3 12 -21 1.4947 -0.0304
3 12 -18 15.1189 -0.0191
3 12 -15 -12.3737 -0.0127
3 12 -12 3.9410 -0.0096
3 12 -9 2.4380 -0.0183
3 12 -6 -6.9537 -0.0100
3 12 -3 10.9944 -0.0104
3 12 0 -5.8486 -0.0015
3 12 3 -5.5717 0.0032
3 12 6 11.5005 0.0113
3 12 9 -6.8294 0.0317
3 12 12 4.6012 0.0365
3 12 15 4.3703 0.0384
3 12 18 -7.2918 0.0415
3 12 21 -3.7378 0.0225
3 12 24 7.8352 -0.0111
3 12 27 -0.8422 0.0186
3 12 30 -0.1981 0.0321
3 12 33 0.9872 0.0580
3 13 -31 16.8950 -0.0107
3 13 -28 -10.4238 0.0081
3 13 -25 7.6974 -0.0306
3 13 -22 1.2796 0.0022
3 13 -19 -7.9205 0.0187
3 13 -16 15.2675 0.0312
3 13 -13 1.9106 0.0312
3 13 -10 -4.6452 0.0217
3 13 -7 4.4534 0.0272
3 13 -4 -12.9226 0.0369
3 13 -1 12.2401 0.0402
3 13 2 -0.2348 0.0460
3 13 5 -4.2556 0.0479
3 13 8 5.9491 0.0289
3 13 11 -6.4425 0.0093
3 13 14 -8.0805 -0.0052
3 13 17 7.7087 -0.0136
3 13 20 -2.1658 0.0091
3 13 23 -1.6626 0.0077
3 13 26 3.0081 0.0073
3 13 29 -4.7093 -0.0059
3 14 -29 1.0135 0.0239
3 14 -26 -2.8531 0.0129
3 14 -23 10.3157 0.0510
3 14 -20 -2.5954 0.0538
3 14 -17 0.3727 0.0261
3 14 -14 14.9981 0.0030
3 14 -11 -1.1851 -0.0032
3 14 -8 -9.6285 0.0049
3 14 -5 5.7109 0.0081
3 14 -2 -2.4179 -0.0005
3 14 1 2.0233 -0.0004
3 14 4 1.3665 -0.0010
3 14 7 -10.2339 -0.0054
3 14 10 0.5963 -0.0240
3 14 13 -2.8561 -0.0113
3 14 16 -1.2329 0.0004
3 14 19 4.9741 -0.0075
3 14 22 -6.8929 -0.0078
3 14 25 0.4865 -0.0219
3 14 28 -4.2814 -0.0077
3 15 -27 5.9906 0.0521
3 15 -24 -1.8350 0.0167
3 15 -21 2.4464 -0.0098
3 15 -18 8.0495 -0.0553
3 15 -15 -2.2329 -0.0323
3 15 -12 -4.1196 -0.0229
3 15 -9 4.1751 -0.0160
3 15 -6 -0.3182 -0.0142
3 15 -3 -0.4013 -0.0024
3 15 0 -0.6315 -0.0044
3 15 3 0.4354 0.0068
3 15 6 0.0313 0.0183
3 15 9 4.4876 0.0229
3 15 12 -1.8943 0.0206
3 15 15 -1.6069 0.0220
3 15 18 -0.2690 0.0175
3 15 21 -3.5164 0.0042
3 15 24 0.6293 0.0134
3 16 -22 4.8523 -0.0442
3 16 -19 -8.3955 0.0052
3 16 -16 0.9413 -0.0035
3 16 -13 4.6053 0.0415
3 16 -10 -4.1176 0.0319
3 16 -7 4.6409 0.0193
3 16 -4 -2.3474 0.0117
3 16 -1 3.8194 0.0164
3 16 2 6.3742 0.0156
3 16 5 -1.5526 -0.0083
3 16 8 2.1316 -0.0066
3 16 11 3.6301 0.0007
3 16 14 -6.0930 0.0036
3 16 17 5.9263 0.0077
3 16 20 -3.1909 0.0068
3 16 23 -2.7005 0.0029
3 17 -20 -1.0627 0.0983
3 17 -17 -4.6824 0.0410
3 17 -14 4.8298 0.0041
3 17 -11 2.7338 0.0136
3 17 -8 -0.2606 0.0038
3 17 -5 0.7184 -0.0089
3 17 -2 3.9894 -0.0157
3 17 1 0.7063 -0.0179
3 17 4 -1.4823 -0.0061
3 17 7 -0.0603 -0.0364
3 17 10 1.0071 -0.0166
3 17 13 5.1352 -0.0115
3 17 16 -7.5657 -0.0184
3 17 19 0.0152 -0.0666
3 18 -15 -2.1750 -0.0470
3 18 -12 1.4877 -0.0170
3 18 -9 5.4846 -0.0104
3 18 -6 -4.9961 0.0054
3 18 -3 2.8907 0.0113
3 18 0 2.5786 0.0350
3 18 3 1.3018 0.0260
3 18 6 -6.7715 0.0378
3 18 9 3.3945 0.0140
3 18 12 1.7323 0.0050
3 18 15 -4.9978 0.0053
3 19 -7 -4.2749 0.0370
3 19 -4 6.9891 0.0559
3 19 -1 -1.3382 0.0531
3 19 2 1.7366 0.0497
3 19 5 -4.4242 0.0408
3 19 8 2.1692 0.0831
4 1 -42 -6.9833 0.0614
4 1 -39 2.7651 0.0359
4 1 -36 6.8391 0.0508
4 1 -33 0.1200 0.0755
4 1 -30 0.1598 0.0643
4 1 -27 -1.5474 0.0529
4 1 -24 0.5265 0.0691
4 1 -21 4.6252 0.0666
4 1 -18 2.7903 0.0963
4 1 -15 17.5615 0.0815
4 1 -12 -43.4573 0.0628
4 1 -9 60.6707 0.0466
4 1 -6 2.8125 0.0455
4 1 -3 55.3331 0.0193
4 1 0 -14.6338 -0.0451
4 1 3 -31.0092 0.0254
4 1 6 39.9906 -0.0070
4 1 9 6.9150 -0.0096
4 1 12 -11.2870 -0.0104
4 1 15 -1.1492 -0.0158
4 1 18 -0.4729 -0.0010
4 1 21 -5.7521 0.0132
4 1 24 3.9006 0.0656
4 1 27 -2.2907 0.0423
4 1 30 -3.0404 0.0516
4 1 33 2.1179 0.0488
4 1 36 -4.6817 0.0668
4 1 39 -0.6154 0.0398
4 1 42 -9.7232 0.0471
4 2 -43 4.8589 0.0022
4 2 -40 -11.1254 0.0204
4 2 -37 2.7604 0.0015
4 2 -34 0.3477 0.0099
4 2 -31 2.5068 0.0147
4 2 -28 3.0383 0.0506
4 2 -25 2.9121 0.0419
4 2 -22 -0.7559 0.0554
4 2 -19 4.5586 0.0495
4 2 -16 8.8611 0.0762
4 2 -13 -38.0578 0.0477
4 2 -10 78.1575 0.0494
4 2 -7 -9.9384 0.0560
4 2 -4 -21.4545 0.0153
4 2 -1 32.1766 0.0336
4 2 2 23.9268 -0.0104
4 2 5 -52.1179 -0.0032
4 2 8 33.2547 -0.0298
4 2 11 -1.6765 -0.0246
4 2 14 -22.4338 -0.0160
4 2 17 8.2196 -0.0211
4 2 20 6.6462 0.0050
4 2 23 -3.4243 0.0107
4 2 26 -3.5359 0.0333
4 2 29 -8.3146 0.0568
4 2 32 12.3742 0.0543
4 2 35 -10.9565 0.0413
4 2 38 -4.9510 0.0336
4 2 41 -3.5391 0.0079
4 3 -41 -10.5675 -0.0581
4 3 -38 -8.1570 -0.0208
4 3 -35 7.1065 -0.0147
4 3 -32 4.6287 -0.0245
4 3 -29 -5.0335 -0.0171
4 3 -26 4.9329 -0.0446
4 3 -23 6.3366 -0.0374
4 3 -20 -11.5802 -0.0268
4 3 -17 12.6234 -0.0164
4 3 -14 -16.5126 -0.0014
4 3 -11 19.5058 0.0156
4 3 -8 -5.5646 0.0353
4 3 -5 -11.1339 0.0393
4 3 -2 25.9314 0.0616
4 3 1 25.1705 0.0688
4 3 4 -45.0994 0.0635
4 3 7 18.6533 0.0609
4 3 10 12.5292 0.0476
4 3 13 -16.3566 0.0322
4 3 16 7.3016 0.0273
4 3 19 4.2178 -0.0001
4 3 22 -12.3207 0.0115
4 3 25 7.1716 0.0002
4 3 28 -4.9552 -0.0032
4 3 31 -4.1791 -0.0300
4 3 34 -1.6804 -0.0416
4 3 37 0.9442 -0.0258
4 3 40 -8.6445 -0.0065
4 4 -39 0.8879 0.0377
4 4 -36 -0.1789 -0.0121
4 4 -33 2.7442 -0.0094
4 4 -30 -5.2228 -0.0239
4 4 -27 1.5715 -0.0269
4 4 -24 0.4057 -0.0095
4 4 -21 -0.3872 -0.0139
4 4 -18 -11.7279 -0.0108
4 4 -15 7.3577 -0.0162
4 4 -12 5.6586 -0.0179
4 4 -9 -42.4549 -0.0138
4 4 -6 48.1887 -0.0052
4 4 -3 2.0739 0.0351
4 4 0 -3.2067 0.0361
4 4 3 17.8627 0.0175
4 4 6 12.5979 0.0162
4 4 9 -21.3306 0.0103
4 4 12 20.4391 0.0062
4 4 15 -18.3054 -0.0148
4 4 18 3.5391 -0.0201
4 4 21 0.4336 -0.0052
4 4 24 -11.8572 -0.0243
4 4 27 3.6602 -0.0286
4 4 30 -3.1916 -0.0326
4 4 33 0.2951 -0.0308
4 4 36 -8.2703 -0.0324
4 4 39 3.1309 0.0252
4 5 -40 5.7055 0.0060
4 5 -37 -6.3932 0.0234
4 5 -34 -3.2684 0.0310
4 5 -31 9.3236 0.0294
4 5 -28 -3.9237 0.0417
4 5 -25 -7.5193 0.0463
4 5 -22 -7.4583 0.0227
4 5 -19 7.6258 0.0017
4 5 -16 -7.1351 -0.0188
4 5 -13 7.2367 -0.0272
4 5 -10 -0.2194 -0.0368
4 5 -7 -0.9962 -0.0281
4 5 -4 14.9631 -0.0560
4 5 -1 7.2475 -0.0576
4 5 2 -11.0340 -0.0687
4 5 5 38.2508 -0.0602
4 5 8 -25.6648 -0.0345
4 5 11 0.3518 -0.0334
4 5 14 21.0897 -0.0182
4 5 17 -15.3802 -0.0043
4 5 20 -3.8841 0.0059
4 5 23 8.7032 0.0105
4 5 26 -9.8973 0.0174
4 5 29 -0.4995 0.0239
4 5 32 4.7338 0.0507
4 5 35 -8.8967 0.0315
4 5 38 1.5935 -0.0176
4 5 41 5.6074 -0.0322
4 6 -38 -5.9119 -0.0168
4 6 -35 4.0407 0.0198
4 6 -32 1.4671 0.0196
4 6 -29 -5.6550 0.0002
4 6 -26 3.0540 -0.0017
4 6 -23 0.4992 -0.0084
4 6 -20 -5.9062 0.0064
4 6 -17 7.3334 0.0060
4 6 -14 -5.8686 0.0141
4 6 -11 -4.6491 0.0111
4 6 -8 31.7463 -0.0074
4 6 -5 -23.1125 0.0012
4 6 -2 4.8567 0.0046
4 6 1 4.2985 0.0134
4 6 4 -3.5266 0.0221
4 6 7 12.2690 0.0302
4 6 10 3.2022 0.0214
4 6 13 -7.3781 0.0138
4 6 16 21.1180 0.0027
4 6 19 -3.3254 0.0188
4 6 22 -7.1617 0.0145
4 6 25 7.6213 0.0226
4 6 28 -0.7577 0.0108
4 6 31 -4.3414 -0.0094
4 6 34 5.7121 -0.0102
4 6 37 0.3147 -0.0065
4 6 40 -4.6589 -0.0129
4 7 -39 -9.6198 0.0240
4 7 -36 -5.7398 -0.0014
4 7 -33 4.1787 -0.0206
4 7 -30 7.2885 -0.0099
4 7 -27 -5.9733 -0.0156
4 7 -24 1.9065 0.0140
4 7 -21 3.7869 0.0161
4 7 -18 -8.2565 0.0374
4 7 -15 4.1617 0.0316
4 7 -12 2.7099 0.0394
4 7 -9 -8.2153 0.0525
4 7 -6 7.6934 0.0527
4 7 -3 1.8659 0.0698
4 7 0 -14.9109 0.0515
4 7 3 24.3326 0.0604
4 7 6 -12.3724 0.0179
4 7 9 5.4880 0.0166
4 7 12 6.7587 0.0008
4 7 15 -7.0964 0.0012
4 7 18 8.1465 -0.0030
4 7 21 -2.0005 -0.0151
4 7 24 2.6952 -0.0269
4 7 27 4.3901 -0.0155
4 7 30 0.6282 -0.0134
4 7 33 -4.6971 -0.0192
4 7 36 11.6469 0.0191
4 7 39 -3.5775 0.0119
4 8 -37 1.8848 -0.0032
4 8 -34 -1.9247 0.0219
4 8 -31 0.0993 0.0016
4 8 -28 -4.3283 0.0262
4 8 -25 -0.5118 0.0239
4 8 -22 -2.0044 0.0086
4 8 -19 4.7424 0.0002
4 8 -16 -0.2039 -0.0070
4 8 -13 -3.8465 -0.0019
4 8 -10 4.4834 -0.0128
4 8 -7 -13.4241 -0.0092
4 8 -4 7.7999 -0.0066
4 8 -1 1.7774 -0.0208
4 8 2 3.0408 -0.0192
4 8 5 5.1645 -0.0073
4 8 8 -9.3450 -0.0101
4 8 11 -0.4957 0.0023
4 8 14 4.4317 0.0087
4 8 17 -3.5231 0.0175
4 8 20 -0.4024 0.0123
4 8 23 7.2739 0.0146
4 8 26 -4.4238 0.0357
4 8 29 -0.5023 0.0416
4 8 32 3.5333 0.0415
4 8 35 6.4788 0.0124
4 8 38 -6.5844 -0.0414
4 9 -35 -17.5516 -0.0331
4 9 -32 2.8552 0.0012
4 9 -29 -2.7278 0.0260
4 9 -26 -1.0655 0.0093
4 9 -23 0.5063 -0.0186
4 9 -20 -0.4447 -0.0296
4 9 -17 -6.8402 -0.0282
4 9 -14 6.0171 -0.0343
4 9 -11 -4.3444 -0.0228
4 9 -8 -3.7443 -0.0057
4 9 -5 9.2406 -0.0134
4 9 -2 -7.1716 -0.0064
4 9 1 4.5674 0.0052
4 9 4 6.2102 0.0105
4 9 7 -5.6796 0.0148
4 9 10 3.1530 0.0125
4 9 13 4.3882 0.0294
4 9 16 -4.4488 0.0262
4 9 19 -2.1823 0.0297
4 9 22 3.6480 0.0196
4 9 25 -3.1170 0.0173
4 9 28 -3.1306 -0.0003
4 9 31 -2.4625 0.0039
4 9 34 11.4351 -0.0412
4 9 37 -9.4278 0.0172
4 10 -33 -5.3006 0.0152
4 10 -30 1.4651 0.0305
4 10 -27 1.4428 -0.0116
4 10 -24 -5.7164 -0.0082
4 10 -21 -4.3470 0.0024
4 10 -18 6.1745 0.0200
4 10 -15 -9.5755 0.0329
4 10 -12 3.5809 0.0363
4 10 -9 1.7567 0.0341
4 10 -6 -5.3732 0.0235
4 10 -3 9.0782 0.0147
4 10 0 -6.3175 0.0078
4 10 3 0.8861 -0.0004
4 10 6 12.7921 -0.0050
4 10 9 -0.3792 -0.0106
4 10 12 -3.5386 -0.0023
4 10 15 1.7448 -0.0066
4 10 18 -8.1102 -0.0260
4 10 21 -0.0192 -0.0397
4 10 24 8.2044 -0.0427
4 10 27 -7.5508 -0.0364
4 10 30 3.4450 -0.0075
4 10 33 -4.4246 0.0162
4 11 -34 4.7124 0.0218
4 11 -31 -6.8857 0.0033
4 11 -28 -3.2956 -0.0052
4 11 -25 5.1606 0.0079
4 11 -22 -9.0861 0.0222
4 11 -19 0.8797 0.0328
4 11 -16 13.0861 0.0184
4 11 -13 -8.8222 0.0012
4 11 -10 -1.3397 -0.0080
4 11 -7 -0.0065 -0.0200
4 11 -4 -14.4954 -0.0183
4 11 -1 13.1783 -0.0196
4 11 2 3.0342 -0.0146
4 11 5 -9.6453 -0.0215
4 11 8 15.1277 -0.0119
4 11 11 -9.3918 -0.0224
4 11 14 -3.8511 -0.0171
4 11 17 12.1351 -0.0080
4 11 20 -8.3502 -0.0032
4 11 23 -2.2158 0.0261
4 11 26 9.0950 0.0299
4 11 29 -5.7521 0.0158
4 11 32 2.7145 -0.0353
4 12 -32 3.8197 -0.0658
4 12 -29 -5.3372 -0.0207
4 12 -26 -6.8568 0.0263
4 12 -23 9.3491 0.0157
4 12 -20 -3.5401 -0.0194
4 12 -17 16.6793 -0.0190
4 12 -14 -6.6403 -0.0172
4 12 -11 -4.5249 -0.0144
4 12 -8 -5.1393 0.0062
4 12 -5 5.9810 0.0200
4 12 -2 -9.6205 0.0346
4 12 1 6.8207 0.0282
4 12 4 -0.0114 0.0144
4 12 7 -10.0900 0.0178
4 12 10 4.5290 0.0137
4 12 13 7.8818 0.0253
4 12 16 -3.9773 0.0269
4 12 19 2.2932 0.0272
4 12 22 -4.4668 0.0266
4 12 25 -4.6866 0.0134
4 12 28 3.1813 -0.0210
4 12 31 3.3929 -0.0244
4 13 -30 5.0917 0.0638
4 13 -27 6.1456 0.0260
4 13 -24 -14.9922 0.0068
4 13 -21 15.5123 -0.0012
4 13 -18 6.2881 0.0132
4 13 -15 -4.7210 0.0255
4 13 -12 4.2572 0.0408
4 13 -9 2.5631 0.0409
4 13 -6 -8.9994 0.0350
4 13 -3 10.7739 0.0398
4 13 0 -8.5038 0.0300
4 13 3 -4.3784 0.0274
4 13 6 6.3630 0.0145
4 13 9 -9.0540 0.0175
4 13 12 6.5367 0.0044
4 13 15 -5.5297 -0.0109
4 13 18 -6.8289 -0.0233
4 13 21 -0.6573 -0.0249
4 13 24 3.7339 -0.0119
4 13 27 -5.5596 -0.0088
4 13 30 0.7728 0.0634
4 14 -25 -5.8497 -0.0359
4 14 -22 7.1127 0.0043
4 14 -19 4.5791 0.0160
4 14 -16 6.0577 0.0047
4 14 -13 -2.0846 -0.0047
4 14 -10 -1.8325 -0.0072
4 14 -7 0.6668 -0.0058
4 14 -4 -9.0871 -0.0267
4 14 -1 7.5019 -0.0162
4 14 2 0.7847 -0.0014
4 14 5 -2.7976 0.0049
4 14 8 -0.8891 -0.0036
4 14 11 -1.2526 -0.0087
4 14 14 -13.9853 -0.0008
4 14 17 4.5267 0.0073
4 14 20 4.7006 0.0319
4 14 23 -5.9533 0.0102
4 14 26 -1.1508 -0.0334
4 15 -23 1.2371 -0.0080
4 15 -20 9.6765 -0.0338
4 15 -17 -4.1283 -0.0079
4 15 -14 7.6345 -0.0108
4 15 -11 -12.3117 -0.0099
4 15 -8 -10.4036 -0.0239
4 15 -5 16.2586 -0.0092
4 15 -2 -2.4024 0.0085
4 15 1 -2.5517 0.0005
4 15 4 3.6227 0.0060
4 15 7 -0.0841 0.0181
4 15 10 -0.2190 0.0276
4 15 13 -1.4628 0.0300
4 15 16 -0.2142 0.0061
4 15 19 -3.4641 0.0031
4 15 22 4.4013 -0.0159
4 15 25 -8.0191 -0.0129
4 16 -21 7.7550 -0.0192
4 16 -18 -1.6266 0.0242
4 16 -15 -5.5645 0.0411
4 16 -12 -0.4012 0.0373
4 16 -9 3.9098 -0.0005
4 16 -6 1.1804 0.0033
4 16 -3 2.0617 0.0100
4 16 0 1.9230 0.0274
4 16 3 -0.4487 0.0029
4 16 6 1.1188 -0.0082
4 16 9 3.9497 -0.0006
4 16 12 -4.8230 -0.0228
4 16 15 2.8733 -0.0141
4 16 18 -4.7919 -0.0286
4 16 21 -1.8611 -0.0039
4 17 -16 2.0630 -0.0135
4 17 -13 4.3294 -0.0196
4 17 -10 2.0334 -0.0174
4 17 -7 -1.1657 -0.0142
4 17 -4 5.7807 0.0035
4 17 -1 -0.8796 -0.0040
4 17 2 -2.2590 0.0010
4 17 5 3.7826 -0.0189
4 17 8 0.8132 -0.0107
4 17 11 -0.8637 -0.0188
4 17 14 -3.6459 0.0303
4 17 17 0.1300 0.0541
4 18 -11 10.8978 0.0076
4 18 -8 -12.1404 0.0151
4 18 -5 7.4206 0.0235
4 18 -2 3.7544 0.0193
4 18 1 -1.4974 0.0230
4 18 4 0.4253 0.0245
4 18 7 4.4474 0.0164
4 18 10 -6.4432 -0.0283
5 1 -41 -10.5514 -0.0001
5 1 -38 7.6788 0.0059
5 1 -35 0.2682 0.0175
5 1 -32 7.5971 0.0037
5 1 -29 -5.9868 -0.0109
5 1 -26 -1.4252 0.0306
5 1 -23 20.1122 0.0428
5 1 -20 -7.6427 0.0672
5 1 -17 -8.9451 0.0822
5 1 -14 0.6388 0.0683
5 1 -11 -2.5587 0.0836
5 1 -8 38.7224 0.0813
5 1 -5 0.6070 0.0606
5 1 -2 -7.2828 0.0388
5 1 1 -21.9181 0.0412
5 1 4 20.4412 -0.0030
5 1 7 21.7350 0.0347
5 1 10 -6.2360 0.0117
5 1 13 -26.6563 0.0015
5 1 16 1.0598 -0.0058
5 1 19 14.5505 0.0042
5 1 22 -10.1866 0.0254
5 1 25 -2.7770 0.0322
5 1 28 -1.1152 0.0431
5 1 31 -5.4741 0.0674
5 1 34 4.2948 0.0500
5 1 37 4.3051 0.0270
5 1 40 -6.7263 0.0470
5 2 -42 -16.1038 0.0197
5 2 -39 -0.3293 0.0165
5 2 -36 7.5522 -0.0013
5 2 -33 2.4602 -0.0006
5 2 -30 -4.6971 -0.0222
5 2 -27 5.5056 -0.0318
5 2 -24 9.8716 -0.0303
5 2 -21 -1.9136 -0.0220
5 2 -18 -2.4819 -0.0071
5 2 -15 -2.8871 -0.0250
5 2 -12 -4.8346 0.0055
5 2 -9 28.0389 0.0050
5 2 -6 -9.0099 0.0142
5 2 -3 -3.4935 0.0128
5 2 0 1.7001 -0.0016
5 2 3 -3.9043 0.0382
5 2 6 0.4840 0.0184
5 2 9 -7.7813 0.0425
5 2 12 -5.1600 0.0597
5 2 15 3.0036 0.0372
5 2 18 -3.4338 0.0324
5 2 21 3.1082 0.0311
5 2 24 -0.9415 0.0635
5 2 27 -4.4173 0.0459
5 2 30 -2.8823 0.0320
5 2 33 -0.4896 0.0188
5 2 36 -3.9708 0.0366
5 2 39 -0.9086 0.0526
5 2 42 -1.3469 0.0159
5 3 -40 2.4838 -0.0099
5 3 -37 1.7300 0.0066
5 3 -34 1.6552 -0.0056
5 3 -31 0.4070 0.0035
5 3 -28 6.7041 -0.0052
5 3 -25 -4.5320 -0.0151
5 3 -22 -3.1287 -0.0267
5 3 -19 4.6974 -0.0466
5 3 -16 2.1187 -0.0518
5 3 -13 -4.1785 -0.0308
5 3 -10 -5.6865 -0.0221
5 3 -7 -3.4009 -0.0235
5 3 -4 8.6331 -0.0144
5 3 -1 13.7559 -0.0168
5 3 2 -8.7588 0.0069
5 3 5 12.2974 -0.0009
5 3 8 -13.9425 0.0256
5 3 11 7.2981 0.0259
5 3 14 -0.4615 0.0291
5 3 17 0.7086 0.0362
5 3 20 -1.7443 0.0183
5 3 23 -2.2764 -0.0021
5 3 26 -6.4334 -0.0071
5 3 29 1.6207 0.0212
5 3 32 0.7544 0.0309
5 3 35 -17.2864 0.0321
5 3 38 4.2255 -0.0495
5 3 41 4.5056 -0.0406
5 4 -41 8.0051 -0.0383
5 4 -38 -5.5058 -0.0221
5 4 -35 9.0592 0.0262
5 4 -32 3.3457 0.0264
5 4 -29 -8.1628 0.0245
5 4 -26 -0.6579 0.0230
5 4 -23 1.6034 0.0320
5 4 -20 -5.2852 0.0195
5 4 -17 1.3840 0.0136
5 4 -14 1.1289 0.0255
5 4 -11 -6.8103 0.0228
5 4 -8 -1.0408 0.0081
5 4 -5 13.9670 -0.0111
5 4 -2 7.1498 -0.0372
5 4 1 4.3070 -0.0473
5 4 4 1.9457 -0.0504
5 4 7 17.3887 -0.0549
5 4 10 -7.8530 -0.0616
5 4 13 -3.6149 -0.0720
5 4 16 5.3952 -0.0607
5 4 19 -4.4007 -0.0600
5 4 22 -2.1539 -0.0388
5 4 25 2.6288 -0.0167
5 4 28 -8.3354 -0.0147
5 4 31 2.8826 -0.0093
5 4 34 -0.9789 -0.0006
5 4 37 -8.9309 0.0237
5 4 40 5.1863 -0.0034
5 5 -39 -2.6878 0.0589
5 5 -36 -11.1036 -0.0049
5 5 -33 4.5924 -0.0364
5 5 -30 9.7715 -0.0117
5 5 -27 -4.3460 0.0105
5 5 -24 -1.4109 0.0006
5 5 -21 -1.2157 0.0141
5 5 -18 -5.9519 0.0104
5 5 -15 8.2333 0.0169
5 5 -12 -0.6863 -0.0008
5 5 -9 -1.9853 -0.0065
5 5 -6 18.4976 0.0154
5 5 -3 -6.0862 -0.0102
5 5 0 -7.5207 -0.0003
5 5 3 18.2513 -0.0280
5 5 6 -5.1190 -0.0274
5 5 9 2.5242 -0.0436
5 5 12 7.6601 -0.0335
5 5 15 -8.4447 -0.0201
5 5 18 7.4379 -0.0103
5 5 21 1.7394 -0.0043
5 5 24 -1.1858 -0.0100
5 5 27 1.3983 -0.0263
5 5 30 3.7175 -0.0093
5 5 33 -1.6886 -0.0160
5 5 36 2.1739 -0.0016
5 5 39 -4.5531 0.0787
5 6 -37 -10.3784 -0.0386
5 6 -34 9.0979 -0.0361
5 6 -31 9.1000 -0.0323
5 6 -28 -6.4278 -0.0293
5 6 -25 3.9619 -0.0341
5 6 -22 3.6651 -0.0331
5 6 -19 -1.2629 -0.0448
5 6 -16 0.4826 -0.0251
5 6 -13 7.2246 -0.0089
5 6 -10 -2.3863 0.0222
5 6 -7 -6.1000 0.0360
5 6 -4 4.4341 0.0348
5 6 -1 6.7832 0.0431
5 6 2 -16.9239 0.0423
5 6 5 20.6700 0.0591
5 6 8 -11.2053 0.0459
5 6 11 5.5840 0.0593
5 6 14 11.6810 0.0465
5 6 17 -9.8133 0.0340
5 6 20 0.5656 0.0034
5 6 23 7.3064 -0.0051
5 6 26 1.3589 -0.0060
5 6 29 2.8726 -0.0042
5 6 32 -6.2842 -0.0098
5 6 35 11.6192 -0.0281
5 6 38 -3.2863 -0.0580
5 7 -38 -5.5076 -0.0374
5 7 -35 0.7741 -0.0158
5 7 -32 2.0295 0.0230
5 7 -29 5.2789 0.0220
5 7 -26 -0.4847 0.0015
5 7 -23 4.0391 -0.0198
5 7 -20 -2.2430 -0.0081
5 7 -17 6.1963 0.0035
5 7 -14 -2.6620 0.0101
5 7 -11 1.3407 0.0051
5 7 -8 1.8048 0.0113
5 7 -5 -11.5208 0.0074
5 7 -2 13.0971 0.0095
5 7 1 0.3718 0.0096
5 7 4 -1.4305 0.0030
5 7 7 0.7839 0.0117
5 7 10 0.1732 0.0053
5 7 13 -1.5727 -0.0051
5 7 16 4.8900 -0.0107
5 7 19 -0.3006 0.0070
5 7 22 -4.2685 0.0229
5 7 25 0.9189 0.0122
5 7 28 2.2066 0.0060
5 7 31 -2.4803 0.0064
5 7 34 8.5062 0.0008
5 7 37 -1.3195 0.0078
5 8 -36 -8.2382 0.0505
5 8 -33 -2.5071 0.0549
5 8 -30 6.0075 0.0139
5 8 -27 0.6743 -0.0029
5 8 -24 -0.2909 -0.0016
5 8 -21 -4.6985 0.0151
5 8 -18 10.1675 -0.0012
5 8 -15 -5.8915 -0.0160
5 8 -12 -1.1929 -0.0184
5 8 -9 4.9426 -0.0238
5 8 -6 -9.0417 -0.0277
5 8 -3 14.4724 -0.0366
5 8 0 -0.8468 -0.0281
5 8 3 0.5746 -0.0401
5 8 6 -2.0773 -0.0225
5 8 9 -1.3904 -0.0211
5 8 12 5.0257 -0.0161
5 8 15 0.7342 0.0096
5 8 18 -0.5377 0.0144
5 8 21 -2.2640 0.0173
5 8 24 3.3280 0.0192
5 8 27 -3.8399 0.0135
5 8 30 4.5359 -0.0063
5 8 33 1.0565 0.0470
5 8 36 -8.5082 0.0699
5 9 -34 -15.0556 -0.0042
5 9 -31 5.2006 -0.0297
5 9 -28 -6.5320 -0.0313
5 9 -25 13.0945 -0.0096
5 9 -22 -4.9080 -0.0002
5 9 -19 -0.8770 -0.0068
5 9 -16 -4.0582 0.0021
5 9 -13 -5.9528 0.0012
5 9 -10 9.0593 0.0004
5 9 -7 -1.0210 -0.0064
5 9 -4 -3.5849 0.0063
5 9 -1 4.3117 0.0154
5 9 2 9.2376 0.0138
5 9 5 -3.2656 0.0175
5 9 8 8.0673 0.0168
5 9 11 -2.2481 0.0164
5 9 14 -1.9651 -0.0007
5 9 17 2.2877 -0.0089
5 9 20 -1.7542 -0.0038
5 9 23 0.0737 -0.0033
5 9 26 4.7023 -0.0129
5 9 29 0.6488 -0.0123
5 9 32 -3.0051 0.0002
5 9 35 -5.8267 -0.0506
5 10 -32 -1.6086 -0.0389
5 10 -29 -5.6912 0.0029
5 10 -26 -4.9517 0.0284
5 10 -23 6.8703 0.0047
5 10 -20 0.3303 0.0063
5 10 -17 -4.7377 0.0066
5 10 -14 5.0707 0.0110
5 10 -11 -3.9405 0.0149
5 10 -8 -5.3648 0.0201
5 10 -5 11.0144 0.0139
5 10 -2 -14.2787 0.0016
5 10 1 7.7117 -0.0096
5 10 4 12.0910 -0.0002
5 10 7 -6.9684 -0.0248
5 10 10 3.5077 -0.0194
5 10 13 2.3728 -0.0234
5 10 16 -7.8428 -0.0141
5 10 19 4.3555 -0.0083
5 10 22 1.4243 -0.0107
5 10 25 -1.9264 -0.0016
5 10 28 0.3140 -0.0186
5 10 31 3.8840 -0.0539
5 10 34 2.5360 -0.0031
5 11 -30 -13.9847 0.0561
5 11 -27 12.3750 -0.0033
5 11 -24 -16.5079 -0.0168
5 11 -21 5.0853 -0.0209
5 11 -18 17.8083 -0.0160
5 11 -15 -11.0317 -0.0068
5 11 -12 1.2288 -0.0095
5 11 -9 0.6848 -0.0147
5 11 -6 -8.6994 -0.0202
5 11 -3 7.2760 -0.0235
5 11 0 -4.1640 -0.0291
5 11 3 -6.6172 -0.0258
5 11 6 9.0630 -0.0127
5 11 9 -4.9355 -0.0089
5 11 12 5.9807 0.0028
5 11 15 5.5497 0.0072
5 11 18 -8.8030 0.0072
5 11 21 5.6868 -0.0068
5 11 24 -5.9082 -0.0092
5 11 27 2.5501 0.0240
5 11 30 8.7760 0.0663
5 12 -28 -5.5743 -0.0094
5 12 -25 -0.1677 -0.0392
5 12 -22 3.1365 -0.0255
5 12 -19 1.6807 -0.0041
5 12 -16 10.6134 -0.0025
5 12 -13 -12.9931 0.0059
5 12 -10 2.5935 0.0106
5 12 -7 0.8457 0.0104
5 12 -4 -6.3107 0.0046
5 12 -1 7.5295 0.0145
5 12 2 2.1929 0.0243
5 12 5 -8.8464 0.0318
5 12 8 6.7400 0.0145
5 12 11 -1.9208 0.0124
5 12 14 -4.4051 0.0093
5 12 17 8.7634 0.0054
5 12 20 -3.0859 -0.0146
5 12 23 -5.0570 0.0032
5 12 26 -0.1554 0.0158
5 12 29 6.4574 0.0012
5 13 -26 -2.4679 -0.0112
5 13 -23 2.5910 0.0150
5 13 -20 6.3822 0.0307
5 13 -17 -2.8508 0.0307
5 13 -14 0.2637 0.0279
5 13 -11 -6.1561 0.0072
5 13 -8 -4.7422 0.0036
5 13 -5 6.8531 0.0017
5 13 -2 6.1334 0.0050
5 13 1 -5.1431 0.0049
5 13 4 4.4705 -0.0082
5 13 7 -9.4252 -0.0081
5 13 10 -2.1183 -0.0021
5 13 13 1.8773 -0.0017
5 13 16 -2.5168 -0.0070
5 13 19 -0.4435 -0.0202
5 13 22 -0.7468 -0.0165
5 13 25 -7.3756 -0.0038
5 13 28 4.5987 -0.0183
5 14 -24 -10.5714 0.0381
5 14 -21 10.1407 0.0165
5 14 -18 8.8205 -0.0027
5 14 -15 -16.1787 -0.0327
5 14 -12 2.3196 -0.0234
5 14 -9 -4.4792 -0.0269
5 14 -6 0.4168 -0.0117
5 14 -3 -0.0364 -0.0222
5 14 0 -2.6177 -0.0172
5 14 3 -0.2423 -0.0153
5 14 6 2.5188 -0.0079
5 14 9 -5.1280 -0.0085
5 14 12 -5.0928 -0.0139
5 14 15 5.6096 -0.0181
5 14 18 -8.7117 0.0054
5 14 21 0.2999 0.0100
5 14 24 2.6418 0.0756
5 15 -22 0.8023 -0.0448
5 15 -19 7.8718 -0.0376
5 15 -16 -16.1285 0.0002
5 15 -13 7.9246 -0.0170
5 15 -10 -8.4759 0.0302
5 15 -7 5.5519 0.0183
5 15 -4 -6.5475 0.0209
5 15 -1 0.0189 0.0089
5 15 2 4.3069 -0.0103
5 15 5 3.6562 -0.0086
5 15 8 -0.7326 0.0071
5 15 11 -3.7411 0.0192
5 15 14 -6.8166 0.0085
5 15 17 0.2322 0.0079
5 15 20 2.1222 0.0180
5 16 -17 -8.3148 0.0699
5 16 -14 1.1242 0.0376
5 16 -11 0.0360 -0.0010
5 16 -8 -3.0633 0.0279
5 16 -5 5.9435 0.0022
5 16 -2 3.8122 -0.0155
5 16 1 -0.7604 -0.0131
5 16 4 3.6888 0.0072
5 16 7 0.7975 -0.0003
5 16 10 -2.8358 -0.0052
5 16 13 -1.2333 0.0228
5 16 16 -5.2479 0.0037
5 17 -12 0.8335 -0.0522
5 17 -9 0.0376 -0.0282
5 17 -6 7.2667 -0.0167
5 17 -3 -0.6948 0.0026
5 17 0 0.4277 -0.0006
5 17 3 2.2133 0.0036
5 17 6 0.4494 -0.0092
5 17 9 0.9587 -0.0290
5 17 12 -2.2202 -0.0072
5 18 -4 1.4504 0.0279
5 18 -1 0.7546 0.0366
5 18 2 -2.7417 0.0517
6 1 -40 -6.5038 0.0292
6 1 -37 9.1331 0.0363
6 1 -34 1.0205 0.0037
6 1 -31 -6.3615 -0.0195
6 1 -28 5.2633 -0.0227
6 1 -25 10.4491 -0.0252
6 1 -22 -10.6523 -0.0023
6 1 -19 5.4666 -0.0165
6 1 -16 3.9040 -0.0125
6 1 -13 -25.7954 0.0121
6 1 -10 17.3794 -0.0210
6 1 -7 46.7745 0.0191
6 1 -4 -55.3071 -0.0089
6 1 -1 16.6565 0.0287
6 1 2 -6.6516 0.0215
6 1 5 -2.9898 0.0746
6 1 8 19.1244 0.0654
6 1 11 -26.4346 0.0694
6 1 14 -8.5271 0.0649
6 1 17 18.0570 0.0507
6 1 20 -7.3380 0.0551
6 1 23 -1.2745 0.0599
6 1 26 -3.2642 0.0431
6 1 29 -2.1763 0.0375
6 1 32 2.6127 0.0390
6 1 35 0.3174 0.0217
6 1 38 1.3188 -0.0032
6 1 41 1.9462 -0.0364
6 2 -41 6.2712 -0.0393
6 2 -38 0.0530 0.0173
6 2 -35 5.7673 0.0531
6 2 -32 -0.9519 0.0487
6 2 -29 0.5384 0.0267
6 2 -26 -2.6827 0.0104
6 2 -23 6.2830 0.0040
6 2 -20 0.0821 -0.0217
6 2 -17 -18.5107 -0.0226
6 2 -14 20.1523 -0.0176
6 2 -11 -3.2388 -0.0441
6 2 -8 -16.9419 -0.0318
6 2 -5 28.1438 -0.0649
6 2 -2 -3.8896 -0.0487
6 2 1 -17.8574 -0.0573
6 2 4 12.7313 -0.0132
6 2 7 -12.0088 0.0140
6 2 10 -0.8619 0.0249
6 2 13 -7.0941 0.0288
6 2 16 12.7221 0.0540
6 2 19 1.0247 0.0609
6 2 22 -7.1939 0.0516
6 2 25 1.9405 0.0660
6 2 28 3.5192 0.0594
6 2 31 -8.8250 0.0678
6 2 34 0.3852 0.0317
6 2 37 3.4954 0.0342
6 2 40 -7.7684 -0.0250
6 3 -39 10.6182 0.0428
6 3 -36 -1.9514 0.0103
6 3 -33 -0.6908 0.0020
6 3 -30 4.8190 0.0067
6 3 -27 7.8157 0.0265
6 3 -24 -16.7091 0.0142
6 3 -21 3.2862 0.0295
6 3 -18 -11.7520 0.0421
6 3 -15 8.2325 0.0286
6 3 -12 2.5205 0.0153
6 3 -9 -14.4641 0.0084
6 3 -6 5.1780 0.0161
6 3 -3 22.5600 0.0033
6 3 0 -10.4853 -0.0025
6 3 3 -1.9984 -0.0249
6 3 6 1.6697 -0.0378
6 3 9 8.6218 -0.0377
6 3 12 3.6871 -0.0290
6 3 15 -3.9297 -0.0203
6 3 18 -0.4659 -0.0262
6 3 21 5.0325 -0.0175
6 3 24 -4.7208 -0.0217
6 3 27 4.1862 -0.0067
6 3 30 -2.0745 -0.0266
6 3 33 -1.5849 0.0002
6 3 36 -7.0508 0.0313
6 3 39 3.0866 0.0906
6 4 -40 11.8242 -0.0156
6 4 -37 0.1713 -0.0269
6 4 -34 0.4195 -0.0382
6 4 -31 3.0861 -0.0118
6 4 -28 -2.1577 -0.0015
6 4 -25 -1.4263 0.0077
6 4 -22 -3.9157 0.0008
6 4 -19 -8.7616 0.0117
6 4 -16 8.6742 0.0092
6 4 -13 -0.7237 0.0136
6 4 -10 -6.8327 0.0456
6 4 -7 0.2587 0.0393
6 4 -4 22.6126 0.0344
6 4 -1 -6.9754 0.0004
6 4 2 -6.1162 -0.0186
6 4 5 15.0055 -0.0308
6 4 8 -1.7757 -0.0304
6 4 11 -5.1145 -0.0368
6 4 14 6.5606 -0.0312
6 4 17 -14.0834 -0.0422
6 4 20 9.5966 -0.0496
6 4 23 6.6682 -0.0638
6 4 26 -4.9687 -0.0500
6 4 29 2.4294 -0.0118
6 4 32 0.2166 -0.0003
6 4 35 5.6066 -0.0094
6 4 38 -1.1376 -0.0458
6 5 -38 3.9006 -0.0500
6 5 -35 -3.0186 -0.0068
6 5 -32 -2.7946 0.0062
6 5 -29 -0.5454 -0.0316
6 5 -26 5.0063 -0.0458
6 5 -23 2.8182 -0.0507
6 5 -20 1.3944 -0.0535
6 5 -17 3.1750 -0.0443
6 5 -14 -10.4702 -0.0226
6 5 -11 5.0672 -0.0148
6 5 -8 7.1705 -0.0318
6 5 -5 -7.5978 -0.0392
6 5 -2 11.6510 -0.0240
6 5 1 -4.9673 -0.0033
6 5 4 -5.7300 0.0179
6 5 7 9.1063 0.0260
6 5 10 -9.9541 0.0272
6 5 13 -0.3106 0.0198
6 5 16 4.5855 0.0130
6 5 19 -1.1285 0.0131
6 5 22 -1.2316 0.0275
6 5 25 2.4081 0.0296
6 5 28 0.8880 -0.0071
6 5 31 3.6648 -0.0141
6 5 34 6.1663 -0.0038
6 5 37 3.0549 -0.0408
6 6 -36 -15.4554 0.0360
6 6 -33 16.9559 0.0028
6 6 -30 6.2151 -0.0270
6 6 -27 -0.7748 -0.0170
6 6 -24 -2.2690 -0.0037
6 6 -21 6.9277 -0.0047
6 6 -18 3.9277 -0.0055
6 6 -15 -7.1134 -0.0199
6 6 -12 1.8453 -0.0276
6 6 -9 11.2505 -0.0209
6 6 -6 -9.8098 -0.0118
6 6 -3 -7.8831 0.0007
6 6 0 21.0172 -0.0041
6 6 3 -12.2518 0.0173
6 6 6 -5.5877 -0.0002
6 6 9 9.9823 0.0057
6 6 12 1.1813 0.0035
6 6 15 -9.5400 0.0178
6 6 18 9.2333 0.0284
6 6 21 -7.8725 0.0106
6 6 24 -2.4036 0.0000
6 6 27 2.2977 -0.0033
6 6 30 0.7806 0.0105
6 6 33 3.3409 -0.0094
6 6 36 1.0914 0.0399
6 7 -37 3.9924 0.0509
6 7 -34 4.0971 -0.0196
6 7 -31 4.2863 0.0077
6 7 -28 1.1761 0.0345
6 7 -25 0.4411 0.0365
6 7 -22 3.2708 0.0437
6 7 -19 -7.0478 0.0189
6 7 -16 6.5469 0.0207
6 7 -13 0.5451 0.0258
6 7 -10 2.9799 0.0138
6 7 -7 -3.0844 0.0095
6 7 -4 -2.0597 -0.0028
6 7 -1 7.8684 -0.0123
6 7 2 2.3011 -0.0291
6 7 5 2.7181 -0.0346
6 7 8 -11.3396 -0.0352
6 7 11 4.1945 -0.0265
6 7 14 4.3655 -0.0228
6 7 17 -4.8366 -0.0391
6 7 20 2.6822 -0.0331
6 7 23 -5.0681 -0.0095
6 7 26 1.3840 0.0060
6 7 29 2.1161 -0.0034
6 7 32 -2.9876 0.0139
6 7 35 -2.4835 0.0052
6 8 -35 3.8222 -0.0541
6 8 -32 0.0832 0.0110
6 8 -29 -4.4833 0.0126
6 8 -26 3.0415 0.0127
6 8 -23 2.4450 -0.0097
6 8 -20 1.0322 -0.0094
6 8 -17 -4.0615 -0.0007
6 8 -14 8.1317 0.0087
6 8 -11 -7.5077 0.0096
6 8 -8 -1.8074 -0.0027
6 8 -5 7.4025 -0.0043
6 8 -2 0.6667 -0.0057
6 8 1 -2.7102 0.0077
6 8 4 11.4522 0.0027
6 8 7 -5.6476 -0.0011
6 8 10 -2.0041 0.0037
6 8 13 5.0858 0.0009
6 8 16 -1.7093 0.0078
6 8 19 -1.2681 0.0084
6 8 22 2.1139 0.0013
6 8 25 0.1732 0.0002
6 8 28 3.1820 0.0048
6 8 31 -4.2926 -0.0300
6 8 34 -2.1606 -0.0531
6 9 -33 -15.3223 0.0274
6 9 -30 3.0767 -0.0061
6 9 -27 6.1790 -0.0248
6 9 -24 -4.2607 -0.0331
6 9 -21 1.0371 -0.0133
6 9 -18 5.1387 -0.0124
6 9 -15 -5.1446 0.0089
6 9 -12 -3.3921 0.0135
6 9 -9 13.0520 0.0097
6 9 -6 -9.9794 0.0170
6 9 -3 4.7166 0.0051
6 9 0 0.4234 0.0154
6 9 3 -0.1842 0.0126
6 9 6 6.5034 0.0224
6 9 9 4.9848 0.0207
6 9 12 -3.1989 0.0147
6 9 15 0.7001 0.0096
6 9 18 -5.7909 0.0046
6 9 21 -0.1497 0.0087
6 9 24 1.7205 -0.0165
6 9 27 2.8116 -0.0348
6 9 30 2.9222 0.0072
6 9 33 -4.9281 0.0260
6 10 -31 1.2811 -0.0262
6 10 -28 -0.9385 -0.0168
6 10 -25 -1.4034 -0.0176
6 10 -22 -4.3910 0.0032
6 10 -19 -2.4203 0.0175
6 10 -16 7.9612 0.0145
6 10 -13 -0.1375 -0.0047
6 10 -10 6.9618 -0.0174
6 10 -7 1.5915 -0.0135
6 10 -4 -8.7309 -0.0153
6 10 -1 1.9212 -0.0163
6 10 2 6.0195 -0.0178
6 10 5 -5.2223 -0.0160
6 10 8 9.8388 -0.0109
6 10 11 -4.3078 -0.0190
6 10 14 -2.4249 -0.0270
6 10 17 4.2444 -0.0251
6 10 20 -4.8242 -0.0063
6 10 23 -1.2304 0.0086
6 10 26 6.7166 0.0186
6 10 29 1.5927 0.0265
6 10 32 -4.4732 -0.0685
6 11 -29 -21.3467 -0.0441
6 11 -26 5.5257 -0.0030
6 11 -23 6.8338 0.0017
6 11 -20 -5.1443 0.0061
6 11 -17 -2.4952 -0.0235
6 11 -14 4.6642 -0.0336
6 11 -11 1.5546 -0.0221
6 11 -8 -7.0680 -0.0270
6 11 -5 10.5262 -0.0141
6 11 -2 -5.4913 -0.0085
6 11 1 5.1644 -0.0064
6 11 4 -2.1350 -0.0080
6 11 7 -3.0573 -0.0045
6 11 10 7.3264 0.0022
6 11 13 3.4736 0.0026
6 11 16 -0.2741 0.0057
6 11 19 -0.6099 0.0211
6 11 22 3.1971 0.0106
6 11 25 -10.7469 -0.0232
6 11 28 9.4203 -0.0082
6 11 31 1.1118 -0.0048
6 12 -27 8.3396 -0.0010
6 12 -24 -2.8043 0.0207
6 12 -21 0.4852 0.0026
6 12 -18 -2.3778 -0.0121
6 12 -15 -4.3064 -0.0149
6 12 -12 1.5523 0.0094
6 12 -9 -2.6201 0.0186
6 12 -6 -4.5150 0.0083
6 12 -3 10.3471 0.0046
6 12 0 -0.7484 0.0073
6 12 3 -3.6513 0.0015
6 12 6 5.9561 0.0067
6 12 9 1.7648 0.0096
6 12 12 2.7455 0.0041
6 12 15 -0.3144 0.0068
6 12 18 -2.5222 -0.0046
6 12 21 0.4528 -0.0035
6 12 24 -11.3648 0.0069
6 12 27 8.1147 0.0179
6 13 -25 3.4879 0.0111
6 13 -22 -2.1340 0.0035
6 13 -19 4.8176 -0.0048
6 13 -16 -6.7216 0.0270
6 13 -13 -0.5546 0.0136
6 13 -10 -3.8939 0.0111
6 13 -7 0.5731 -0.0108
6 13 -4 -3.8383 -0.0150
6 13 -1 5.3031 -0.0290
6 13 2 -2.7606 -0.0258
6 13 5 0.1588 -0.0202
6 13 8 1.8756 -0.0290
6 13 11 -6.9228 -0.0169
6 13 14 -2.2246 -0.0127
6 13 17 1.5682 0.0018
6 13 20 1.6749 0.0206
6 13 23 -6.4452 -0.0249
6 13 26 1.8045 0.0242
6 14 -23 -6.8920 0.0138
6 14 -20 8.1771 -0.0167
6 14 -17 -7.9299 -0.0006
6 14 -14 3.6358 0.0112
6 14 -11 -5.6671 -0.0205
6 14 -8 -5.2544 -0.0210
6 14 -5 8.0264 -0.0195
6 14 -2 -4.7726 -0.0179
6 14 1 -6.3705 -0.0174
6 14 4 7.6282 0.0037
6 14 7 -2.7863 0.0067
6 14 10 -6.8627 0.0041
6 14 13 -0.6860 0.0057
6 14 16 -5.5287 -0.0018
6 14 19 5.8853 -0.0107
6 14 22 1.1328 -0.0897
6 15 -18 0.1787 -0.0031
6 15 -15 -18.8633 0.0127
6 15 -12 7.3022 0.0027
6 15 -9 2.9108 -0.0010
6 15 -6 5.1557 0.0078
6 15 -3 -11.9017 0.0200
6 15 0 8.7320 0.0169
6 15 3 4.8289 0.0044
6 15 6 -3.1866 0.0103
6 15 9 -1.0035 -0.0029
6 15 12 -2.2590 -0.0064
6 15 15 0.4913 -0.0033
6 15 18 -1.9025 0.0284
6 16 -13 -4.2759 -0.0380
6 16 -10 4.6417 -0.0126
6 16 -7 13.1555 0.0149
6 16 -4 -16.2472 0.0045
6 16 -1 4.1472 -0.0151
6 16 2 12.1817 -0.0096
6 16 5 -1.8325 -0.0342
6 16 8 -7.0286 -0.0381
6 16 11 10.0008 0.0094
6 16 14 -3.3461 0.0249
6 17 -8 -8.8041 0.0429
6 17 -5 2.2674 -0.0090
6 17 -2 7.4878 -0.0058
6 17 1 -2.3232 0.0101
6 17 4 -0.3469 -0.0072
6 17 7 0.4940 -0.0190
7 1 -39 5.3369 0.0549
7 1 -36 3.1213 0.0482
7 1 -33 -2.4071 0.0544
7 1 -30 1.8531 0.0008
7 1 -27 15.2834 0.0474
7 1 -24 -14.6800 0.0545
7 1 -21 -2.7245 0.0600
7 1 -18 5.0655 0.0231
7 1 -15 2.0527 0.0184
7 1 -12 -0.5059 0.0237
7 1 -9 4.6648 0.0149
7 1 -6 -2.4946 -0.0071
7 1 -3 6.1214 -0.0358
7 1 0 -13.4545 -0.0049
7 1 3 1.3177 -0.0195
7 1 6 9.9618 -0.0040
7 1 9 -15.1408 -0.0006
7 1 12 -0.6195 0.0156
7 1 15 11.2487 0.0250
7 1 18 -15.9694 0.0181
7 1 21 9.8509 0.0166
7 1 24 5.0627 0.0684
7 1 27 -8.1117 0.0400
7 1 30 2.3042 0.0424
7 1 33 1.1104 0.0060
7 1 36 -0.6983 0.0190
7 1 39 -0.3663 0.0559
7 2 -40 5.3470 0.0247
7 2 -37 4.7579 -0.0152
7 2 -34 1.4898 -0.0190
7 2 -31 4.5115 0.0018
7 2 -28 3.6524 0.0367
7 2 -25 -7.8366 0.0375
7 2 -22 -6.3193 0.0224
7 2 -19 1.8848 0.0414
7 2 -16 5.6338 0.0511
7 2 -13 -3.0158 0.0310
7 2 -10 -0.2841 0.0360
7 2 -7 1.6163 0.0458
7 2 -4 -8.8384 0.0634
7 2 -1 22.2249 0.0182
7 2 2 -22.7782 0.0203
7 2 5 3.9298 -0.0019
7 2 8 -0.8370 0.0033
7 2 11 -2.0954 0.0088
7 2 14 5.1018 0.0092
7 2 17 13.2622 0.0077
7 2 20 -5.7722 0.0101
7 2 23 -0.9451 0.0026
7 2 26 4.3045 -0.0213
7 2 29 1.7813 0.0156
7 2 32 -0.2177 0.0270
7 2 35 2.8510 0.0145
7 2 38 -8.0282 -0.0138
7 3 -38 13.3100 -0.0378
7 3 -35 0.9132 -0.0277
7 3 -32 -11.8607 0.0046
7 3 -29 8.4189 -0.0111
7 3 -26 0.1457 -0.0450
7 3 -23 -3.8663 -0.0245
7 3 -20 3.1437 -0.0130
7 3 -17 -10.8837 0.0009
7 3 -14 2.5874 0.0111
7 3 -11 9.0504 0.0383
7 3 -8 -16.4657 0.0450
7 3 -5 13.7510 0.0407
7 3 -2 15.6926 0.0557
7 3 1 -23.4243 0.0490
7 3 4 1.9932 0.0575
7 3 7 8.8889 0.0403
7 3 10 -5.8884 0.0357
7 3 13 5.1020 0.0158
7 3 16 2.7602 -0.0138
7 3 19 -3.7596 -0.0064
7 3 22 3.3912 -0.0126
7 3 25 1.0444 -0.0112
7 3 28 4.0467 -0.0182
7 3 31 2.8664 -0.0507
7 3 34 -0.9966 -0.0290
7 3 37 3.3798 -0.0342
7 3 40 -5.4208 0.0213
7 4 -39 7.8369 0.0367
7 4 -36 -9.1593 0.0325
7 4 -33 -3.5318 -0.0026
7 4 -30 3.9820 -0.0285
7 4 -27 8.7669 -0.0326
7 4 -24 -15.6893 -0.0242
7 4 -21 6.2221 -0.0308
7 4 -18 3.9615 -0.0398
7 4 -15 0.0036 -0.0378
7 4 -12 -7.5907 -0.0460
7 4 -9 15.5652 -0.0554
7 4 -6 -3.9339 -0.0469
7 4 -3 -0.4949 -0.0294
7 4 0 5.2468 -0.0048
7 4 3 -4.2128 -0.0081
7 4 6 -11.3021 -0.0032
7 4 9 15.8366 -0.0058
7 4 12 -9.6932 0.0057
7 4 15 -11.7843 0.0209
7 4 18 8.6024 0.0162
7 4 21 -3.0926 0.0292
7 4 24 -0.5005 0.0173
7 4 27 8.0826 0.0162
7 4 30 -0.8279 -0.0096
7 4 33 0.2052 -0.0058
7 4 36 11.6132 0.0153
7 4 39 -0.2309 0.0336
7 5 -37 1.3195 -0.0077
7 5 -34 -0.0389 -0.0122
7 5 -31 -4.8253 -0.0080
7 5 -28 1.5283 0.0084
7 5 -25 0.2052 0.0128
7 5 -22 5.4736 0.0037
7 5 -19 0.4095 -0.0198
7 5 -16 4.5754 -0.0403
7 5 -13 4.0914 -0.0433
7 5 -10 -8.5390 -0.0431
7 5 -7 6.1857 -0.0507
7 5 -4 1.2420 -0.0461
7 5 -1 -7.9609 -0.0432
7 5 2 8.5283 -0.0512
7 5 5 -2.3178 -0.0391
7 5 8 -8.7384 -0.0168
7 5 11 4.5715 0.0011
7 5 14 -4.4310 0.0003
7 5 17 -3.2961 0.0100
7 5 20 3.9489 0.0025
7 5 23 -2.5151 0.0129
7 5 26 -2.4600 0.0306
7 5 29 4.2443 0.0318
7 5 32 0.2181 0.0292
7 5 35 9.1626 0.0127
7 5 38 -5.4121 -0.0109
7 6 -35 -6.3719 -0.0129
7 6 -32 6.9216 0.0045
7 6 -29 -1.2057 0.0364
7 6 -26 1.2132 0.0182
7 6 -23 2.7649 0.0160
7 6 -20 4.5733 0.0196
7 6 -17 -0.6907 0.0358
7 6 -14 -6.3922 0.0309
7 6 -11 9.7096 0.0189
7 6 -8 -7.7554 0.0235
7 6 -5 1.9918 0.0037
7 6 -2 6.3949 0.0047
7 6 1 -4.3074 -0.0015
7 6 4 2.0799 -0.0065
7 6 7 2.5817 -0.0099
7 6 10 -9.6934 -0.0299
7 6 13 0.8241 -0.0273
7 6 16 8.1149 -0.0412
7 6 19 -10.3594 -0.0294
7 6 22 3.8381 -0.0223
7 6 25 -1.0624 -0.0317
7 6 28 -3.5442 0.0002
7 6 31 2.6331 -0.0073
7 6 34 4.1431 -0.0399
7 6 37 -4.9066 0.0354
7 7 -36 1.8165 0.0628
7 7 -33 2.0175 0.0251
7 7 -30 -6.8868 -0.0000
7 7 -27 6.4648 -0.0104
7 7 -24 0.1114 0.0016
7 7 -21 -3.5664 0.0013
7 7 -18 6.5280 0.0250
7 7 -15 -0.4562 0.0201
7 7 -12 -3.8761 0.0227
7 7 -9 7.4499 0.0156
7 7 -6 -5.2582 0.0101
7 7 -3 -5.1880 0.0096
7 7 0 19.6307 -0.0027
7 7 3 -14.0868 0.0073
7 7 6 -2.4385 0.0029
7 7 9 5.9949 0.0024
7 7 12 -8.7739 -0.0096
7 7 15 6.8176 -0.0063
7 7 18 -1.9833 -0.0047
7 7 21 -1.2272 -0.0107
7 7 24 -2.6934 -0.0230
7 7 27 2.0121 -0.0256
7 7 30 2.7634 -0.0190
7 7 33 0.5946 0.0106
7 7 36 -3.6389 0.0295
7 8 -34 -7.7798 0.0156
7 8 -31 9.7452 -0.0284
7 8 -28 -7.5154 -0.0279
7 8 -25 -0.4979 -0.0146
7 8 -22 2.7541 -0.0121
7 8 -19 -10.8685 -0.0004
7 8 -16 16.9387 -0.0077
7 8 -13 0.7342 -0.0179
7 8 -10 -2.5926 -0.0159
7 8 -7 8.4110 -0.0139
7 8 -4 -15.7822 0.0024
7 8 -1 6.3231 0.0035
7 8 2 3.9460 0.0089
7 8 5 -4.0796 0.0090
7 8 8 4.3480 0.0235
7 8 11 -0.1099 0.0253
7 8 14 -2.7139 0.0162
7 8 17 0.5594 0.0170
7 8 20 0.4732 0.0074
7 8 23 -7.8368 0.0073
7 8 26 5.8828 0.0163
7 8 29 9.4528 0.0225
7 8 32 -14.3844 -0.0046
7 9 -32 6.5277 -0.0302
7 9 -29 -8.3648 0.0089
7 9 -26 -7.6824 0.0067
7 9 -23 3.8964 0.0320
7 9 -20 0.6226 0.0001
7 9 -17 -7.9426 -0.0088
7 9 -14 14.2506 -0.0047
7 9 -11 1.3830 0.0003
7 9 -8 3.5659 0.0033
7 9 -5 -1.4625 0.0081
7 9 -2 -1.7408 0.0053
7 9 1 -3.1752 0.0024
7 9 4 16.8003 -0.0029
7 9 7 -5.7885 -0.0134
7 9 10 -1.6732 -0.0169
7 9 13 -0.2762 -0.0104
7 9 16 -7.6020 -0.0046
7 9 19 6.6175 -0.0075
7 9 22 -2.8119 -0.0007
7 9 25 3.7012 0.0037
7 9 28 -3.4364 -0.0357
7 9 31 -3.8530 -0.0127
7 10 -30 -8.6874 0.0384
7 10 -27 16.0844 0.0138
7 10 -24 -11.9484 0.0036
7 10 -21 -5.0931 -0.0035
7 10 -18 -2.0247 -0.0017
7 10 -15 -0.3943 -0.0064
7 10 -12 13.2556 -0.0112
7 10 -9 -1.5203 -0.0021
7 10 -6 0.1158 -0.0065
7 10 -3 -1.6992 -0.0091
7 10 0 0.7691 -0.0217
7 10 3 5.2545 -0.0141
7 10 6 4.6473 -0.0147
7 10 9 -1.2721 -0.0154
7 10 12 0.2390 -0.0008
7 10 15 -4.6173 -0.0028
7 10 18 1.8502 -0.0078
7 10 21 2.9840 -0.0261
7 10 24 -3.6118 -0.0186
7 10 27 4.7180 0.0053
7 10 30 -1.4289 0.0444
7 11 -28 5.8956 0.0009
7 11 -25 -1.8782 0.0092
7 11 -22 -0.3711 -0.0254
7 11 -19 -1.8567 -0.0237
7 11 -16 0.0764 -0.0039
7 11 -13 -1.3103 -0.0001
7 11 -10 -2.4622 -0.0109
7 11 -7 -1.5972 -0.0111
7 11 -4 -2.2487 0.0015
7 11 -1 -0.2112 0.0014
7 11 2 11.8829 0.0067
7 11 5 -7.2656 0.0010
7 11 8 12.3088 0.0053
7 11 11 -0.3808 0.0117
7 11 14 -0.3062 0.0127
7 11 17 4.4071 0.0139
7 11 20 -7.2592 0.0212
7 11 23 -0.1328 0.0097
7 11 26 -0.4267 0.0109
7 11 29 6.8005 -0.0254
7 12 -26 1.2521 0.0364
7 12 -23 18.0132 -0.0088
7 12 -20 -14.2446 0.0251
7 12 -17 -1.7989 0.0156
7 12 -14 -2.6052 0.0233
7 12 -11 -0.8294 0.0074
7 12 -8 0.1836 0.0045
7 12 -5 -0.1455 0.0009
7 12 -2 -1.4353 -0.0003
7 12 1 1.8727 0.0077
7 12 4 -1.5218 -0.0079
7 12 7 5.8921 -0.0046
7 12 10 -0.2769 0.0013
7 12 13 2.9362 -0.0074
7 12 16 -5.2309 -0.0064
7 12 19 2.3147 -0.0232
7 12 22 -7.3355 0.0179
7 12 25 -3.6140 -0.0084
7 13 -24 16.2515 0.0434
7 13 -21 -8.3153 0.0299
7 13 -18 -8.6010 0.0211
7 13 -15 5.5794 -0.0114
7 13 -12 9.6722 -0.0257
7 13 -9 -13.1366 -0.0142
7 13 -6 5.3020 -0.0094
7 13 -3 -1.6754 -0.0085
7 13 0 -0.7202 0.0012
7 13 3 -6.8358 0.0067
7 13 6 6.3332 -0.0072
7 13 9 0.8269 -0.0219
7 13 12 -9.4615 -0.0200
7 13 15 -2.0365 -0.0008
7 13 18 2.7008 -0.0120
7 13 21 -7.3465 0.0102
7 13 24 3.1621 0.0544
7 14 -19 -2.1400 -0.0191
7 14 -16 -1.6524 -0.0488
7 14 -13 4.6062 -0.0162
7 14 -10 -8.4770 -0.0092
7 14 -7 7.1894 0.0020
7 14 -4 -6.2241 0.0127
7 14 -1 -3.7567 0.0117
7 14 2 2.6419 -0.0062
7 14 5 6.2816 -0.0068
7 14 8 -4.1922 0.0172
7 14 11 1.5248 0.0295
7 14 14 -8.4230 0.0160
7 14 17 0.6102 0.0381
7 14 20 0.5252 0.0293
7 15 -14 -8.7330 0.0399
7 15 -11 -0.2491 0.0219
7 15 -8 1.8327 0.0093
7 15 -5 -8.0590 -0.0141
7 15 -2 7.9556 -0.0142
7 15 1 0.6829 0.0106
7 15 4 2.2225 -0.0098
7 15 7 -4.7478 0.0111
7 15 10 7.2777 0.0235
7 15 13 1.9262 -0.0044
7 15 16 -8.0378 -0.0509
7 16 -9 0.4279 -0.0414
7 16 -6 4.8344 -0.0233
7 16 -3 -6.3617 0.0055
7 16 0 5.2317 -0.0156
7 16 3 0.7229 -0.0025
7 16 6 -7.5367 -0.0025
7 16 9 6.3383 -0.0259
8 1 -38 8.6798 -0.0143
8 1 -35 1.8090 -0.0040
8 1 -32 -1.3933 -0.0051
8 1 -29 16.6671 0.0376
8 1 -26 -5.8360 0.0254
8 1 -23 -4.9852 0.0531
8 1 -20 7.4182 0.0462
8 1 -17 -16.6142 0.0755
8 1 -14 8.9451 0.0806
8 1 -11 5.0812 0.0882
8 1 -8 -25.2921 0.0898
8 1 -5 26.4947 0.0774
8 1 -2 -12.8167 0.0901
8 1 1 -6.5205 0.0318
8 1 4 16.7623 0.0452
8 1 7 -11.9065 0.0285
8 1 10 -7.4066 0.0147
8 1 13 8.6776 -0.0169
8 1 16 0.0563 -0.0089
8 1 19 1.8488 0.0050
8 1 22 -2.0845 0.0000
8 1 25 0.1733 -0.0027
8 1 28 5.5376 -0.0084
8 1 31 0.1468 0.0105
8 1 34 -0.9920 -0.0035
8 1 37 -1.7354 0.0004
8 1 40 -3.6559 0.0158
8 2 -39 2.3312 0.0018
8 2 -36 0.2607 0.0314
8 2 -33 -2.7737 -0.0041
8 2 -30 22.1534 -0.0308
8 2 -27 -3.6462 -0.0468
8 2 -24 -14.5544 -0.0080
8 2 -21 0.3347 0.0039
8 2 -18 13.0294 -0.0077
8 2 -15 -3.3242 0.0117
8 2 -12 -6.4879 0.0215
8 2 -9 3.7714 0.0420
8 2 -6 -17.1261 0.0438
8 2 -3 14.6509 0.0686
8 2 0 2.1123 0.0855
8 2 3 -8.5982 0.0892
8 2 6 -1.1978 0.0783
8 2 9 -6.0561 0.0653
8 2 12 7.3073 0.0508
8 2 15 2.3738 0.0538
8 2 18 -1.2407 0.0518
8 2 21 0.6205 0.0229
8 2 24 2.3576 0.0342
8 2 27 1.3871 -0.0089
8 2 30 1.0201 -0.0278
8 2 33 -2.8584 -0.0167
8 2 36 0.9864 -0.0034
8 2 39 0.0856 -0.0056
8 3 -37 5.1364 -0.0080
8 3 -34 4.2191 -0.0023
8 3 -31 -0.6261 0.0028
8 3 -28 -10.4566 0.0113
8 3 -25 7.0445 0.0149
8 3 -22 2.8713 -0.0187
8 3 -19 -0.9093 -0.0185
8 3 -16 4.0169 -0.0344
8 3 -13 5.9109 -0.0362
8 3 -10 -19.6836 -0.0285
8 3 -7 11.7079 -0.0103
8 3 -4 2.3122 0.0042
8 3 -1 -7.1840 -0.0074
8 3 2 7.4962 0.0033
8 3 5 -0.2322 0.0063
8 3 8 -10.4907 0.0228
8 3 11 7.1763 0.0371
8 3 14 -4.4532 0.0415
8 3 17 -5.8155 0.0298
8 3 20 4.6760 0.0250
8 3 23 -2.9013 0.0014
8 3 26 -0.8860 0.0227
8 3 29 3.7995 0.0523
8 3 32 -7.1181 0.0205
8 3 35 11.2995 -0.0362
8 3 38 -3.9514 -0.0411
8 4 -38 8.3826 -0.0688
8 4 -35 -7.2983 0.0031
8 4 -32 -6.9979 0.0267
8 4 -29 1.3995 0.0423
8 4 -26 5.6284 0.0169
8 4 -23 -2.4045 -0.0071
8 4 -20 9.7497 -0.0009
8 4 -17 -3.7833 0.0011
8 4 -14 -3.0167 -0.0061
8 4 -11 8.8016 -0.0179
8 4 -8 -5.3172 -0.0232
8 4 -5 -0.3648 -0.0341
8 4 -2 6.3999 -0.0533
8 4 1 -15.6875 -0.0418
8 4 4 8.6302 -0.0417
8 4 7 6.1334 -0.0365
8 4 10 -10.6524 -0.0336
8 4 13 -5.5060 -0.0299
8 4 16 5.5020 -0.0153
8 4 19 -6.6792 -0.0161
8 4 22 2.3872 0.0052
8 4 25 -0.5359 0.0106
8 4 28 0.0621 0.0106
8 4 31 2.3389 0.0279
8 4 34 -0.8025 0.0196
8 4 37 -1.6373 -0.0062
8 5 -36 -13.3115 0.0428
8 5 -33 16.4068 -0.0087
8 5 -30 -10.3273 -0.0354
8 5 -27 2.0869 -0.0216
8 5 -24 6.1112 -0.0017
8 5 -21 1.7417 0.0167
8 5 -18 7.3471 0.0184
8 5 -15 -8.3742 0.0188
8 5 -12 -8.4444 0.0163
8 5 -9 21.9592 0.0012
8 5 -6 -13.4561 0.0115
8 5 -3 -15.0681 0.0184
8 5 0 19.3028 0.0178
8 5 3 -7.4265 0.0035
8 5 6 -7.6000 -0.0009
8 5 9 16.5762 -0.0039
8 5 12 -11.8001 -0.0095
8 5 15 -6.7655 -0.0245
8 5 18 15.8377 -0.0178
8 5 21 -11.2752 -0.0185
8 5 24 4.3211 -0.0121
8 5 27 -0.7600 -0.0387
8 5 30 -0.1291 -0.0266
8 5 33 4.7899 0.0169
8 5 36 -7.1241 0.0444
8 6 -34 -3.2693 -0.0420
8 6 -31 2.9070 -0.0107
8 6 -28 -0.6426 -0.0213
8 6 -25 3.0130 -0.0067
8 6 -22 7.5003 0.0012
8 6 -19 -8.8107 0.0087
8 6 -16 3.9270 -0.0024
8 6 -13 8.8440 -0.0110
8 6 -10 -13.9385 0.0106
8 6 -7 6.6191 0.0237
8 6 -4 2.1375 0.0201
8 6 -1 -13.2687 0.0190
8 6 2 14.7816 0.0284
8 6 5 -8.2425 0.0251
8 6 8 -7.8912 0.0225
8 6 11 9.4758 0.0219
8 6 14 -1.2456 0.0145
8 6 17 -0.1378 -0.0013
8 6 20 -1.4376 -0.0010
8 6 23 -5.2832 -0.0087
8 6 26 2.1006 -0.0026
8 6 29 9.4841 0.0080
8 6 32 -6.4400 -0.0068
8 6 35 3.5477 -0.0597
8 7 -32 -7.0058 -0.0075
8 7 -29 -1.6617 0.0124
8 7 -26 1.1324 0.0090
8 7 -23 -5.8057 -0.0028
8 7 -20 6.8236 -0.0222
8 7 -17 3.4789 -0.0292
8 7 -14 6.4956 -0.0185
8 7 -11 1.6594 -0.0171
8 7 -8 -9.5289 -0.0210
8 7 -5 6.4519 -0.0160
8 7 -2 1.8121 -0.0102
8 7 1 -7.4477 -0.0121
8 7 4 -1.4253 -0.0007
8 7 7 0.4631 -0.0006
8 7 10 -7.6409 0.0038
8 7 13 7.4997 0.0092
8 7 16 4.7663 0.0230
8 7 19 -7.5121 0.0247
8 7 22 1.4693 0.0248
8 7 25 -0.0620 0.0349
8 7 28 3.0599 0.0074
8 7 31 -3.9363 -0.0238
8 7 34 3.1531 0.0219
8 8 -33 -12.5533 0.0266
8 8 -30 7.2248 0.0112
8 8 -27 -2.7221 0.0186
8 8 -24 -2.6738 -0.0102
8 8 -21 -0.5715 -0.0032
8 8 -18 4.9617 -0.0006
8 8 -15 -1.3944 -0.0020
8 8 -12 3.7790 -0.0025
8 8 -9 4.8834 0.0064
8 8 -6 0.2640 -0.0059
8 8 -3 -4.7248 -0.0031
8 8 0 8.3998 -0.0013
8 8 3 -4.1477 -0.0064
8 8 6 -4.0084 -0.0064
8 8 9 3.9520 -0.0076
8 8 12 -0.0136 -0.0043
8 8 15 -0.9857 -0.0043
8 8 18 2.0069 -0.0097
8 8 21 1.9222 -0.0119
8 8 24 -0.3192 -0.0085
8 8 27 -2.2858 0.0054
8 8 30 -2.7375 0.0224
8 8 33 2.3729 0.0416
8 9 -31 7.3329 0.0001
8 9 -28 -3.1001 0.0115
8 9 -25 -3.7523 -0.0060
8 9 -22 -1.7400 0.0014
8 9 -19 -6.6043 0.0198
8 9 -16 2.8293 0.0209
8 9 -13 9.8896 0.0110
8 9 -10 -3.5742 0.0059
8 9 -7 2.3145 0.0107
8 9 -4 -3.3071 -0.0024
8 9 -1 4.7277 0.0114
8 9 2 6.3225 0.0019
8 9 5 -0.8550 -0.0007
8 9 8 3.6049 -0.0026
8 9 11 -3.5566 -0.0199
8 9 14 -3.4472 -0.0141
8 9 17 2.6328 -0.0256
8 9 20 -1.4379 -0.0201
8 9 23 6.3980 0.0032
8 9 26 -1.5457 0.0028
8 9 29 0.3504 -0.0290
8 10 -29 -15.5798 -0.0298
8 10 -26 5.3109 -0.0125
8 10 -23 9.3231 0.0209
8 10 -20 -6.8078 0.0012
8 10 -17 -7.1714 -0.0069
8 10 -14 5.8914 -0.0201
8 10 -11 4.7425 -0.0078
8 10 -8 -1.2246 -0.0057
8 10 -5 -7.6280 -0.0131
8 10 -2 -2.3313 -0.0046
8 10 1 7.7505 -0.0008
8 10 4 -0.5003 -0.0001
8 10 7 5.0014 -0.0013
8 10 10 3.4928 -0.0010
8 10 13 -3.4121 0.0016
8 10 16 -0.5374 0.0163
8 10 19 3.7416 0.0230
8 10 22 -1.9086 -0.0037
8 10 25 3.6732 -0.0247
8 10 28 0.6067 -0.0319
8 11 -27 5.8435 0.0409
8 11 -24 1.2499 0.0310
8 11 -21 -1.1027 0.0018
8 11 -18 -6.0375 -0.0174
8 11 -15 6.3617 -0.0083
8 11 -12 2.7897 -0.0102
8 11 -9 -2.9518 0.0072
8 11 -6 -6.9139 0.0162
8 11 -3 -2.6620 0.0162
8 11 0 -0.4184 0.0012
8 11 3 8.3305 0.0054
8 11 6 3.5150 0.0009
8 11 9 0.5635 0.0012
8 11 12 -0.4060 -0.0021
8 11 15 -2.2042 -0.0043
8 11 18 5.5233 -0.0107
8 11 21 -3.3286 -0.0063
8 11 24 -7.5938 0.0199
8 11 27 9.9388 0.0525
8 12 -22 6.0311 -0.0415
8 12 -19 -7.8877 -0.0073
8 12 -16 3.9258 0.0144
8 12 -13 -1.7263 0.0250
8 12 -10 -3.7268 0.0077
8 12 -7 4.0859 0.0153
8 12 -4 3.1948 0.0180
8 12 -1 -5.1111 0.0021
8 12 2 4.5670 -0.0075
8 12 5 3.6689 -0.0092
8 12 8 -1.0409 -0.0032
8 12 11 -8.5011 -0.0155
8 12 14 1.8460 0.0124
8 12 17 -1.1352 0.0031
8 12 20 -5.0848 -0.0073
8 12 23 1.9955 -0.0189
8 13 -20 -11.7016 0.0448
8 13 -17 -0.1261 -0.0115
8 13 -14 1.4941 -0.0146
8 13 -11 0.9472 -0.0033
8 13 -8 -0.4137 -0.0120
8 13 -5 -1.0355 -0.0140
8 13 -2 -0.1924 -0.0061
8 13 1 -4.7442 -0.0020
8 13 4 4.4631 0.0145
8 13 7 0.0300 0.0294
8 13 10 -0.7935 0.0157
8 13 13 -4.2332 0.0046
8 13 16 -5.8488 0.0006
8 13 19 -0.9701 -0.0065
8 14 -15 2.7097 -0.0659
8 14 -12 3.7076 0.0086
8 14 -9 -14.0048 -0.0083
8 14 -6 -1.5983 0.0076
8 14 -3 0.8041 0.0177
8 14 0 0.0454 0.0112
8 14 3 -2.3703 0.0320
8 14 6 0.5113 0.0078
8 14 9 6.4431 0.0043
8 14 12 -6.4050 0.0012
8 14 15 0.1042 -0.0260
8 15 -10 -6.2221 0.0195
8 15 -7 2.6325 0.0137
8 15 -4 -4.3920 0.0086
8 15 -1 -1.2964 -0.0034
8 15 2 0.6629 0.0083
8 15 5 5.4515 0.0024
8 15 8 -8.2724 0.0037
8 15 11 1.6433 0.0569
9 1 -37 1.1343 0.0077
9 1 -34 2.8296 0.0339
9 1 -31 13.7506 -0.0079
9 1 -28 -17.7996 -0.0167
9 1 -25 10.0661 0.0180
9 1 -22 1.8909 0.0178
9 1 -19 -8.6300 -0.0166
9 1 -16 2.1547 -0.0025
9 1 -13 -9.4195 0.0355
9 1 -10 2.4789 0.0260
9 1 -7 3.6732 0.0289
9 1 -4 -9.5319 0.0385
9 1 -1 7.4832 0.0630
9 1 2 11.8676 0.0721
9 1 5 -11.0716 0.0528
9 1 8 -15.4870 0.0660
9 1 11 1.8354 0.0638
9 1 14 2.1261 0.0734
9 1 17 4.8090 0.0633
9 1 20 -5.3642 0.0318
9 1 23 -2.2026 0.0845
9 1 26 2.8767 0.0238
9 1 29 -6.7810 0.0546
9 1 32 5.7312 0.0074
9 1 35 5.1416 -0.0142
9 1 38 -3.5888 -0.0294
9 2 -38 6.4718 -0.0250
9 2 -35 -0.9204 0.0302
9 2 -32 -4.7709 0.0490
9 2 -29 7.2692 0.0525
9 2 -26 -5.9542 0.0422
9 2 -23 3.8370 -0.0010
9 2 -20 0.6083 0.0113
9 2 -17 -10.0597 0.0180
9 2 -14 4.5507 0.0116
9 2 -11 6.2365 -0.0010
9 2 -8 -16.2732 -0.0085
9 2 -5 4.3372 -0.0035
9 2 -2 10.3586 -0.0221
9 2 1 -10.2978 -0.0086
9 2 4 10.2595 0.0014
9 2 7 -7.4396 0.0210
9 2 10 -6.2368 0.0238
9 2 13 4.5054 0.0262
9 2 16 -4.2181 0.0313
9 2 19 -6.8068 0.0474
9 2 22 6.9398 0.0525
9 2 25 -7.0076 0.0406
9 2 28 -3.9343 0.0436
9 2 31 -0.3862 0.0393
9 2 34 2.4672 0.0192
9 2 37 -2.8992 0.0154
9 3 -36 7.3580 0.0561
9 3 -33 5.8840 0.0349
9 3 -30 -4.2426 0.0225
9 3 -27 -11.4733 0.0176
9 3 -24 3.7059 0.0268
9 3 -21 -3.7455 0.0420
9 3 -18 12.2056 0.0450
9 3 -15 -4.8996 0.0408
9 3 -12 -12.8012 0.0305
9 3 -9 14.0777 0.0235
9 3 -6 -3.5400 0.0051
9 3 -3 -14.8698 0.0022
9 3 0 18.8335 -0.0134
9 3 3 -8.2956 -0.0149
9 3 6 1.1526 -0.0230
9 3 9 8.7440 -0.0338
9 3 12 -11.9203 -0.0342
9 3 15 -6.2593 -0.0408
9 3 18 4.0133 -0.0305
9 3 21 -6.6469 -0.0281
9 3 24 5.7969 -0.0186
9 3 27 -4.0364 -0.0102
9 3 30 -11.0804 -0.0273
9 3 33 -1.8839 0.0318
9 3 36 7.6131 0.0896
9 4 -37 0.0627 0.0070
9 4 -34 4.8740 -0.0488
9 4 -31 -9.1353 -0.0382
9 4 -28 -4.8310 -0.0206
9 4 -25 4.1816 -0.0084
9 4 -22 5.1910 0.0097
9 4 -19 1.8942 0.0061
9 4 -16 -7.7230 0.0117
9 4 -13 6.9762 0.0172
9 4 -10 -17.2807 0.0165
9 4 -7 13.5646 0.0332
9 4 -4 -0.5658 0.0333
9 4 -1 -22.4817 0.0358
9 4 2 16.1534 0.0221
9 4 5 -0.0681 0.0214
9 4 8 -7.0999 0.0085
9 4 11 11.0074 -0.0071
9 4 14 -8.4939 -0.0179
9 4 17 -3.8021 -0.0256
9 4 20 8.4338 -0.0389
9 4 23 -6.9349 -0.0461
9 4 26 -3.7350 -0.0268
9 4 29 9.8099 -0.0217
9 4 32 -7.5495 -0.0102
9 4 35 -2.4798 -0.0494
9 5 -35 -3.1206 -0.0459
9 5 -32 -1.3569 -0.0073
9 5 -29 0.2152 -0.0170
9 5 -26 11.4044 -0.0065
9 5 -23 -7.8792 -0.0215
9 5 -20 4.9757 -0.0269
9 5 -17 -3.8937 -0.0326
9 5 -14 -6.1530 -0.0210
9 5 -11 12.5855 -0.0005
9 5 -8 -14.1933 0.0005
9 5 -5 1.2185 0.0142
9 5 -2 6.7604 0.0162
9 5 1 -20.1952 0.0229
9 5 4 8.7876 0.0293
9 5 7 8.0131 0.0379
9 5 10 -6.1160 0.0282
9 5 13 6.9567 0.0309
9 5 16 -1.9319 0.0395
9 5 19 -6.8650 0.0203
9 5 22 3.2993 0.0102
9 5 25 1.5155 0.0025
9 5 28 1.6527 -0.0080
9 5 31 -0.3849 -0.0368
9 5 34 -3.3467 -0.0159
9 6 -33 -0.0667 0.0317
9 6 -30 -1.0941 0.0293
9 6 -27 4.5072 0.0088
9 6 -24 0.6752 -0.0081
9 6 -21 -5.4274 -0.0120
9 6 -18 3.8564 -0.0164
9 6 -15 -4.4027 -0.0083
9 6 -12 2.8227 -0.0147
9 6 -9 6.9786 -0.0102
9 6 -6 -4.3951 -0.0209
9 6 -3 -0.9058 -0.0295
9 6 0 6.0450 -0.0180
9 6 3 -13.8622 -0.0122
9 6 6 -3.6528 -0.0071
9 6 9 11.4909 -0.0029
9 6 12 -5.5070 0.0161
9 6 15 2.5246 0.0250
9 6 18 7.1251 0.0325
9 6 21 -7.2147 0.0232
9 6 24 -2.3222 0.0107
9 6 27 6.8617 -0.0032
9 6 30 -8.1265 0.0348
9 6 33 3.9061 0.0674
9 7 -31 6.4429 -0.0040
9 7 -28 -1.9701 -0.0265
9 7 -25 -7.8202 -0.0006
9 7 -22 11.1619 0.0094
9 7 -19 -14.0605 0.0250
9 7 -16 6.2357 0.0125
9 7 -13 10.5956 0.0049
9 7 -10 -7.6059 -0.0073
9 7 -7 0.0904 -0.0040
9 7 -4 10.4484 0.0028
9 7 -1 -9.8238 -0.0045
9 7 2 -0.8719 0.0013
9 7 5 -4.1430 0.0006
9 7 8 -0.6706 -0.0105
9 7 11 6.8209 -0.0138
9 7 14 -0.9343 -0.0163
9 7 17 5.5775 -0.0154
9 7 20 1.1788 -0.0032
9 7 23 -2.0579 0.0106
9 7 26 -2.6063 0.0219
9 7 29 4.8190 0.0179
9 7 32 -4.2930 -0.0127
9 8 -29 -2.6448 -0.0397
9 8 -26 -3.7429 0.0148
9 8 -23 9.4963 0.0294
9 8 -20 3.3901 0.0157
9 8 -17 -5.6301 0.0007
9 8 -14 -1.7573 0.0062
9 8 -11 4.1379 0.0197
9 8 -8 -8.0004 0.0207
9 8 -5 3.9835 0.0262
9 8 -2 1.9426 0.0268
9 8 1 0.0665 0.0289
9 8 4 0.8739 0.0156
9 8 7 2.8693 0.0098
9 8 10 -0.5939 -0.0060
9 8 13 4.5985 -0.0060
9 8 16 -2.8662 -0.0074
9 8 19 2.3915 0.0016
9 8 22 2.2000 0.0024
9 8 25 6.3572 -0.0197
9 8 28 -8.6460 -0.0191
9 8 31 1.1094 -0.0066
9 9 -27 3.5738 0.0636
9 9 -24 0.3014 -0.0040
9 9 -21 3.6940 -0.0196
9 9 -18 1.3689 -0.0121
9 9 -15 -5.2782 -0.0072
9 9 -12 8.5029 0.0079
9 9 -9 -3.9579 -0.0037
9 9 -6 -2.1985 0.0076
9 9 -3 -2.9957 -0.0036
9 9 0 3.9653 -0.0040
9 9 3 3.3208 -0.0021
9 9 6 -3.7075 0.0039
9 9 9 3.8850 0.0085
9 9 12 3.1928 0.0142
9 9 15 -1.8487 -0.0004
9 9 18 1.7556 -0.0100
9 9 21 -1.9482 -0.0004
9 9 24 5.7604 0.0144
9 9 27 1.5493 0.0752
9 10 -25 -6.5399 -0.0209
9 10 -22 5.1954 -0.0248
9 10 -19 6.1107 -0.0228
9 10 -16 2.5173 0.0007
9 10 -13 5.1202 0.0072
9 10 -10 -0.1871 -0.0123
9 10 -7 -7.1908 -0.0157
9 10 -4 0.2270 -0.0102
9 10 -1 -0.8556 0.0039
9 10 2 4.1835 -0.0080
9 10 5 -3.7603 -0.0023
9 10 8 2.2184 0.0005
9 10 11 -0.0453 0.0019
9 10 14 5.8788 -0.0116
9 10 17 4.6067 0.0105
9 10 20 -12.4935 0.0091
9 10 23 14.3621 0.0111
9 10 26 -5.0432 -0.0219
9 11 -23 10.3313 -0.0007
9 11 -20 -12.5453 0.0061
9 11 -17 11.4182 0.0123
9 11 -14 -5.5880 0.0008
9 11 -11 3.9505 0.0215
9 11 -8 8.7825 0.0103
9 11 -5 -11.4926 0.0010
9 11 -2 2.2502 0.0027
9 11 1 1.4534 0.0023
9 11 4 9.4814 0.0087
9 11 7 -3.7152 0.0034
9 11 10 -0.6284 0.0095
9 11 13 2.1736 -0.0006
9 11 16 -0.0098 -0.0248
9 11 19 -4.8866 0.0026
9 11 22 6.1917 -0.0274
9 11 25 -7.8803 -0.0510
9 12 -21 -14.6221 -0.0133
9 12 -18 -5.7588 0.0239
9 12 -15 13.8387 -0.0011
9 12 -12 6.8390 -0.0098
9 12 -9 -15.6057 0.0024
9 12 -6 6.6514 0.0018
9 12 -3 0.5582 -0.0100
9 12 0 2.1476 0.0097
9 12 3 1.0166 0.0011
9 12 6 0.5699 -0.0043
9 12 9 -0.3765 -0.0197
9 12 12 -2.9043 -0.0021
9 12 15 0.1334 -0.0044
9 12 18 -7.7994 0.0525
9 12 21 5.0396 0.0481
9 13 -16 3.3800 -0.0167
9 13 -13 5.2593 -0.0329
9 13 -10 -6.5051 0.0030
9 13 -7 -3.3265 0.0296
9 13 -4 -1.4338 -0.0148
9 13 -1 0.2171 0.0059
9 13 2 -6.3582 -0.0078
9 13 5 5.3940 0.0110
9 13 8 -3.6863 0.0089
9 13 11 -6.8035 -0.0095
9 13 14 2.0290 0.0012
9 13 17 4.0549 0.0445
9 14 -11 0.4233 0.0620
9 14 -8 -7.1177 0.0141
9 14 -5 -4.8655 0.0241
9 14 -2 5.3341 0.0229
9 14 1 -7.6049 -0.0085
9 14 4 2.7728 0.0358
9 14 7 -2.1715 0.0242
9 14 10 -6.1277 0.0160
9 14 13 -1.0127 -0.0575
9 15 0 3.5888 -0.0772
10 1 -36 0.3199 0.0612
10 1 -33 0.8792 0.0582
10 1 -30 0.4652 0.0420
10 1 -27 -8.8324 0.0255
10 1 -24 3.2778 0.0449
10 1 -21 -11.4108 0.0535
10 1 -18 7.5638 0.0392
10 1 -15 3.1800 0.0258
10 1 -12 -9.5270 0.0347
10 1 -9 16.1800 0.0289
10 1 -6 -9.2819 -0.0148
10 1 -3 -3.2032 -0.0160
10 1 0 6.8202 -0.0227
10 1 3 3.7834 -0.0226
10 1 6 -11.9261 -0.0133
10 1 9 3.6316 -0.0010
10 1 12 -6.0593 0.0068
10 1 15 -7.3225 0.0478
10 1 18 5.8081 0.0417
10 1 21 -2.7265 0.0419
10 1 24 -4.2327 0.0643
10 1 27 -2.0307 0.0525
10 1 30 -1.1391 0.0626
10 1 33 1.9036 0.0427
10 1 36 4.2910 0.0982
10 2 -37 2.3678 0.0081
10 2 -34 2.7962 -0.0097
10 2 -31 -11.1805 0.0102
10 2 -28 -5.0926 0.0216
10 2 -25 -1.0658 0.0440
10 2 -22 3.0119 0.0740
10 2 -19 -6.8567 0.0555
10 2 -16 2.1047 0.0528
10 2 -13 7.1982 0.0557
10 2 -10 -15.8363 0.0454
10 2 -7 11.4265 0.0425
10 2 -4 2.3961 0.0180
10 2 -1 -13.0742 0.0295
10 2 2 17.1171 0.0103
10 2 5 -5.9991 -0.0075
10 2 8 -7.7320 -0.0115
10 2 11 5.6843 -0.0253
10 2 14 -4.1100 -0.0231
10 2 17 -8.1891 -0.0251
10 2 20 6.7397 -0.0230
10 2 23 -6.2976 0.0077
10 2 26 -5.0219 0.0006
10 2 29 -0.4307 0.0123
10 2 32 -3.5100 0.0122
10 2 35 5.8385 -0.0035
10 3 -35 0.6340 -0.0309
10 3 -32 -14.7455 -0.0012
10 3 -29 6.6206 0.0044
10 3 -26 -2.0732 0.0071
10 3 -23 -11.3847 -0.0182
10 3 -20 5.5638 -0.0216
10 3 -17 -2.8213 0.0065
10 3 -14 -5.1859 0.0071
10 3 -11 13.3864 0.0182
10 3 -8 -10.1914 0.0303
10 3 -5 0.0219 0.0444
10 3 -2 10.1982 0.0426
10 3 1 -22.3133 0.0459
10 3 4 9.8615 0.0403
10 3 7 8.7985 0.0165
10 3 10 -12.4980 0.0132
10 3 13 2.9302 -0.0027
10 3 16 2.9058 -0.0138
10 3 19 -16.7302 -0.0078
10 3 22 9.6141 -0.0272
10 3 25 -1.9594 -0.0321
10 3 28 -1.2458 -0.0354
10 3 31 -4.0414 -0.0358
10 3 34 2.1221 -0.0628
10 4 -33 0.5880 0.0390
10 4 -30 -10.5641 0.0038
10 4 -27 -3.4959 -0.0362
10 4 -24 2.7097 -0.0458
10 4 -21 -7.6805 -0.0349
10 4 -18 8.0958 -0.0274
10 4 -15 -5.1058 -0.0208
10 4 -12 -5.6523 -0.0159
10 4 -9 16.7240 -0.0254
10 4 -6 -11.1108 -0.0239
10 4 -3 -16.2203 -0.0149
10 4 0 17.3250 -0.0078
10 4 3 -11.2700 0.0031
10 4 6 2.1910 0.0162
10 4 9 9.7817 0.0298
10 4 12 -6.6494 0.0263
10 4 15 -2.6641 0.0201
10 4 18 6.6624 0.0063
10 4 21 -9.7309 0.0116
10 4 24 3.7036 -0.0105
10 4 27 5.6575 -0.0152
10 4 30 -8.4654 0.0088
10 4 33 -0.3064 0.0171
10 5 -34 -4.0421 0.0228
10 5 -31 -7.4167 -0.0121
10 5 -28 6.2640 -0.0025
10 5 -25 -11.4161 0.0143
10 5 -22 11.5446 0.0236
10 5 -19 -15.5256 0.0207
10 5 -16 -3.0297 0.0004
10 5 -13 13.1829 -0.0120
10 5 -10 -11.7850 -0.0237
10 5 -7 5.4073 -0.0336
10 5 -4 8.4582 -0.0377
10 5 -1 -15.3581 -0.0313
10 5 2 8.5539 -0.0282
10 5 5 1.0916 -0.0255
10 5 8 -9.0656 -0.0215
10 5 11 14.4331 -0.0156
10 5 14 -1.7962 -0.0093
10 5 17 -4.9640 -0.0113
10 5 20 8.3470 -0.0007
10 5 23 -10.0297 0.0151
10 5 26 2.0426 0.0407
10 5 29 3.4039 0.0326
10 5 32 -4.3801 -0.0267
10 6 -32 -15.3243 -0.0657
10 6 -29 4.8668 0.0187
10 6 -26 -0.3251 0.0292
10 6 -23 -4.1184 0.0313
10 6 -20 -3.3175 0.0111
10 6 -17 -2.1119 0.0095
10 6 -14 -6.2510 0.0224
10 6 -11 12.7545 0.0095
10 6 -8 -5.2973 0.0080
10 6 -5 0.1359 0.0089
10 6 -2 12.4330 0.0134
10 6 1 -16.0185 -0.0042
10 6 4 3.5848 -0.0132
10 6 7 3.1561 -0.0180
10 6 10 -4.0086 -0.0147
10 6 13 4.6539 -0.0244
10 6 16 3.7286 -0.0193
10 6 19 -3.9546 0.0038
10 6 22 4.6490 0.0090
10 6 25 1.0288 -0.0186
10 6 28 -1.9095 -0.0489
10 6 31 -1.0504 -0.0402
10 7 -30 4.4112 0.0193
10 7 -27 -9.1901 -0.0059
10 7 -24 5.6198 -0.0022
10 7 -21 0.2017 -0.0085
10 7 -18 5.9787 -0.0049
10 7 -15 -12.7424 0.0102
10 7 -12 1.4623 0.0237
10 7 -9 0.1307 0.0298
10 7 -6 -0.8970 0.0285
10 7 -3 3.6820 0.0310
10 7 0 -6.1014 0.0265
10 7 3 -0.5228 0.0272
10 7 6 -2.4651 0.0205
10 7 9 8.4713 0.0254
10 7 12 2.9760 0.0196
10 7 15 -0.4831 0.0104
10 7 18 -0.7027 0.0024
10 7 21 3.6017 -0.0229
10 7 24 0.5135 -0.0335
10 7 27 1.8251 0.0329
10 7 30 -2.9656 0.0400
10 8 -28 -5.1329 -0.0151
10 8 -25 1.8707 -0.0077
10 8 -22 4.4975 -0.0063
10 8 -19 7.0672 0.0023
10 8 -16 -8.0374 0.0011
10 8 -13 6.5470 0.0075
10 8 -10 -5.8260 0.0101
10 8 -7 -10.2034 0.0051
10 8 -4 12.1802 0.0113
10 8 -1 -2.5325 0.0059
10 8 2 -4.7209 0.0091
10 8 5 2.1249 0.0074
10 8 8 4.0258 0.0091
10 8 11 4.6189 0.0043
10 8 14 1.6586 -0.0043
10 8 17 -2.0079 0.0143
10 8 20 -6.3486 0.0342
10 8 23 10.9267 0.0442
10 8 26 -6.8652 0.0002
10 8 29 2.5350 -0.0045
10 9 -26 1.5059 -0.0041
10 9 -23 8.8027 -0.0083
10 9 -20 -0.4949 -0.0010
10 9 -17 2.0955 0.0115
10 9 -14 6.1158 0.0045
10 9 -11 -0.6980 -0.0150
10 9 -8 3.7952 -0.0076
10 9 -5 -5.9987 -0.0140
10 9 -2 1.9196 -0.0144
10 9 1 3.5597 -0.0102
10 9 4 -5.4925 -0.0050
10 9 7 4.7503 -0.0097
10 9 10 3.1810 -0.0062
10 9 13 -5.9026 0.0130
10 9 16 6.8645 0.0167
10 9 19 -4.4427 -0.0204
10 9 22 2.5584 -0.0168
10 9 25 2.7734 -0.0025
10 10 -24 1.1044 -0.0247
10 10 -21 1.1356 0.0109
10 10 -18 6.3005 0.0012
10 10 -15 7.8621 0.0025
10 10 -12 8.2778 -0.0093
10 10 -9 -11.8131 -0.0087
10 10 -6 0.3118 -0.0026
10 10 -3 2.1798 0.0157
10 10 0 -2.1505 0.0060
10 10 3 10.8867 0.0077
10 10 6 -1.0765 0.0146
10 10 9 -1.4784 0.0123
10 10 12 1.4605 -0.0033
10 10 15 2.7702 -0.0096
10 10 18 -2.5485 -0.0122
10 10 21 2.8718 0.0052
10 10 24 -1.9549 -0.0347
10 11 -22 -6.5694 -0.0390
10 11 -19 12.9115 0.0241
10 11 -16 -0.3006 -0.0069
10 11 -13 0.2347 -0.0081
10 11 -10 -4.1002 0.0116
10 11 -7 3.0786 0.0144
10 11 -4 -0.2349 0.0123
10 11 -1 2.6602 -0.0089
10 11 2 -1.0675 -0.0028
10 11 5 8.4369 -0.0159
10 11 8 -1.9015 -0.0137
10 11 11 -2.0435 0.0092
10 11 14 7.5968 0.0219
10 11 17 -6.3855 0.0194
10 11 20 1.2303 0.0267
10 12 -17 3.1369 0.0072
10 12 -14 -1.4441 0.0135
10 12 -11 7.6741 0.0124
10 12 -8 5.0141 -0.0281
10 12 -5 -11.7552 -0.0007
10 12 -2 6.2619 -0.0078
10 12 1 -5.8377 -0.0066
10 12 4 0.7477 -0.0236
10 12 7 -1.5696 -0.0125
10 12 10 -5.9444 -0.0029
10 12 13 8.7885 0.0047
10 12 16 -2.8597 -0.0379
10 13 -12 6.1768 -0.0095
10 13 -9 -6.6590 0.0134
10 13 -6 -3.2388 0.0042
10 13 -3 -3.9505 0.0195
10 13 0 5.1823 0.0085
10 13 3 -3.5554 0.0151
10 13 6 -8.4825 -0.0110
10 13 9 -2.6008 -0.0052
10 13 12 -0.4662 -0.0108
10 14 -4 1.7525 -0.0027
10 14 -1 1.6584 -0.0104
10 14 2 1.5910 0.0266
11 1 -35 -0.0827 0.0028
11 1 -32 -12.3733 -0.0108
11 1 -29 12.7867 0.0118
11 1 -26 -2.0030 0.0355
11 1 -23 -9.0033 0.0392
11 1 -20 -4.6445 0.0332
11 1 -17 3.3658 0.0482
11 1 -14 6.5424 0.0730
11 1 -11 6.0464 0.0848
11 1 -8 -7.6266 0.0567
11 1 -5 -0.4481 0.0680
11 1 -2 4.3843 0.0496
11 1 1 -7.6995 0.0338
11 1 4 2.8126 -0.0023
11 1 7 -2.1176 0.0160
11 1 10 -0.1383 0.0091
11 1 13 -2.3835 0.0199
11 1 16 -3.0049 0.0158
11 1 19 -0.5862 0.0033
11 1 22 4.5382 0.0211
11 1 25 -7.0975 -0.0331
11 1 28 -0.0571 -0.0013
11 1 31 5.4567 -0.0038
11 1 34 0.4439 -0.0019
11 1 37 -3.8035 0.0474
11 2 -36 4.8397 0.0384
11 2 -33 -7.5192 0.0201
11 2 -30 2.5725 0.0015
11 2 -27 -1.9394 -0.0202
11 2 -24 -10.0898 -0.0164
11 2 -21 -6.5774 -0.0230
11 2 -18 11.7089 -0.0004
11 2 -15 3.2208 0.0040
11 2 -12 -7.0518 0.0099
11 2 -9 9.3514 0.0196
11 2 -6 0.4509 0.0080
11 2 -3 -14.5275 0.0376
11 2 0 16.0159 0.0329
11 2 3 -7.8533 0.0552
11 2 6 -3.3758 0.0597
11 2 9 6.2464 0.0558
11 2 12 -10.3543 0.0587
11 2 15 -0.9886 0.0330
11 2 18 4.0492 0.0297
11 2 21 -8.0631 0.0208
11 2 24 3.4632 0.0102
11 2 27 5.1118 0.0012
11 2 30 -4.2439 -0.0298
11 2 33 -0.1944 0.0041
11 2 36 2.8679 0.0248
11 3 -34 -10.6456 0.0385
11 3 -31 -12.3503 -0.0183
11 3 -28 8.8246 -0.0183
11 3 -25 -13.1472 -0.0168
11 3 -22 5.6166 0.0062
11 3 -19 -2.3442 -0.0123
11 3 -16 1.7867 -0.0369
11 3 -13 4.6948 -0.0562
11 3 -10 -6.3548 -0.0493
11 3 -7 3.0862 -0.0352
11 3 -4 11.9807 -0.0292
11 3 -1 -19.1487 -0.0196
11 3 2 11.0061 -0.0020
11 3 5 -3.2801 0.0050
11 3 8 -9.2551 0.0033
11 3 11 6.9586 0.0082
11 3 14 -0.9261 0.0175
11 3 17 -6.2450 0.0220
11 3 20 6.8582 0.0305
11 3 23 -8.4560 0.0290
11 3 26 2.0203 0.0394
11 3 29 8.5160 0.0316
11 3 32 -3.9545 0.0051
11 3 35 1.5745 -0.0431
11 4 -32 -16.0621 -0.0296
11 4 -29 -6.1224 0.0239
11 4 -26 12.7005 0.0361
11 4 -23 -9.0681 0.0293
11 4 -20 -3.0868 0.0022
11 4 -17 -2.9478 -0.0016
11 4 -14 -3.2672 -0.0071
11 4 -11 14.9606 -0.0118
11 4 -8 -7.9761 -0.0175
11 4 -5 -4.3931 -0.0222
11 4 -2 11.2875 -0.0282
11 4 1 -13.2802 -0.0438
11 4 4 8.5520 -0.0602
11 4 7 2.1289 -0.0627
11 4 10 -4.0030 -0.0432
11 4 13 5.9972 -0.0377
11 4 16 1.1516 -0.0189
11 4 19 -10.6962 -0.0106
11 4 22 8.6402 0.0009
11 4 25 1.1149 0.0056
11 4 28 1.6359 -0.0067
11 4 31 -0.7467 -0.0020
11 4 34 -2.9215 0.0172
11 5 -30 -5.1715 0.0461
11 5 -27 -1.4170 0.0147
11 5 -24 -2.6362 -0.0064
11 5 -21 -4.4887 -0.0024
11 5 -18 -1.6384 0.0203
11 5 -15 1.7125 0.0260
11 5 -12 -7.4366 0.0190
11 5 -9 9.4820 0.0211
11 5 -6 -1.6227 0.0032
11 5 -3 -3.8925 -0.0097
11 5 0 9.8420 -0.0044
11 5 3 -1.1112 -0.0156
11 5 6 -0.4701 -0.0120
11 5 9 6.3145 -0.0188
11 5 12 -10.4038 -0.0204
11 5 15 7.5863 -0.0177
11 5 18 -0.7837 -0.0320
11 5 21 -0.1617 -0.0468
11 5 24 0.5674 -0.0405
11 5 27 10.5683 -0.0202
11 5 30 -8.8924 0.0608
11 6 -31 -1.7273 -0.0349
11 6 -28 -8.7270 -0.0172
11 6 -25 -10.8175 -0.0321
11 6 -22 15.7619 -0.0129
11 6 -19 -7.6379 -0.0132
11 6 -16 -1.4001 0.0017
11 6 -13 5.2664 -0.0048
11 6 -10 -5.3105 -0.0031
11 6 -7 1.7137 0.0044
11 6 -4 4.5901 0.0130
11 6 -1 -5.3165 0.0121
11 6 2 0.0081 0.0192
11 6 5 4.6878 0.0301
11 6 8 -7.1259 0.0273
11 6 11 4.9894 0.0230
11 6 14 2.3942 0.0131
11 6 17 -4.3676 0.0019
11 6 20 5.9323 -0.0012
11 6 23 -3.2103 0.0274
11 6 26 0.0071 0.0078
11 6 29 7.2646 -0.0482
11 7 -29 -7.1108 -0.0103
11 7 -26 -0.5813 -0.0090
11 7 -23 2.8170 -0.0090
11 7 -20 9.4842 0.0121
11 7 -17 -3.0494 0.0105
11 7 -14 -1.3867 -0.0180
11 7 -11 -0.9523 -0.0126
11 7 -8 -0.4209 0.0021
11 7 -5 -0.8861 0.0100
11 7 -2 -0.1818 -0.0028
11 7 1 1.6969 -0.0049
11 7 4 -3.8027 -0.0078
11 7 7 2.3700 -0.0028
11 7 10 0.3068 0.0136
11 7 13 6.1299 0.0171
11 7 16 -3.2075 0.0250
11 7 19 0.3160 0.0155
11 7 22 -2.4298 -0.0135
11 7 25 3.2124 0.0149
11 7 28 -4.8765 0.0102
11 8 -27 -1.5032 0.0494
11 8 -24 0.4819 0.0132
11 8 -21 4.0526 0.0199
11 8 -18 5.9858 0.0052
11 8 -15 -10.3718 0.0097
11 8 -12 6.8343 0.0002
11 8 -9 1.6530 0.0012
11 8 -6 -3.0461 0.0003
11 8 -3 7.5352 -0.0112
11 8 0 4.4706 -0.0125
11 8 3 -2.6697 -0.0131
11 8 6 -0.7879 -0.0146
11 8 9 -1.3173 -0.0111
11 8 12 4.5381 -0.0201
11 8 15 -1.0951 -0.0264
11 8 18 -0.8821 -0.0253
11 8 21 -4.1987 0.0092
11 8 24 2.1113 0.0629
11 8 27 -2.6658 0.0425
11 9 -25 -3.6683 -0.0549
11 9 -22 1.1581 0.0089
11 9 -19 7.5341 0.0140
11 9 -16 -4.1368 -0.0242
11 9 -13 2.5515 0.0025
11 9 -10 12.2820 0.0192
11 9 -7 -5.7090 -0.0014
11 9 -4 3.2019 -0.0001
11 9 -1 1.1348 0.0040
11 9 2 1.9152 0.0039
11 9 5 3.2980 -0.0009
11 9 8 2.6190 -0.0044
11 9 11 -4.3816 0.0060
11 9 14 3.4310 0.0196
11 9 17 -5.5138 0.0166
11 9 20 -0.7369 0.0039
11 9 23 7.3428 -0.0245
11 10 -20 1.0555 0.0255
11 10 -17 5.2518 -0.0013
11 10 -14 4.0615 0.0085
11 10 -11 3.0712 0.0007
11 10 -8 0.3415 0.0061
11 10 -5 -5.6536 0.0047
11 10 -2 -0.8536 -0.0135
11 10 1 3.4966 0.0020
11 10 4 5.0111 0.0147
11 10 7 5.5366 0.0186
11 10 10 -0.1444 0.0087
11 10 13 -0.7074 0.0129
11 10 16 -4.2403 0.0013
11 10 19 7.8552 0.0122
11 10 22 -5.5281 -0.0542
11 11 -18 2.3423 0.0010
11 11 -15 5.7592 0.0166
11 11 -12 2.5275 -0.0030
11 11 -9 -10.6903 0.0068
11 11 -6 8.9222 -0.0157
11 11 -3 3.3788 0.0003
11 11 0 -1.4082 0.0067
11 11 3 -0.5077 -0.0201
11 11 6 0.1621 -0.0320
11 11 9 -2.5789 -0.0059
11 11 12 6.1817 -0.0317
11 11 15 -5.0695 0.0095
11 11 18 2.5441 0.0235
11 12 -13 -0.9437 0.0000
11 12 -10 9.1030 0.0031
11 12 -7 -0.2730 -0.0055
11 12 -4 2.5321 0.0071
11 12 -1 3.9700 -0.0102
11 12 2 -8.4774 -0.0086
11 12 5 -0.8760 -0.0041
11 12 8 -2.1261 -0.0162
11 12 11 -7.2988 0.0037
11 12 14 3.8646 0.0558
11 13 -5 0.7747 0.0455
11 13 -2 -0.1315 0.0139
11 13 1 -0.5881 0.0087
11 13 4 -1.4984 -0.0160
12 1 -34 1.3845 0.0047
12 1 -31 -3.9875 -0.0051
12 1 -28 12.3871 -0.0102
12 1 -25 -7.9235 -0.0080
12 1 -22 -4.2363 0.0051
12 1 -19 -7.5003 -0.0030
12 1 -16 9.8505 -0.0030
12 1 -13 2.9831 0.0030
12 1 -10 -6.7873 0.0213
12 1 -7 3.1260 0.0131
12 1 -4 8.8072 0.0069
12 1 -1 -13.5124 0.0259
12 1 2 6.9399 0.0303
12 1 5 1.2603 0.0630
12 1 8 -10.1082 0.0944
12 1 11 -0.1958 0.0716
12 1 14 4.5916 0.0651
12 1 17 -8.7761 0.0632
12 1 20 6.3036 0.0274
12 1 23 1.4304 0.0540
12 1 26 -2.6768 0.0241
12 1 29 6.5158 0.0122
12 1 32 1.0528 -0.0131
12 1 35 -6.4965 -0.0474
12 2 -32 -6.1666 -0.0002
12 2 -29 6.5729 0.0410
12 2 -26 -2.5973 0.0408
12 2 -23 -5.0627 0.0203
12 2 -20 -3.0012 0.0057
12 2 -17 -3.3302 -0.0276
12 2 -14 2.8551 -0.0316
12 2 -11 7.2194 -0.0232
12 2 -8 1.0530 -0.0144
12 2 -5 -6.5030 -0.0207
12 2 -2 14.5613 -0.0209
12 2 1 -11.7139 -0.0203
12 2 4 2.6538 -0.0083
12 2 7 1.6317 -0.0005
12 2 10 -10.4180 0.0160
12 2 13 1.7760 0.0490
12 2 16 2.6333 0.0565
12 2 19 -5.7048 0.0444
12 2 22 4.0775 0.0366
12 2 25 -0.9433 0.0495
12 2 28 2.5694 0.0458
12 2 31 5.9628 0.0061
12 2 34 -3.6597 -0.0034
12 3 -33 -4.2848 0.0511
12 3 -30 -2.7582 0.0319
12 3 -27 -2.6014 0.0201
12 3 -24 -1.9721 -0.0002
12 3 -21 -0.4484 -0.0032
12 3 -18 -2.1299 0.0112
12 3 -15 3.8132 0.0258
12 3 -12 -3.9895 0.0276
12 3 -9 6.9035 0.0146
12 3 -6 -4.5417 0.0143
12 3 -3 -8.2800 -0.0121
12 3 0 14.8809 -0.0227
12 3 3 -4.2938 -0.0253
12 3 6 -4.0127 -0.0335
12 3 9 1.6361 -0.0325
12 3 12 -3.5049 -0.0301
12 3 15 -1.8723 -0.0132
12 3 18 7.1444 -0.0115
12 3 21 -5.7961 -0.0151
12 3 24 4.0298 -0.0319
12 3 27 9.6460 -0.0206
12 3 30 -5.8756 0.0510
12 3 33 0.0735 0.0737
12 4 -31 -12.1067 -0.0516
12 4 -28 2.1901 -0.0321
12 4 -25 -0.0423 -0.0178
12 4 -22 8.3484 -0.0053
12 4 -19 -7.4897 0.0222
12 4 -16 -3.1255 0.0209
12 4 -13 3.6315 0.0166
12 4 -10 -6.5398 0.0080
12 4 -7 -2.3610 0.0134
12 4 -4 5.3064 0.0206
12 4 -1 -6.0862 0.0177
12 4 2 13.1965 0.0162
12 4 5 -1.2459 0.0093
12 4 8 -9.9329 0.0028
12 4 11 11.0374 -0.0177
12 4 14 -2.5683 -0.0304
12 4 17 -6.3041 -0.0314
12 4 20 8.2727 -0.0301
12 4 23 1.0018 -0.0045
12 4 26 3.4592 0.0212
12 4 29 1.7597 -0.0403
12 4 32 -1.4852 -0.0628
12 5 -29 -8.4630 -0.0016
12 5 -26 11.2529 -0.0165
12 5 -23 -2.7938 -0.0210
12 5 -20 3.0360 -0.0098
12 5 -17 -3.3385 -0.0327
12 5 -14 -3.0870 -0.0426
12 5 -11 4.8886 -0.0250
12 5 -8 -1.3350 -0.0181
12 5 -5 -0.7441 -0.0144
12 5 -2 5.5940 0.0027
12 5 1 -2.3248 0.0071
12 5 4 -0.1353 0.0093
12 5 7 2.4717 0.0151
12 5 10 -0.2080 0.0191
12 5 13 -1.0991 0.0340
12 5 16 -1.7063 0.0305
12 5 19 -2.1377 0.0340
12 5 22 3.9317 0.0230
12 5 25 2.0327 -0.0369
12 5 28 1.5803 -0.0159
12 6 -27 -1.5819 0.0039
12 6 -24 -3.3948 0.0057
12 6 -21 7.3785 -0.0117
12 6 -18 3.8164 -0.0256
12 6 -15 2.1031 -0.0310
12 6 -12 -2.4106 -0.0155
12 6 -9 1.8783 -0.0259
12 6 -6 6.3412 -0.0212
12 6 -3 -2.8972 -0.0238
12 6 0 0.8237 -0.0195
12 6 3 -5.9893 -0.0165
12 6 6 -0.6973 -0.0012
12 6 9 3.3091 0.0022
12 6 12 -2.0018 0.0076
12 6 15 0.2496 0.0113
12 6 18 3.8202 -0.0027
12 6 21 -4.4382 0.0106
12 6 24 -4.6159 0.0391
12 6 27 7.0589 0.0246
12 7 -25 -5.2215 0.0173
12 7 -22 6.8365 0.0274
12 7 -19 8.4615 -0.0135
12 7 -16 -5.8329 0.0109
12 7 -13 -0.8757 0.0117
12 7 -10 9.9747 0.0190
12 7 -7 -3.4414 0.0073
12 7 -4 1.4873 -0.0047
12 7 -1 4.5457 -0.0034
12 7 2 -2.8200 -0.0130
12 7 5 4.4636 -0.0254
12 7 8 -6.0493 -0.0292
12 7 11 2.0797 -0.0285
12 7 14 1.4162 -0.0172
12 7 17 -1.2992 -0.0035
12 7 20 -1.3478 0.0103
12 7 23 -2.2614 -0.0231
12 7 26 -0.6668 0.0243
12 8 -23 2.2450 0.0057
12 8 -20 -2.1645 -0.0122
12 8 -17 1.6352 0.0217
12 8 -14 -0.0263 0.0263
12 8 -11 8.1986 -0.0008
12 8 -8 7.7567 0.0083
12 8 -5 -7.7660 -0.0066
12 8 -2 4.8425 -0.0078
12 8 1 9.9604 -0.0090
12 8 4 -1.9130 0.0083
12 8 7 1.8531 0.0148
12 8 10 -2.5156 0.0061
12 8 13 -6.5833 0.0202
12 8 16 1.2809 0.0109
12 8 19 1.0411 -0.0243
12 8 22 -1.9572 -0.0762
12 9 -21 5.5923 0.0207
12 9 -18 -2.8879 0.0329
12 9 -15 5.0886 -0.0164
12 9 -12 10.8449 -0.0132
12 9 -9 0.8311 -0.0241
12 9 -6 -0.7128 -0.0127
12 9 -3 2.8851 -0.0018
12 9 0 0.7081 0.0135
12 9 3 2.1075 0.0162
12 9 6 0.9359 0.0287
12 9 9 -1.9606 0.0145
12 9 12 1.9685 -0.0232
12 9 15 -3.2585 0.0081
12 9 18 0.8996 0.0407
12 9 21 -1.2974 0.0383
12 10 -16 0.4487 -0.0355
12 10 -13 -3.1115 -0.0005
12 10 -10 11.4993 -0.0006
12 10 -7 -1.2851 0.0223
12 10 -4 6.9245 -0.0115
12 10 -1 -3.4984 -0.0084
12 10 2 -0.2452 -0.0074
12 10 5 1.3522 0.0142
12 10 8 0.1890 -0.0233
12 10 11 1.1120 0.0027
12 10 14 2.4838 -0.0118
12 10 17 -4.5121 -0.0225
12 11 -14 0.4133 0.0636
12 11 -11 4.9478 0.0182
12 11 -8 3.6364 -0.0087
12 11 -5 6.4545 -0.0135
12 11 -2 5.9332 -0.0136
12 11 1 -4.5732 -0.0062
12 11 4 0.8049 0.0046
12 11 7 -0.7330 -0.0158
12 11 10 -3.1126 0.0023
12 11 13 2.0887 -0.0173
12 12 -6 3.9088 -0.0678
12 12 -3 3.6167 -0.0123
12 12 0 -1.3655 0.0005
12 12 3 1.8354 -0.0112
12 12 6 -3.1219 -0.0552
13 1 -33 1.7667 0.0598
13 1 -30 -0.8787 0.0407
13 1 -27 -3.1084 0.0479
13 1 -24 -0.1203 0.0306
13 1 -21 -9.5380 0.0320
13 1 -18 -0.5935 0.0217
13 1 -15 1.1727 0.0322
13 1 -12 -3.9318 0.0392
13 1 -9 5.0108 0.0076
13 1 -6 4.4016 -0.0235
13 1 -3 -3.6376 -0.0407
13 1 0 5.3528 -0.0261
13 1 3 -5.2288 -0.0205
13 1 6 -2.5583 0.0081
13 1 9 7.5779 0.0152
13 1 12 -8.9917 0.0306
13 1 15 -2.2861 0.0233
13 1 18 10.1670 0.0204
13 1 21 -8.7421 0.0269
13 1 24 2.1204 0.0188
13 1 27 4.8340 0.0383
13 1 30 2.3075 0.0390
13 1 33 -3.1086 0.0932
13 2 -31 -11.7106 0.0080
13 2 -28 9.9097 -0.0176
13 2 -25 -9.6158 0.0232
13 2 -22 -2.5730 0.0347
13 2 -19 -2.6701 0.0554
13 2 -16 1.4664 0.0447
13 2 -13 -0.2569 0.0395
13 2 -10 -5.7698 0.0412
13 2 -7 3.9080 0.0256
13 2 -4 6.8975 0.0457
13 2 -1 -9.0164 0.0288
13 2 2 7.4248 0.0160
13 2 5 -2.9042 0.0082
13 2 8 -5.3367 0.0085
13 2 11 -2.5024 -0.0056
13 2 14 1.3716 -0.0300
13 2 17 -2.6986 -0.0246
13 2 20 4.6421 -0.0069
13 2 23 -2.2818 0.0046
13 2 26 6.4536 -0.0083
13 2 29 -3.7137 0.0024
13 2 32 2.2055 -0.0072
13 3 -29 -1.3826 -0.0222
13 3 -26 1.7121 0.0016
13 3 -23 -1.5944 0.0043
13 3 -20 5.4588 -0.0121
13 3 -17 -13.5931 -0.0052
13 3 -14 1.0618 0.0105
13 3 -11 7.0814 0.0198
13 3 -8 -6.6110 0.0441
13 3 -5 -5.7813 0.0540
13 3 -2 5.0360 0.0543
13 3 1 -6.1163 0.0504
13 3 4 2.1799 0.0310
13 3 7 2.8511 0.0185
13 3 10 -4.9797 0.0102
13 3 13 0.6684 0.0295
13 3 16 -2.4105 0.0160
13 3 19 0.4625 -0.0011
13 3 22 3.7102 -0.0276
13 3 25 5.3434 -0.0239
13 3 28 -1.7059 -0.0313
13 3 31 2.8897 -0.0270
13 4 -30 4.5682 0.0539
13 4 -27 4.5535 -0.0178
13 4 -24 -2.7568 -0.0088
13 4 -21 2.6961 -0.0272
13 4 -18 -2.4881 -0.0412
13 4 -15 -0.3728 -0.0242
13 4 -12 -2.2768 -0.0131
13 4 -9 -0.3212 -0.0180
13 4 -6 -7.3521 -0.0214
13 4 -3 4.5226 -0.0169
13 4 0 -1.5704 -0.0137
13 4 3 0.5756 0.0108
13 4 6 5.7430 0.0181
13 4 9 0.5274 0.0207
13 4 12 -6.7830 0.0278
13 4 15 0.9187 0.0231
13 4 18 3.5004 0.0324
13 4 21 -1.8010 -0.0020
13 4 24 0.0893 0.0076
13 4 27 4.7402 0.0581
13 4 30 -2.0031 0.0531
13 5 -28 -0.8416 -0.0134
13 5 -25 4.8938 0.0138
13 5 -22 7.0843 -0.0141
13 5 -19 -1.9986 -0.0209
13 5 -16 -1.9837 -0.0076
13 5 -13 -0.1501 -0.0200
13 5 -10 2.4947 -0.0269
13 5 -7 0.2267 -0.0280
13 5 -4 2.5713 -0.0356
13 5 -1 -1.0867 -0.0309
13 5 2 2.0141 -0.0183
13 5 5 -2.5489 -0.0200
13 5 8 -3.4352 -0.0221
13 5 11 3.0268 -0.0274
13 5 14 -1.5607 -0.0098
13 5 17 -0.4687 0.0107
13 5 20 3.7705 0.0487
13 5 23 -3.8556 0.0355
13 5 26 -3.1634 -0.0104
13 6 -26 4.2279 0.0206
13 6 -23 6.0273 -0.0308
13 6 -20 5.3834 0.0287
13 6 -17 -1.5439 0.0168
13 6 -14 1.3117 0.0199
13 6 -11 1.3520 0.0224
13 6 -8 1.9377 0.0024
13 6 -5 2.6317 0.0016
13 6 -2 -4.2673 0.0040
13 6 1 6.1633 -0.0077
13 6 4 -5.9090 -0.0020
13 6 7 -5.6213 -0.0061
13 6 10 4.2150 -0.0025
13 6 13 -2.7828 -0.0108
13 6 16 -1.7693 -0.0220
13 6 19 6.9650 -0.0389
13 6 22 -2.7600 -0.0463
13 6 25 -1.3851 -0.0176
13 7 -24 4.6655 0.0538
13 7 -21 7.8858 0.0108
13 7 -18 -0.1319 0.0106
13 7 -15 -3.8235 0.0074
13 7 -12 4.3427 -0.0002
13 7 -9 3.7228 -0.0066
13 7 -6 -0.6566 0.0089
13 7 -3 5.7333 0.0204
13 7 0 -0.4912 0.0205
13 7 3 -2.5760 0.0257
13 7 6 -1.0295 0.0241
13 7 9 2.2382 0.0089
13 7 12 -5.0205 -0.0084
13 7 15 -1.8090 -0.0298
13 7 18 1.7387 0.0027
13 7 21 -1.7901 0.0229
13 7 24 -1.7495 0.0511
13 8 -19 -3.3753 -0.0219
13 8 -16 9.6378 -0.0227
13 8 -13 -9.7718 -0.0227
13 8 -10 24.3385 -0.0059
13 8 -7 2.5747 -0.0090
13 8 -4 -2.9469 0.0091
13 8 -1 -2.2332 0.0163
13 8 2 -0.8841 -0.0002
13 8 5 5.6657 -0.0299
13 8 8 -0.2765 0.0051
13 8 11 -7.7797 0.0451
13 8 14 1.5493 0.0263
13 8 17 -7.4344 0.0199
13 8 20 0.7958 0.0636
13 9 -17 10.8793 0.0520
13 9 -14 15.0689 0.0095
13 9 -11 -0.6111 -0.0080
13 9 -8 2.7905 -0.0208
13 9 -5 0.4720 -0.0044
13 9 -2 3.8821 0.0032
13 9 1 2.1096 0.0129
13 9 4 -2.7002 -0.0041
13 9 7 -0.4151 0.0355
13 9 10 1.0190 0.0046
13 9 13 -2.9126 -0.0299
13 9 16 -2.9894 -0.0258
13 10 -12 -4.4271 -0.0078
13 10 -9 -2.1205 0.0020
13 10 -6 5.8730 -0.0105
13 10 -3 11.7461 0.0080
13 10 0 -1.0117 -0.0030
13 10 3 3.4439 0.0199
13 10 6 -4.9606 0.0150
13 10 9 1.0261 0.0047
13 10 12 3.5478 -0.0223
13 11 -4 14.0976 -0.0348
13 11 -1 -5.7334 -0.0078
13 11 2 1.0712 -0.0109
13 11 5 2.0698 0.0398
14 1 -32 -3.0380 0.0123
14 1 -29 2.6896 0.0018
14 1 -26 -15.0552 0.0146
14 1 -23 7.6334 0.0486
14 1 -20 -4.1426 0.0455
14 1 -17 -6.0763 0.0587
14 1 -14 2.6930 0.0470
14 1 -11 -1.1570 0.0418
14 1 -8 4.8627 0.0582
14 1 -5 -7.6063 0.0422
14 1 -2 4.9576 0.0513
14 1 1 -4.0847 0.0312
14 1 4 -2.0795 0.0321
14 1 7 0.2220 0.0381
14 1 10 7.3433 0.0170
14 1 13 -13.0757 -0.0045
14 1 16 7.4939 -0.0049
14 1 19 -0.3826 -0.0123
14 1 22 -1.9853 0.0081
14 1 25 5.9289 -0.0046
14 1 28 -6.0656 -0.0102
14 1 31 3.4595 -0.0159
14 2 -30 5.9017 -0.0099
14 2 -27 -8.3878 0.0154
14 2 -24 -2.7728 0.0023
14 2 -21 -3.3003 -0.0205
14 2 -18 3.6871 -0.0182
14 2 -15 0.8740 0.0023
14 2 -12 1.6649 0.0356
14 2 -9 -7.6368 0.0390
14 2 -6 5.1422 0.0225
14 2 -3 -8.4026 0.0366
14 2 0 1.5234 0.0602
14 2 3 -2.2781 0.0585
14 2 6 -0.4129 0.0470
14 2 9 -0.1210 0.0563
14 2 12 -5.3784 0.0525
14 2 15 -2.7514 0.0384
14 2 18 -0.0351 0.0165
14 2 21 0.7886 0.0161
14 2 24 4.1898 0.0003
14 2 27 0.5399 -0.0058
14 2 30 -3.5942 -0.0032
14 3 -28 9.5401 0.0115
14 3 -25 -0.3786 -0.0297
14 3 -22 -3.6418 -0.0210
14 3 -19 4.4500 0.0032
14 3 -16 -8.8568 0.0042
14 3 -13 3.6274 -0.0070
14 3 -10 -3.5624 -0.0302
14 3 -7 -1.0207 -0.0199
14 3 -4 -6.2676 -0.0107
14 3 -1 -3.0873 -0.0125
14 3 2 5.3169 -0.0111
14 3 5 -2.2657 0.0056
14 3 8 -0.6531 0.0081
14 3 11 -2.9887 0.0147
14 3 14 1.9730 0.0015
14 3 17 -1.0391 0.0259
14 3 20 2.4985 0.0478
14 3 23 -1.5873 0.0418
14 3 26 -0.3205 0.0104
14 3 29 0.3984 0.0341
14 4 -26 4.3785 -0.0172
14 4 -23 3.3717 0.0291
14 4 -20 -1.7008 0.0306
14 4 -17 -7.6669 0.0142
14 4 -14 -3.2623 0.0011
14 4 -11 4.0214 -0.0185
14 4 -8 -5.8208 -0.0214
14 4 -5 0.0538 -0.0179
14 4 -2 2.8541 -0.0219
14 4 1 -2.1233 -0.0306
14 4 4 -1.5384 -0.0477
14 4 7 3.8109 -0.0500
14 4 10 -0.4442 -0.0324
14 4 13 2.8082 -0.0261
14 4 16 -4.0908 -0.0105
14 4 19 7.9362 -0.0021
14 4 22 -2.9304 -0.0121
14 4 25 -5.8576 -0.0572
14 5 -24 9.8295 0.0520
14 5 -21 -2.1943 -0.0070
14 5 -18 -5.0318 0.0107
14 5 -15 3.8477 0.0067
14 5 -12 -4.3404 0.0066
14 5 -9 3.8984 0.0194
14 5 -6 -3.7701 0.0069
14 5 -3 8.9995 0.0152
14 5 0 -6.6961 0.0139
14 5 3 -5.7674 0.0038
14 5 6 3.4871 -0.0001
14 5 9 0.2991 -0.0061
14 5 12 -5.0240 -0.0265
14 5 15 3.3692 -0.0491
14 5 18 3.9597 -0.0430
14 5 21 -0.9303 -0.0087
14 5 24 -2.6163 0.0238
14 6 -22 11.0377 -0.0559
14 6 -19 -4.1883 -0.0035
14 6 -16 4.5528 -0.0059
14 6 -13 -9.2167 0.0162
14 6 -10 10.5446 0.0060
14 6 -7 3.8570 0.0268
14 6 -4 -4.5974 0.0244
14 6 -1 -9.6027 0.0120
14 6 2 2.0953 0.0086
14 6 5 1.1919 0.0131
14 6 8 0.1317 0.0081
14 6 11 -9.7281 0.0160
14 6 14 2.0888 0.0472
14 6 17 1.4717 0.0125
14 6 20 0.6258 -0.0298
14 6 23 0.7364 -0.0180
14 7 -20 -1.2057 0.0417
14 7 -17 7.0543 0.0116
14 7 -14 -0.7061 -0.0134
14 7 -11 2.2749 0.0007
14 7 -8 0.5679 0.0006
14 7 -5 7.5347 -0.0144
14 7 -2 -5.2273 -0.0176
14 7 1 -0.6518 -0.0081
14 7 4 3.0074 0.0056
14 7 7 -6.1881 0.0093
14 7 10 -2.5216 0.0149
14 7 13 -4.1594 0.0106
14 7 16 -0.6610 -0.0038
14 7 19 -0.6155 -0.0027
14 8 -15 0.9507 -0.0283
14 8 -12 8.0316 -0.0141
14 8 -9 -4.1013 -0.0028
14 8 -6 13.5813 0.0129
14 8 -3 2.1250 0.0245
14 8 0 -1.4617 0.0051
14 8 3 -3.6118 0.0157
14 8 6 -1.9004 -0.0214
14 8 9 -1.8957 -0.0180
14 8 12 0.8165 0.0158
14 8 15 -8.7107 -0.0469
14 9 -13 2.1941 -0.0347
14 9 -10 1.4511 0.0118
14 9 -7 1.7662 0.0246
14 9 -4 0.6676 0.0407
14 9 -1 3.9943 0.0117
14 9 2 1.6541 0.0117
14 9 5 0.0741 0.0178
14 9 8 -3.0276 0.0105
14 9 11 1.0964 0.0633
14 10 -5 0.0968 0.0417
14 10 -2 4.8145 0.0218
14 10 1 2.6505 -0.0117
14 10 4 0.1385 -0.0049
15 1 -28 -2.0585 -0.0161
15 1 -25 3.2816 -0.0052
15 1 -22 -8.2623 -0.0101
15 1 -19 3.6009 0.0142
15 1 -16 1.5314 -0.0018
15 1 -13 0.6344 -0.0015
15 1 -10 -1.3514 0.0200
15 1 -7 1.4431 -0.0056
15 1 -4 -4.5906 0.0214
15 1 -1 -2.6910 0.0221
15 1 2 1.7471 0.0513
15 1 5 -1.8811 0.0645
15 1 8 -3.0173 0.0797
15 1 11 0.9749 0.0710
15 1 14 -2.5102 0.0452
15 1 17 -2.5240 0.0525
15 1 20 -0.6083 0.0593
15 1 23 2.2837 0.0544
15 1 26 1.5456 0.0318
15 1 29 -6.7286 0.0210
15 2 -26 -12.4542 0.0074
15 2 -23 12.3655 0.0241
15 2 -20 -7.2436 0.0196
15 2 -17 -1.8053 0.0108
15 2 -14 6.5108 -0.0074
15 2 -11 -2.1817 -0.0209
15 2 -8 -6.0016 -0.0092
15 2 -5 5.4734 -0.0019
15 2 -2 -8.5082 -0.0196
15 2 1 -6.0821 -0.0168
15 2 4 5.2391 -0.0182
15 2 7 -0.6326 0.0022
15 2 10 -2.2358 0.0086
15 2 13 -0.6444 0.0326
15 2 16 -5.9129 0.0452
15 2 19 1.3234 0.0173
15 2 22 1.2932 0.0300
15 2 25 -0.3075 0.0669
15 2 28 -0.4631 0.0456
15 3 -24 3.0498 0.0026
15 3 -21 0.3902 0.0326
15 3 -18 -4.5621 0.0177
15 3 -15 2.9691 0.0106
15 3 -12 -5.5516 0.0127
15 3 -9 -5.0034 0.0228
15 3 -6 -4.9362 0.0089
15 3 -3 1.6990 -0.0132
15 3 0 -4.4628 -0.0275
15 3 3 0.7451 -0.0293
15 3 6 5.0863 -0.0328
15 3 9 -3.2608 -0.0324
15 3 12 -1.1925 -0.0380
15 3 15 4.8007 -0.0340
15 3 18 -0.1507 -0.0513
15 3 21 5.7877 -0.0205
15 3 24 -7.2225 0.0227
15 3 27 1.0838 0.0519
15 4 -25 7.5755 -0.0316
15 4 -22 3.1307 -0.0170
15 4 -19 -3.3306 -0.0132
15 4 -16 -6.7312 0.0017
15 4 -13 -3.5603 0.0099
15 4 -10 0.1264 0.0271
15 4 -7 2.5692 0.0182
15 4 -4 -8.0520 0.0140
15 4 -1 1.6173 0.0159
15 4 2 6.7309 0.0033
15 4 5 -8.2896 -0.0014
15 4 8 5.5194 -0.0104
15 4 11 -1.6347 -0.0194
15 4 14 1.0164 -0.0122
15 4 17 5.9259 0.0001
15 4 20 0.8358 -0.0354
15 4 23 -4.4290 -0.0209
15 5 -20 -4.9908 0.0082
15 5 -17 -2.7321 -0.0051
15 5 -14 -1.1068 0.0077
15 5 -11 6.9715 -0.0021
15 5 -8 0.1081 -0.0122
15 5 -5 -2.4369 -0.0137
15 5 -2 -4.7302 -0.0173
15 5 1 2.0439 0.0071
15 5 4 0.3262 0.0149
15 5 7 -5.9864 0.0170
15 5 10 0.0404 0.0448
15 5 13 0.1187 0.0160
15 5 16 1.1476 0.0246
15 5 19 2.8633 -0.0211
15 5 22 -2.8313 -0.0301
15 6 -18 -0.4498 0.0169
15 6 -15 -0.5171 -0.0020
15 6 -12 3.4414 -0.0302
15 6 -9 0.4475 -0.0212
15 6 -6 2.0327 -0.0096
15 6 -3 2.0757 -0.0237
15 6 0 -9.4584 -0.0071
15 6 3 -4.3245 -0.0098
15 6 6 2.7254 -0.0114
15 6 9 0.2062 -0.0345
15 6 12 -3.5548 -0.0170
15 6 15 3.7364 0.0211
15 6 18 -6.5057 0.0304
15 7 -16 0.0552 -0.0284
15 7 -13 -0.0401 0.0014
15 7 -10 4.1979 0.0302
15 7 -7 6.9700 0.0263
15 7 -4 -3.6370 0.0016
15 7 -1 -5.5578 -0.0052
15 7 2 0.9202 -0.0236
15 7 5 1.7156 -0.0205
15 7 8 0.9066 -0.0145
15 7 11 -7.4397 -0.0150
15 7 14 3.0841 0.0162
15 8 -11 -2.8807 0.0753
15 8 -8 -2.5910 0.0204
15 8 -5 1.8167 0.0230
15 8 -2 3.7715 0.0198
15 8 1 -0.6793 0.0101
15 8 4 -2.4851 0.0137
15 8 7 -2.7234 0.0136
15 8 10 1.1512 0.0046
15 9 0 2.6343 -0.0930
16 1 -27 -14.8036 0.0492
16 1 -24 12.9533 0.0371
16 1 -21 -0.5226 0.0258
16 1 -18 -3.6671 0.0337
16 1 -15 0.2638 0.0138
16 1 -12 -2.5465 0.0148
16 1 -9 1.1401 0.0132
16 1 -6 -0.1026 0.0024
16 1 -3 -0.9904 -0.0113
16 1 0 -4.0753 -0.0182
16 1 3 1.1796 -0.0023
16 1 6 0.8309 0.0058
16 1 9 -1.2882 0.0038
16 1 12 -1.4327 0.0115
16 1 15 -4.0386 0.0316
16 1 18 -2.3022 0.0253
16 1 21 1.2907 0.0323
16 1 24 0.3729 0.0527
16 1 27 -5.5222 0.0977
16 2 -25 5.2229 -0.0520
16 2 -22 2.7959 0.0368
16 2 -19 -5.4484 0.0331
16 2 -16 0.0313 0.0299
16 2 -13 -7.2156 0.0463
16 2 -10 3.9440 0.0473
16 2 -7 -1.2028 0.0457
16 2 -4 -10.8775 0.0106
16 2 -1 2.0238 0.0128
16 2 2 1.3258 0.0024
16 2 5 -6.0111 0.0111
16 2 8 2.2811 -0.0085
16 2 11 -0.7269 -0.0203
16 2 14 -1.5058 -0.0222
16 2 17 4.2755 -0.0163
16 2 20 -2.8977 0.0052
16 2 23 1.5375 -0.0290
16 3 -23 7.5862 0.0009
16 3 -20 -5.7813 -0.0146
16 3 -17 -3.0881 0.0164
16 3 -14 1.8059 0.0104
16 3 -11 -5.5842 0.0156
16 3 -8 -9.0080 0.0068
16 3 -5 6.5214 0.0262
16 3 -2 -9.4940 0.0282
16 3 1 2.9172 0.0248
16 3 4 5.0929 0.0236
16 3 7 -6.1713 0.0307
16 3 10 1.8570 0.0238
16 3 13 3.9134 0.0277
16 3 16 -2.8252 -0.0208
16 3 19 8.6682 -0.0160
16 3 22 -2.9378 -0.0589
16 4 -21 -1.7318 -0.0207
16 4 -18 -0.0242 -0.0218
16 4 -15 -1.7974 -0.0429
16 4 -12 -2.1558 -0.0262
16 4 -9 -2.6281 -0.0082
16 4 -6 -1.7590 -0.0169
16 4 -3 9.8590 -0.0153
16 4 0 -4.9328 0.0046
16 4 3 1.1384 0.0095
16 4 6 2.6516 0.0115
16 4 9 -4.1614 0.0032
16 4 12 3.7455 0.0214
16 4 15 3.3990 0.0239
16 4 18 -3.7520 0.0389
16 4 21 -1.6901 0.0082
16 5 -19 -1.5913 -0.0480
16 5 -16 -4.9481 -0.0002
16 5 -13 -0.1795 0.0223
16 5 -10 9.6538 -0.0100
16 5 -7 2.7440 -0.0224
16 5 -4 -10.2830 -0.0151
16 5 -1 -1.6224 -0.0461
16 5 2 6.4987 -0.0377
16 5 5 -2.7812 -0.0280
16 5 8 7.1060 0.0043
16 5 11 -6.1557 -0.0263
16 5 14 0.5245 0.0095
16 5 17 -0.6410 0.0448
16 6 -14 4.8043 0.0240
16 6 -11 1.6764 0.0283
16 6 -8 -3.8368 -0.0120
16 6 -5 -6.9582 -0.0400
16 6 -2 0.1614 -0.0027
16 6 1 4.4142 0.0183
16 6 4 -2.7473 0.0108
16 6 7 0.3073 0.0073
16 6 10 0.6108 -0.0419
16 6 13 3.3324 -0.0656
16 7 -9 -4.9519 -0.0021
16 7 -6 1.4149 0.0178
16 7 -3 -1.5881 0.0230
16 7 0 -0.0362 0.0002
16 7 3 -9.6948 0.0181
16 7 6 5.4954 0.0116
16 7 9 3.0867 -0.0137
17 1 -23 12.8190 0.0424
17 1 -20 -8.4004 0.0572
17 1 -17 -5.6174 0.0275
17 1 -14 1.1613 0.0412
17 1 -11 -0.2948 0.0614
17 1 -8 -1.5270 0.0310
17 1 -5 1.0374 0.0561
17 1 -2 -3.1740 0.0426
17 1 1 -8.7295 0.0386
17 1 4 7.2173 0.0286
17 1 7 -0.7657 0.0401
17 1 10 -4.9540 0.0164
17 1 13 5.2012 -0.0090
17 1 16 -7.2602 -0.0145
17 1 19 0.3235 0.0172
17 1 22 -1.6622 -0.0603
17 2 -21 0.9878 0.0332
17 2 -18 -1.6205 -0.0167
17 2 -15 -2.1522 0.0101
17 2 -12 -8.1561 0.0097
17 2 -9 3.3712 0.0098
17 2 -6 -6.4563 0.0177
17 2 -3 4.8009 0.0275
17 2 0 -3.7690 0.0492
17 2 3 -2.7818 0.0591
17 2 6 -0.4736 0.0531
17 2 9 -2.5908 0.0445
17 2 12 -0.3711 0.0308
17 2 15 0.8553 0.0362
17 2 18 -0.1173 0.0087
17 2 21 2.6696 0.0404
17 3 -19 3.9109 -0.0804
17 3 -16 -10.3215 -0.0076
17 3 -13 -2.6386 -0.0038
17 3 -10 -4.5938 -0.0097
17 3 -7 4.9641 -0.0240
17 3 -4 0.6761 -0.0128
17 3 -1 -0.3500 -0.0012
17 3 2 6.6864 -0.0022
17 3 5 -6.6870 0.0030
17 3 8 5.1542 0.0095
17 3 11 0.4859 0.0369
17 3 14 -2.4903 0.0191
17 3 17 5.3429 0.0392
17 3 20 -3.6050 0.0690
17 4 -17 -10.9258 0.0472
17 4 -14 0.4553 0.0259
17 4 -11 5.4166 -0.0054
17 4 -8 -4.5543 -0.0072
17 4 -5 4.6729 -0.0231
17 4 -2 -0.2465 -0.0091
17 4 1 4.1888 -0.0188
17 4 4 8.7829 -0.0048
17 4 7 -4.0897 -0.0258
17 4 10 0.0281 -0.0193
17 4 13 4.3906 -0.0416
17 4 16 -3.2432 -0.0376
17 5 -12 -1.3178 0.0122
17 5 -9 5.0147 -0.0256
17 5 -6 -7.1995 -0.0036
17 5 -3 -0.7624 0.0394
17 5 0 5.5777 0.0212
17 5 3 -8.2882 0.0084
17 5 6 11.3981 -0.0061
17 5 9 -5.0767 -0.0106
17 5 12 9.0931 -0.0432
17 6 -7 -2.6998 -0.0155
17 6 -4 -9.9019 -0.0039
17 6 -1 2.8458 0.0280
17 6 2 -1.0403 0.0182
17 6 5 2.3058 0.0436
17 6 8 3.4659 0.0809
18 1 -19 -0.5409 -0.0245
18 1 -16 -7.5447 -0.0317
18 1 -13 -6.1122 -0.0099
18 1 -10 8.7616 0.0058
18 1 -7 5.4914 -0.0031
18 1 -4 -9.8299 0.0266
18 1 -1 4.2551 0.0396
18 1 2 -3.4844 0.0512
18 1 5 -4.1482 0.0419
18 1 8 -0.9811 0.0631
18 1 11 -1.3559 0.0586
18 1 14 2.8827 0.0398
18 1 17 -2.8848 0.0543
18 1 20 -6.0200 0.1063
18 2 -17 -3.4836 0.0341
18 2 -14 3.0404 -0.0239
18 2 -11 -1.5889 -0.0524
18 2 -8 -2.5365 -0.0055
18 2 -5 3.5000 -0.0032
18 2 -2 -6.0007 -0.0092
18 2 1 3.6082 -0.0208
18 2 4 4.4634 0.0043
18 2 7 -0.7739 0.0345
18 2 10 -3.5726 0.0376
18 2 13 0.2042 0.0141
18 2 16 -4.9646 -0.0329
18 3 -15 -1.9835 0.0052
18 3 -12 -3.4693 -0.0022
18 3 -9 -5.6401 -0.0132
18 3 -6 2.6256 0.0306
18 3 -3 9.5655 0.0191
18 3 0 -1.2787 0.0073
18 3 3 0.5989 -0.0018
18 3 6 5.9494 -0.0250
18 3 9 -0.3625 -0.0332
18 3 12 3.5784 -0.0108
18 3 15 -1.9686 -0.0250
18 4 -10 5.6334 -0.0172
18 4 -7 1.8092 0.0245
18 4 -4 0.0973 0.0263
18 4 -1 0.1290 0.0386
18 4 2 -4.2594 0.0282
18 4 5 11.1249 0.0064
18 4 8 -1.3209 0.0185
18 4 11 2.1470 0.0153
18 5 -2 -1.9228 0.0671
18 5 1 -3.0829 0.0485
19 1 -15 -3.8710 -0.0202
19 1 -12 0.5446 -0.0274
19 1 -9 -6.0509 0.0098
19 1 -6 5.2478 0.0052
19 1 -3 -3.5302 -0.0080
19 1 0 7.4992 0.0116
19 1 3 -3.7642 -0.0054
19 1 6 1.0185 0.0032
19 1 9 -2.6930 0.0029
19 1 12 -3.6572 -0.0001
19 1 15 0.1883 0.0119
19 2 -13 0.0677 -0.0106
19 2 -10 -6.3589 -0.0165
19 2 -7 4.7406 0.0493
19 2 -4 -5.9686 0.0551
19 2 -1 3.4668 0.0285
19 2 2 -1.9366 0.0202
19 2 5 2.0794 -0.0065
19 2 8 6.7631 0.0006
19 2 11 -3.2247 0.0550
19 3 -8 -0.0234 0.0839
19 3 -5 -1.5806 0.0411
19 3 -2 3.7129 0.0690
19 3 1 -10.6440 0.0461
19 3 4 13.6593 0.0477
19 3 7 -2.2433 0.0127
20 1 -8 -3.9275 0.1048
20 1 -5 -2.8965 0.0567
20 1 -2 -5.2902 0.0336
20 1 1 1.6373 0.0323
20 1 4 1.5085 0.0119
20 1 7 6.6803 0.0135
0 0 0 0.0 0.0
;
_shelx_fab_checksum              14449
_olex2_submission_special_instructions 'No special instructions were received'
_oxdiff_exptl_absorpt_empirical_details
;
Empirical correction (ABSPACK) includes:
- Absorption correction using spherical harmonics
- Frame scaling
;
loop_
_space_group_symop_operation_xyz
'x, y, z'
'-y, x-y, z'
'-x+y, -x, z'
'x+2/3, y+1/3, z+1/3'
'-y+2/3, x-y+1/3, z+1/3'
'-x+y+2/3, -x+1/3, z+1/3'
'x+1/3, y+2/3, z+2/3'
'-y+1/3, x-y+2/3, z+2/3'
'-x+y+1/3, -x+2/3, z+2/3'
'-x, -y, -z'
'y, -x+y, -z'
'x-y, x, -z'
'-x+2/3, -y+1/3, -z+1/3'
'y+2/3, -x+y+1/3, -z+1/3'
'x-y+2/3, x+1/3, -z+1/3'
'-x+1/3, -y+2/3, -z+2/3'
'y+1/3, -x+y+2/3, -z+2/3'
'x-y+1/3, x+2/3, -z+2/3'
loop_
_atom_site_label
_atom_site_type_symbol
_atom_site_fract_x
_atom_site_fract_y
_atom_site_fract_z
_atom_site_U_iso_or_equiv
_atom_site_adp_type
_atom_site_occupancy
_atom_site_site_symmetry_order
_atom_site_calc_flag
_atom_site_refinement_flags_posn
_atom_site_refinement_flags_adp
_atom_site_refinement_flags_occupancy
_atom_site_disorder_assembly
_atom_site_disorder_group
P1 P 0.666667 0.333333 0.65352(4) 0.0364(4) Uani 1 3 d S T P . .
Mg1 Mg 0.833333 0.666667 0.666667 0.0358(4) Uani 1 2 d S . P . .
N1 N 0.72675(14) 0.54759(14) 0.67747(7) 0.0372(7) Uani 1 1 d . . . . .
N2 N 0.89058(14) 0.62579(15) 0.69506(7) 0.0383(7) Uani 1 1 d . . . . .
N3 N 0.85530(14) 0.62785(14) 0.62025(6) 0.0368(7) Uani 1 1 d . . . . .
C1 C 0.66774(17) 0.41329(17) 0.67582(8) 0.0361(8) Uani 1 1 d . . . . .
C2 C 0.71869(18) 0.48451(17) 0.66442(8) 0.0348(7) Uani 1 1 d . . . . .
H2 H 0.750527 0.488530 0.645693 0.042 Uiso 1 1 calc R U . . .
C3 C 0.67977(19) 0.54032(19) 0.70375(9) 0.0472(9) Uani 1 1 d . . . . .
H3 H 0.683712 0.583865 0.713755 0.057 Uiso 1 1 calc R U . . .
C4 C 0.6265(2) 0.4725(2) 0.71662(10) 0.0551(10) Uani 1 1 d . . . . .
H4 H 0.594010 0.469573 0.734812 0.066 Uiso 1 1 calc R U . . .
C5 C 0.6210(2) 0.4078(2) 0.70240(9) 0.0490(9) Uani 1 1 d . . . . .
H5 H 0.585122 0.360566 0.711129 0.059 Uiso 1 1 calc R U . . .
C6 C 0.89643(18) 0.62497(18) 0.73131(8) 0.0385(8) Uani 1 1 d . . . . .
C7 C 0.9325(2) 0.5837(2) 0.74094(10) 0.0525(9) Uani 1 1 d . . . . .
H7 H 0.942527 0.574374 0.764085 0.063 Uiso 1 1 calc R U . . .
C8 C 0.9494(2) 0.56058(19) 0.71049(9) 0.0497(9) Uani 1 1 d . . . . .
H8 H 0.973975 0.532738 0.708550 0.060 Uiso 1 1 calc R U . . .
C9 C 0.92273(18) 0.58671(17) 0.68171(9) 0.0394(8) Uani 1 1 d . . . . .
C10 C 0.92583(19) 0.57176(17) 0.64575(9) 0.0432(9) Uani 1 1 d . . . . .
C11 C 0.9667(2) 0.5305(2) 0.63676(10) 0.0559(10) Uani 1 1 d . . . . .
C12 C 1.0397(3) 0.5602(4) 0.64043(18) 0.128(2) Uani 1 1 d . . . . .
H12 H 1.066898 0.609920 0.648511 0.153 Uiso 1 1 calc R U . . .
C13 C 1.0790(4) 0.5242(5) 0.6333(2) 0.159(3) Uani 1 1 d . . . . .
H13 H 1.131189 0.547815 0.636310 0.190 Uiso 1 1 calc R U . . .
C14 C 1.0379(6) 0.4517(6) 0.6217(2) 0.150(3) Uani 1 1 d . . . . .
H14 H 1.062493 0.425783 0.614769 0.180 Uiso 1 1 calc R U . . .
C15 C 0.9643(5) 0.4180(3) 0.62018(15) 0.106(2) Uani 1 1 d . . . . .
H15 H 0.936733 0.366882 0.614401 0.128 Uiso 1 1 calc R U . . .
C16 C 0.9275(3) 0.4564(2) 0.62689(11) 0.0795(14) Uani 1 1 d . . . . .
H16 H 0.875111 0.432020 0.624756 0.095 Uiso 1 1 calc R U . . .
C17 C 0.89520(19) 0.59143(18) 0.61733(9) 0.0416(8) Uani 1 1 d . . . . .
C18 C 0.9024(2) 0.5790(2) 0.58080(9) 0.0540(10) Uani 1 1 d . . . . .
H18 H 0.927672 0.555459 0.571511 0.065 Uiso 1 1 calc R U . . .
C19 C 0.8670(2) 0.6066(2) 0.56215(10) 0.0612(11) Uani 1 1 d . . . . .
H19 H 0.862107 0.605496 0.537359 0.073 Uiso 1 1 calc R U . . .
C20 C 0.83739(19) 0.63856(19) 0.58687(8) 0.0427(8) Uani 1 1 d . . . . .
C21 C 0.79890(19) 0.67653(19) 0.57805(8) 0.0439(9) Uani 1 1 d . . . . .
C22 C 0.7876(2) 0.6851(2) 0.53946(9) 0.0529(10) Uani 1 1 d . . . . .
C23 C 0.8486(3) 0.7314(3) 0.51830(10) 0.0771(14) Uani 1 1 d . . . . .
H23 H 0.897433 0.753823 0.527500 0.093 Uiso 1 1 calc R U . . .
C24 C 0.8366(4) 0.7441(3) 0.48338(13) 0.1026(18) Uani 1 1 d . . . . .
H24 H 0.877042 0.778847 0.469570 0.123 Uiso 1 1 calc R U . . .
C25 C 0.7676(4) 0.7070(4) 0.46919(13) 0.110(2) Uani 1 1 d . . . . .
H25 H 0.760773 0.713938 0.445150 0.132 Uiso 1 1 calc R U . . .
C26 C 0.7080(3) 0.6600(3) 0.48916(12) 0.1009(18) Uani 1 1 d . . . . .
H26 H 0.659990 0.634150 0.479031 0.121 Uiso 1 1 calc R U . . .
C27 C 0.7182(3) 0.6500(3) 0.52486(10) 0.0802(14) Uani 1 1 d . . . . .
H27 H 0.676542 0.618687 0.538955 0.096 Uiso 1 1 calc R U . . .
loop_
_atom_site_aniso_label
_atom_site_aniso_U_11
_atom_site_aniso_U_22
_atom_site_aniso_U_33
_atom_site_aniso_U_23
_atom_site_aniso_U_13
_atom_site_aniso_U_12
P1 0.0305(5) 0.0305(5) 0.0483(8) 0.000 0.000 0.0152(3)
Mg1 0.0396(9) 0.0319(8) 0.0389(8) 0.0016(7) 0.0054(7) 0.0202(7)
N1 0.0329(15) 0.0372(16) 0.0436(15) 0.0037(13) 0.0033(13) 0.0192(13)
N2 0.0329(15) 0.0364(16) 0.0477(16) 0.0074(13) 0.0074(13) 0.0189(13)
N3 0.0360(15) 0.0303(15) 0.0431(16) 0.0006(12) 0.0025(13) 0.0159(13)
C1 0.0301(17) 0.0340(19) 0.0461(18) 0.0052(15) 0.0034(16) 0.0174(16)
C2 0.0353(18) 0.0321(18) 0.0386(17) 0.0001(15) 0.0067(15) 0.0181(15)
C3 0.041(2) 0.031(2) 0.065(2) -0.0080(17) 0.0060(19) 0.0151(17)
C4 0.049(2) 0.044(2) 0.068(2) -0.0069(19) 0.015(2) 0.0199(19)
C5 0.045(2) 0.033(2) 0.059(2) 0.0015(17) 0.0157(18) 0.0121(17)
C6 0.0391(19) 0.0311(18) 0.0409(19) 0.0065(15) 0.0013(15) 0.0142(16)
C7 0.052(2) 0.052(2) 0.056(2) 0.0075(19) -0.0006(19) 0.028(2)
C8 0.053(2) 0.042(2) 0.064(2) 0.0019(18) -0.0004(19) 0.031(2)
C9 0.0356(19) 0.0294(18) 0.053(2) -0.0006(16) 0.0032(16) 0.0159(16)
C10 0.041(2) 0.0253(18) 0.062(2) 0.0028(16) 0.0107(17) 0.0156(16)
C11 0.063(3) 0.049(2) 0.069(2) 0.005(2) 0.013(2) 0.038(2)
C12 0.079(4) 0.131(5) 0.202(6) -0.061(5) -0.005(4) 0.075(4)
C13 0.130(6) 0.191(8) 0.225(8) -0.077(7) -0.036(6) 0.133(6)
C14 0.224(10) 0.173(8) 0.152(6) -0.004(6) 0.036(7) 0.174(8)
C15 0.176(7) 0.069(3) 0.104(4) 0.030(3) 0.074(5) 0.084(4)
C16 0.107(4) 0.042(3) 0.096(3) 0.007(2) 0.045(3) 0.042(3)
C17 0.041(2) 0.0289(18) 0.053(2) 0.0011(16) 0.0112(17) 0.0161(16)
C18 0.071(3) 0.054(2) 0.048(2) 0.0020(18) 0.0173(19) 0.040(2)
C19 0.080(3) 0.060(3) 0.047(2) -0.0007(19) 0.017(2) 0.038(2)
C20 0.041(2) 0.037(2) 0.0431(19) 0.0011(16) 0.0068(16) 0.0147(17)
C21 0.044(2) 0.044(2) 0.0376(18) 0.0045(16) 0.0047(16) 0.0176(18)
C22 0.055(2) 0.050(2) 0.048(2) 0.0002(18) -0.0054(19) 0.022(2)
C23 0.075(3) 0.097(4) 0.053(2) 0.029(2) 0.014(2) 0.039(3)
C24 0.096(4) 0.124(5) 0.074(3) 0.037(3) 0.026(3) 0.044(4)
C25 0.112(5) 0.163(6) 0.055(3) 0.033(3) 0.006(3) 0.068(5)
C26 0.086(4) 0.138(5) 0.064(3) 0.024(3) -0.013(3) 0.044(4)
C27 0.077(3) 0.092(4) 0.054(2) 0.017(2) -0.005(2) 0.028(3)
loop_
_atom_type_symbol
_atom_type_description
_atom_type_scat_dispersion_real
_atom_type_scat_dispersion_imag
_atom_type_scat_source
C C 0.0033 0.0016 'International Tables Vol C Tables 4.2.6.8 and 6.1.1.4'
H H 0.0000 0.0000 'International Tables Vol C Tables 4.2.6.8 and 6.1.1.4'
Mg Mg 0.0486 0.0363 'International Tables Vol C Tables 4.2.6.8 and 6.1.1.4'
N N 0.0061 0.0033 'International Tables Vol C Tables 4.2.6.8 and 6.1.1.4'
P P 0.1023 0.0942 'International Tables Vol C Tables 4.2.6.8 and 6.1.1.4'
loop_
_exptl_crystal_face_index_h
_exptl_crystal_face_index_k
_exptl_crystal_face_index_l
_exptl_crystal_face_perp_dist
-1 -1 0 0.1512
-28 6 -4 0.1601
28 -6 4 0.1601
0 0 1 0.1133
0 -1 5 0.1215
-1 0 5 0.1234
1 0 -5 0.0104
-5 5 1 0.2119
5 -5 -1 0.2119
1 1 0 0.1512
loop_
_geom_angle_atom_site_label_1
_geom_angle_atom_site_label_2
_geom_angle_atom_site_label_3
_geom_angle
_geom_angle_site_symmetry_1
_geom_angle_site_symmetry_3
_geom_angle_publ_flag
C1 P1 C1 100.77(13) 3_665 2_655 ?
C1 P1 C1 100.77(13) 3_665 . ?
C1 P1 C1 100.77(13) 2_655 . ?
N1 Mg1 N1 180.0 13_666 . ?
N2 Mg1 N1 84.90(10) 13_666 13_666 ?
N2 Mg1 N1 95.10(10) . 13_666 ?
N2 Mg1 N1 95.10(10) 13_666 . ?
N2 Mg1 N1 84.90(10) . . ?
N2 Mg1 N2 180.00(10) 13_666 . ?
N2 Mg1 N3 89.98(10) 13_666 . ?
N2 Mg1 N3 89.97(10) . 13_666 ?
N2 Mg1 N3 90.02(10) 13_666 13_666 ?
N2 Mg1 N3 90.02(10) . . ?
N3 Mg1 N1 89.21(9) 13_666 . ?
N3 Mg1 N1 90.78(9) 13_666 13_666 ?
N3 Mg1 N1 89.22(9) . 13_666 ?
N3 Mg1 N1 90.79(9) . . ?
N3 Mg1 N3 180.0 13_666 . ?
C2 N1 Mg1 123.4(2) . . ?
C2 N1 C3 115.9(3) . . ?
C3 N1 Mg1 119.1(2) . . ?
C6 N2 Mg1 126.5(2) . . ?
C9 N2 Mg1 126.5(2) . . ?
C9 N2 C6 106.7(3) . . ?
C17 N3 Mg1 126.1(2) . . ?
C20 N3 Mg1 126.2(2) . . ?
C20 N3 C17 107.5(3) . . ?
C2 C1 P1 118.2(2) . . ?
C5 C1 P1 125.0(3) . . ?
C5 C1 C2 116.8(3) . . ?
N1 C2 C1 125.9(3) . . ?
N1 C2 H2 117.1 . . ?
C1 C2 H2 117.1 . . ?
N1 C3 H3 118.5 . . ?
N1 C3 C4 122.9(3) . . ?
C4 C3 H3 118.5 . . ?
C3 C4 H4 120.5 . . ?
C3 C4 C5 119.0(3) . . ?
C5 C4 H4 120.5 . . ?
C1 C5 C4 119.4(3) . . ?
C1 C5 H5 120.3 . . ?
C4 C5 H5 120.3 . . ?
N2 C6 C7 109.6(3) . . ?
N2 C6 C21 125.0(3) . 13_666 ?
C21 C6 C7 125.4(3) 13_666 . ?
C6 C7 H7 126.4 . . ?
C8 C7 C6 107.3(3) . . ?
C8 C7 H7 126.4 . . ?
C7 C8 H8 126.5 . . ?
C7 C8 C9 107.1(3) . . ?
C9 C8 H8 126.5 . . ?
N2 C9 C8 109.4(3) . . ?
N2 C9 C10 125.1(3) . . ?
C10 C9 C8 125.5(3) . . ?
C9 C10 C11 116.3(3) . . ?
C9 C10 C17 126.9(3) . . ?
C17 C10 C11 116.8(3) . . ?
C12 C11 C10 123.1(4) . . ?
C12 C11 C16 116.4(4) . . ?
C16 C11 C10 120.3(4) . . ?
C11 C12 H12 117.5 . . ?
C11 C12 C13 125.1(6) . . ?
C13 C12 H12 117.5 . . ?
C12 C13 H13 121.9 . . ?
C14 C13 C12 116.2(7) . . ?
C14 C13 H13 121.9 . . ?
C13 C14 H14 119.6 . . ?
C15 C14 C13 120.7(6) . . ?
C15 C14 H14 119.6 . . ?
C14 C15 H15 119.6 . . ?
C14 C15 C16 120.9(6) . . ?
C16 C15 H15 119.6 . . ?
C11 C16 H16 119.8 . . ?
C15 C16 C11 120.4(5) . . ?
C15 C16 H16 119.8 . . ?
N3 C17 C10 125.4(3) . . ?
N3 C17 C18 108.8(3) . . ?
C10 C17 C18 125.8(3) . . ?
C17 C18 H18 126.1 . . ?
C19 C18 C17 107.8(3) . . ?
C19 C18 H18 126.1 . . ?
C18 C19 H19 126.2 . . ?
C18 C19 C20 107.6(3) . . ?
C20 C19 H19 126.2 . . ?
N3 C20 C19 108.3(3) . . ?
N3 C20 C21 125.7(3) . . ?
C21 C20 C19 126.0(3) . . ?
C6 C21 C22 116.2(3) 13_666 . ?
C20 C21 C6 126.4(3) . 13_666 ?
C20 C21 C22 117.4(3) . . ?
C23 C22 C21 119.9(4) . . ?
C27 C22 C21 121.1(4) . . ?
C27 C22 C23 119.0(4) . . ?
C22 C23 H23 120.4 . . ?
C24 C23 C22 119.3(5) . . ?
C24 C23 H23 120.4 . . ?
C23 C24 H24 119.7 . . ?
C25 C24 C23 120.5(5) . . ?
C25 C24 H24 119.7 . . ?
C24 C25 H25 119.7 . . ?
C24 C25 C26 120.7(5) . . ?
C26 C25 H25 119.7 . . ?
C25 C26 H26 120.2 . . ?
C25 C26 C27 119.6(5) . . ?
C27 C26 H26 120.2 . . ?
C22 C27 C26 120.7(5) . . ?
C22 C27 H27 119.7 . . ?
C26 C27 H27 119.7 . . ?
loop_
_geom_bond_atom_site_label_1
_geom_bond_atom_site_label_2
_geom_bond_distance
_geom_bond_site_symmetry_2
_geom_bond_publ_flag
P1 C1 1.843(3) 3_665 ?
P1 C1 1.843(3) . ?
P1 C1 1.843(3) 2_655 ?
Mg1 N1 2.374(3) . ?
Mg1 N1 2.374(3) 13_666 ?
Mg1 N2 2.062(2) . ?
Mg1 N2 2.062(2) 13_666 ?
Mg1 N3 2.069(2) 13_666 ?
Mg1 N3 2.069(2) . ?
N1 C2 1.322(4) . ?
N1 C3 1.342(4) . ?
N2 C6 1.374(4) . ?
N2 C9 1.371(4) . ?
N3 C17 1.369(4) . ?
N3 C20 1.362(4) . ?
C1 C2 1.380(4) . ?
C1 C5 1.357(4) . ?
C2 H2 0.9400 . ?
C3 H3 0.9400 . ?
C3 C4 1.366(5) . ?
C4 H4 0.9400 . ?
C4 C5 1.390(5) . ?
C5 H5 0.9400 . ?
C6 C7 1.429(5) . ?
C6 C21 1.410(5) 13_666 ?
C7 H7 0.9400 . ?
C7 C8 1.356(5) . ?
C8 H8 0.9400 . ?
C8 C9 1.439(5) . ?
C9 C10 1.401(5) . ?
C10 C11 1.505(5) . ?
C10 C17 1.404(5) . ?
C11 C12 1.320(6) . ?
C11 C16 1.377(5) . ?
C12 H12 0.9400 . ?
C12 C13 1.375(8) . ?
C13 H13 0.9400 . ?
C13 C14 1.371(10) . ?
C14 H14 0.9400 . ?
C14 C15 1.319(10) . ?
C15 H15 0.9400 . ?
C15 C16 1.368(7) . ?
C16 H16 0.9400 . ?
C17 C18 1.424(5) . ?
C18 H18 0.9400 . ?
C18 C19 1.331(5) . ?
C19 H19 0.9400 . ?
C19 C20 1.442(5) . ?
C20 C21 1.406(5) . ?
C21 C22 1.500(5) . ?
C22 C23 1.390(5) . ?
C22 C27 1.358(6) . ?
C23 H23 0.9400 . ?
C23 C24 1.390(6) . ?
C24 H24 0.9400 . ?
C24 C25 1.346(7) . ?
C25 H25 0.9400 . ?
C25 C26 1.353(7) . ?
C26 H26 0.9400 . ?
C26 C27 1.395(6) . ?
C27 H27 0.9400 . ?
loop_
_geom_torsion_atom_site_label_1
_geom_torsion_atom_site_label_2
_geom_torsion_atom_site_label_3
_geom_torsion_atom_site_label_4
_geom_torsion
_geom_torsion_site_symmetry_1
_geom_torsion_site_symmetry_2
_geom_torsion_site_symmetry_3
_geom_torsion_site_symmetry_4
_geom_torsion_publ_flag
P1 C1 C2 N1 180.0(2) . . . . ?
P1 C1 C5 C4 -178.8(3) . . . . ?
Mg1 N1 C2 C1 164.3(2) . . . . ?
Mg1 N1 C3 C4 -166.1(3) . . . . ?
Mg1 N2 C6 C7 172.7(2) . . . . ?
Mg1 N2 C6 C21 -4.4(5) . . . 13_666 ?
Mg1 N2 C9 C8 -173.2(2) . . . . ?
Mg1 N2 C9 C10 4.1(4) . . . . ?
Mg1 N3 C17 C10 2.5(5) . . . . ?
Mg1 N3 C17 C18 -175.7(2) . . . . ?
Mg1 N3 C20 C19 176.3(2) . . . . ?
Mg1 N3 C20 C21 -1.7(5) . . . . ?
N1 C3 C4 C5 1.0(6) . . . . ?
N2 C6 C7 C8 0.9(4) . . . . ?
N2 C9 C10 C11 177.5(3) . . . . ?
N2 C9 C10 C17 -2.2(5) . . . . ?
N3 C17 C18 C19 -0.6(4) . . . . ?
N3 C20 C21 C6 -1.9(6) . . . 13_666 ?
N3 C20 C21 C22 177.4(3) . . . . ?
C1 P1 C1 C2 -176.0(2) 2_655 . . . ?
C1 P1 C1 C2 80.7(3) 3_665 . . . ?
C1 P1 C1 C5 2.6(3) 2_655 . . . ?
C1 P1 C1 C5 -100.7(2) 3_665 . . . ?
C2 N1 C3 C4 0.0(5) . . . . ?
C2 C1 C5 C4 -0.1(5) . . . . ?
C3 N1 C2 C1 -1.1(5) . . . . ?
C3 C4 C5 C1 -0.9(6) . . . . ?
C5 C1 C2 N1 1.2(5) . . . . ?
C6 N2 C9 C8 0.1(4) . . . . ?
C6 N2 C9 C10 177.3(3) . . . . ?
C6 C7 C8 C9 -0.8(4) . . . . ?
C6 C21 C22 C23 110.8(4) 13_666 . . . ?
C6 C21 C22 C27 -67.4(5) 13_666 . . . ?
C7 C8 C9 N2 0.5(4) . . . . ?
C7 C8 C9 C10 -176.8(3) . . . . ?
C8 C9 C10 C11 -5.6(5) . . . . ?
C8 C9 C10 C17 174.7(3) . . . . ?
C9 N2 C6 C7 -0.6(4) . . . . ?
C9 N2 C6 C21 -177.6(3) . . . 13_666 ?
C9 C10 C11 C12 -68.2(6) . . . . ?
C9 C10 C11 C16 106.3(4) . . . . ?
C9 C10 C17 N3 -1.4(6) . . . . ?
C9 C10 C17 C18 176.6(3) . . . . ?
C10 C11 C12 C13 178.4(6) . . . . ?
C10 C11 C16 C15 -177.2(4) . . . . ?
C10 C17 C18 C19 -178.8(4) . . . . ?
C11 C10 C17 N3 178.9(3) . . . . ?
C11 C10 C17 C18 -3.2(5) . . . . ?
C11 C12 C13 C14 -0.2(12) . . . . ?
C12 C11 C16 C15 -2.3(7) . . . . ?
C12 C13 C14 C15 -4.9(13) . . . . ?
C13 C14 C15 C16 6.3(12) . . . . ?
C14 C15 C16 C11 -2.5(9) . . . . ?
C16 C11 C12 C13 3.7(10) . . . . ?
C17 N3 C20 C19 0.6(4) . . . . ?
C17 N3 C20 C21 -177.4(3) . . . . ?
C17 C10 C11 C12 111.5(5) . . . . ?
C17 C10 C11 C16 -74.0(5) . . . . ?
C17 C18 C19 C20 0.9(4) . . . . ?
C18 C19 C20 N3 -1.0(4) . . . . ?
C18 C19 C20 C21 177.0(4) . . . . ?
C19 C20 C21 C6 -179.5(3) . . . 13_666 ?
C19 C20 C21 C22 -0.3(5) . . . . ?
C20 N3 C17 C10 178.2(3) . . . . ?
C20 N3 C17 C18 0.0(4) . . . . ?
C20 C21 C22 C23 -68.6(5) . . . . ?
C20 C21 C22 C27 113.3(4) . . . . ?
C21 C6 C7 C8 178.0(3) 13_666 . . . ?
C21 C22 C23 C24 -174.3(4) . . . . ?
C21 C22 C27 C26 178.3(4) . . . . ?
C22 C23 C24 C25 -5.9(8) . . . . ?
C23 C22 C27 C26 0.1(7) . . . . ?
C23 C24 C25 C26 3.8(10) . . . . ?
C24 C25 C26 C27 0.3(10) . . . . ?
C25 C26 C27 C22 -2.2(9) . . . . ?
C27 C22 C23 C24 3.9(7) . . . . ?
loop_
_smtbx_masks_void_nr
_smtbx_masks_void_average_x
_smtbx_masks_void_average_y
_smtbx_masks_void_average_z
_smtbx_masks_void_volume
_smtbx_masks_void_count_electrons
_smtbx_masks_void_content
1 -0.095 -0.032 -0.506 5422.9 851.1 '15 CHCl3'
2 0.000 0.000 0.500 260.8 120.7 '2 CHCl3'
3 0.333 0.667 0.167 260.8 120.7 '2 CHCl3'
4 0.667 0.333 0.833 260.8 120.7 '2 CHCl3'
