#------------------------------------------------------------------------------
#$Date: 2023-06-29 12:16:13 +0300 (Thu, 29 Jun 2023) $
#$Revision: 284567 $
#$URL: file:///home/coder/svn-repositories/cod/cif/1/56/93/1569311.cif $
#------------------------------------------------------------------------------
#
# This file is available in the Crystallography Open Database (COD),
# http://www.crystallography.net/
#
# All data on this site have been placed in the public domain by the
# contributors.
#
data_1569311
loop_
_publ_author_name
'Garc&#xed;a-Romero, &#xc1;lvaro'
'Miguel, Daniel'
'Wright, Dominic S.'
'&#xc1;lvarez, Celedonio M'
'Garc&#xed;a-Rodr&#xed;guez, Ra&#xfa;l'
_publ_section_title
;
 Structural and dimensional control of porphyrin capsules using Group 15
 tris(3-pyridyl) linkers.
;
_journal_issue                   24
_journal_name_full               'Chemical science'
_journal_page_first              6522
_journal_page_last               6530
_journal_paper_doi               10.1039/d3sc02151c
_journal_volume                  14
_journal_year                    2023
_chemical_formula_moiety         'C162 H108 Bi2 Mg3 N18, 2(C1 H1 Cl3)'
_chemical_formula_sum            'C164 H110 Bi2 Cl6 Mg3 N18'
_chemical_formula_weight         3036.28
_space_group_crystal_system      trigonal
_space_group_IT_number           148
_space_group_name_Hall           '-R 3'
_space_group_name_H-M_alt        'R -3 :H'
_atom_sites_solution_hydrogens   geom
_atom_sites_solution_primary     dual
_audit_creation_date             2022-06-05
_audit_creation_method
;
Olex2 1.3
(compiled 2020.11.12 svn.r5f609507 for OlexSys, GUI svn.r6408)
;
_audit_update_record
;
2022-08-10 deposited with the CCDC.	2023-05-17 downloaded from the CCDC.
;
_cell_angle_alpha                90
_cell_angle_beta                 90
_cell_angle_gamma                120
_cell_formula_units_Z            3
_cell_length_a                   20.9744(6)
_cell_length_b                   20.9744(6)
_cell_length_c                   37.5959(13)
_cell_measurement_reflns_used    3820
_cell_measurement_temperature    219.9(4)
_cell_measurement_theta_max      25.4470
_cell_measurement_theta_min      2.4860
_cell_volume                     14323.5(8)
_computing_cell_refinement       'CrysAlisPro 1.171.38.46 (Rigaku OD, 2015)'
_computing_data_collection       'CrysAlisPro 1.171.38.46 (Rigaku OD, 2015)'
_computing_data_reduction        'CrysAlisPro 1.171.38.46 (Rigaku OD, 2015)'
_computing_molecular_graphics    'Olex2 1.3 (Dolomanov et al., 2009)'
_computing_publication_material  'Olex2 1.3 (Dolomanov et al., 2009)'
_computing_structure_refinement  'SHELXL 2018/3 (Sheldrick, 2015)'
_computing_structure_solution    'SHELXT 2018/2 (Sheldrick, 2018)'
_diffrn_ambient_environment      N~2~
_diffrn_ambient_temperature      219.9(4)
_diffrn_detector                 'CCD plate'
_diffrn_detector_area_resol_mean 10.4757
_diffrn_detector_type            Atlas
_diffrn_measured_fraction_theta_full 0.999
_diffrn_measured_fraction_theta_max 0.998
_diffrn_measurement_details
;
List of Runs (angles in degrees, time in seconds):

  # Type    Start    End  Width  t~exp~   \w     \q     \k     \f   Frames
#--------------------------------------------------------------------------
  1  \w    -60.00  36.00   1.00   30.00    --   12.36 -57.00 -30.00   96
;
_diffrn_measurement_device       'four-circle diffractometer'
_diffrn_measurement_device_type  'SuperNova, Dual, Cu at zero, Atlas'
_diffrn_measurement_method       '\w scans'
_diffrn_orient_matrix_type
'CrysAlisPro convention (1999,Acta A55,543-557)'
_diffrn_orient_matrix_UB_11      0.0074238000
_diffrn_orient_matrix_UB_12      -0.0112820000
_diffrn_orient_matrix_UB_13      0.0165151000
_diffrn_orient_matrix_UB_21      -0.0008081000
_diffrn_orient_matrix_UB_22      0.0297275000
_diffrn_orient_matrix_UB_23      0.0085926000
_diffrn_orient_matrix_UB_31      -0.0383181000
_diffrn_orient_matrix_UB_32      -0.0226427000
_diffrn_orient_matrix_UB_33      0.0030254000
_diffrn_radiation_monochromator  mirror
_diffrn_radiation_probe          x-ray
_diffrn_radiation_type           'Mo K\a'
_diffrn_radiation_wavelength     0.71073
_diffrn_reflns_av_R_equivalents  0.0260
_diffrn_reflns_av_unetI/netI     0.0514
_diffrn_reflns_Laue_measured_fraction_full 0.999
_diffrn_reflns_Laue_measured_fraction_max 0.998
_diffrn_reflns_limit_h_max       24
_diffrn_reflns_limit_h_min       -15
_diffrn_reflns_limit_k_max       13
_diffrn_reflns_limit_k_min       -25
_diffrn_reflns_limit_l_max       45
_diffrn_reflns_limit_l_min       -37
_diffrn_reflns_number            11221
_diffrn_reflns_point_group_measured_fraction_full 0.999
_diffrn_reflns_point_group_measured_fraction_max 0.998
_diffrn_reflns_theta_full        25.242
_diffrn_reflns_theta_max         25.697
_diffrn_reflns_theta_min         2.307
_diffrn_source                   'micro-focus sealed X-ray tube'
_diffrn_source_type              'SuperNova (Mo) X-ray Source'
_exptl_absorpt_coefficient_mu    1.979
_exptl_absorpt_correction_T_max  1.000
_exptl_absorpt_correction_T_min  0.790
_exptl_absorpt_correction_type   gaussian
_exptl_absorpt_process_details
;
CrysAlisPro 1.171.38.46 (Rigaku Oxford Diffraction, 2015)
Numerical absorption correction based on gaussian integration over
			a multifaceted crystal model
Empirical absorption correction using spherical harmonics,
 implemented in SCALE3 ABSPACK scaling algorithm.
;
_exptl_crystal_colour            violet
_exptl_crystal_colour_primary    violet
_exptl_crystal_density_diffrn    1.056
_exptl_crystal_description       block
_exptl_crystal_F_000             4572
_exptl_crystal_size_max          0.366
_exptl_crystal_size_mid          0.231
_exptl_crystal_size_min          0.187
_refine_diff_density_max         1.520
_refine_diff_density_min         -0.764
_refine_diff_density_rms         0.067
_refine_ls_extinction_method     none
_refine_ls_goodness_of_fit_ref   1.006
_refine_ls_hydrogen_treatment    constr
_refine_ls_matrix_type           full
_refine_ls_number_parameters     292
_refine_ls_number_reflns         6058
_refine_ls_number_restraints     0
_refine_ls_restrained_S_all      1.006
_refine_ls_R_factor_all          0.0450
_refine_ls_R_factor_gt           0.0338
_refine_ls_shift/su_max          0.002
_refine_ls_shift/su_mean         0.000
_refine_ls_structure_factor_coef Fsqd
_refine_ls_weighting_details
'w=1/[\s^2^(Fo^2^)+(0.0431P)^2^] where P=(Fo^2^+2Fc^2^)/3'
_refine_ls_weighting_scheme      calc
_refine_ls_wR_factor_gt          0.0799
_refine_ls_wR_factor_ref         0.0837
_reflns_Friedel_coverage         0.000
_reflns_number_gt                4984
_reflns_number_total             6058
_reflns_threshold_expression     'I > 2\s(I)'
_cod_data_source_file            d3sc02151c2.cif
_cod_data_source_block           2Mg
_cod_original_cell_volume        14323.5(10)
_cod_original_sg_symbol_H-M      'R -3'
_cod_database_code               1569311
_shelx_shelxl_version_number     2018/3
_chemical_oxdiff_formula         'C168 H114 Bi2 Cl18 Mg3 N18'
_chemical_oxdiff_usercomment     'purple block'
_shelx_space_group_comment
;
The symmetry employed for this shelxl refinement is uniquely defined
by the following loop, which should always be used as a source of
symmetry information in preference to the above space-group names.
They are only intended as comments.
;
_reflns_odcompleteness_completeness 92.94
_reflns_odcompleteness_iscentric 1
_reflns_odcompleteness_theta     26.32
_olex2_refinement_description
;
1.a Ternary CH refined with riding coordinates:
 C1S(H1S)
1.b Aromatic/amide H refined with riding coordinates:
 C2(H2), C3(H3), C4(H4), C5(H5), C7(H7), C8(H8), C12(H12), C13(H13), C14(H14),
 C15(H15), C16(H16), C18(H18), C19(H19), C23(H23), C24(H24), C25(H25), C26(H26),
  C27(H27)
;
_smtbx_masks_special_details
;
A solvent mask was calculated and 1114 electrons were found in a volume of 5596 cubic angstroms in 1 void per unit cell. 
The crystallization solvent was CHCl3/hexane, and this is consistent with the presence of roughly 6 CHCl3 per formula unit (i.e . roughly 1 CHCl3 per asymmetric unit; 18 CHCl3 per unit cell) which account for 1044 electrons per unit cell. 
The crystals were observed to lose solvent very quickly during the preparation of the sample, and therefore the exact amount of CHCl3 is expected to vary among crystals due to partial loss of CHCl3
;
_smtbx_masks_void_probe_radius   1.2
_smtbx_masks_void_truncation_radius 1.2
_shelx_res_file
;
TITL agr440bt3_a.res in R-3
    agr440bt3.res
    created by SHELXL-2018/3 at 10:54:21 on 05-Jun-2022
REM Old TITL 1_a.res in R-3
REM SHELXT solution in R-3: R1 0.132, Rweak 0.015, Alpha 0.048
REM <I/s> 0.000 for 0 systematic absences, Orientation as input
REM Formula found by SHELXT: C140 Bi2 Cl6 Mg3 N60
CELL 0.71073 20.9744 20.9744 37.5959 90 90 120
ZERR 3 0.0006 0.0006 0.0013 0 0 0
LATT 3
SYMM -Y,+X-Y,+Z
SYMM +Y-X,-X,+Z
SFAC C H Bi Cl Mg N
UNIT 492 330 6 18 9 54

L.S. 8 0 0
PLAN  18
TEMP -53.2(4)
CONF
BOND
list 4
MORE -1
BOND $H
ABIN
fmap 2 53
acta
REM <olex2.extras>
REM <HklSrc "%.\\AGR440bt3.hkl">
REM </olex2.extras>

WGHT    0.043100
FVAR       0.10096
BI1   3    0.333333    0.666667    0.467990    10.33333    0.03018    0.03018 =
         0.04955    0.00000    0.00000    0.01509
MG1   5    0.500000    0.500000    0.500000    10.50000    0.03391    0.02605 =
         0.03233    0.00509    0.00619    0.01741
N1    6    0.394925    0.508140    0.509919    11.00000    0.03329    0.02756 =
         0.03973    0.00153    0.00651    0.01549
N2    6    0.557407    0.597620    0.527939    11.00000    0.03410    0.02831 =
         0.03643    0.00098    0.00311    0.01581
N3    6    0.477456    0.440823    0.546867    11.00000    0.03377    0.03250 =
         0.03491    0.00262    0.00373    0.01954
C1    1    0.333399    0.577316    0.500405    11.00000    0.02851    0.02502 =
         0.04660   -0.00471   -0.00075    0.01183
C2    1    0.386792    0.559195    0.492853    11.00000    0.03069    0.02469 =
         0.04569    0.00119    0.00675    0.01348
AFIX  43
H2    2    0.419834    0.584802    0.474289    11.00000   -1.20000
AFIX   0
C3    1    0.347258    0.472286    0.535951    11.00000    0.03576    0.03857 =
         0.05087    0.00932    0.00333    0.01996
AFIX  43
H3    2    0.351884    0.436083    0.548537    11.00000   -1.20000
AFIX   0
C4    1    0.291655    0.485517    0.545348    11.00000    0.03825    0.05908 =
         0.04396    0.01201    0.01220    0.02614
AFIX  43
H4    2    0.258877    0.458404    0.563748    11.00000   -1.20000
AFIX   0
C5    1    0.284425    0.538891    0.527546    11.00000    0.03512    0.04394 =
         0.04857   -0.00065    0.00425    0.02409
AFIX  43
H5    2    0.246974    0.549068    0.533689    11.00000   -1.20000
AFIX   0
C6    1    0.437886    0.365621    0.550205    11.00000    0.03503    0.03051 =
         0.04223    0.00731    0.01079    0.01727
C7    1    0.432076    0.347596    0.587409    11.00000    0.06418    0.03975 =
         0.04352    0.01504    0.01859    0.02827
AFIX  43
H7    2    0.407897    0.299984    0.597203    11.00000   -1.20000
AFIX   0
C8    1    0.467214    0.410675    0.605531    11.00000    0.06376    0.05071 =
         0.03637    0.01128    0.00814    0.03081
AFIX  43
H8    2    0.472481    0.415454    0.630375    11.00000   -1.20000
AFIX   0
C9    1    0.495522    0.469918    0.580234    11.00000    0.04028    0.04086 =
         0.03479    0.00375    0.00484    0.02472
C10   1    0.534164    0.545288    0.588670    11.00000    0.03490    0.04396 =
         0.03617   -0.00203    0.00465    0.02378
C11   1    0.544247    0.566319    0.627363    11.00000    0.05610    0.04626 =
         0.03591   -0.00045    0.00293    0.02938
C12   1    0.484443    0.551885    0.648198    11.00000    0.07024    0.07114 =
         0.05297   -0.00244    0.00587    0.04197
AFIX  43
H12   2    0.436738    0.526074    0.638569    11.00000   -1.20000
AFIX   0
C13   1    0.494208    0.575069    0.683034    11.00000    0.09845    0.08847 =
         0.04721   -0.00310    0.01984    0.04795
AFIX  43
H13   2    0.453212    0.565009    0.697138    11.00000   -1.20000
AFIX   0
C14   1    0.563421    0.612682    0.697128    11.00000    0.11969    0.09948 =
         0.04365   -0.01911    0.00481    0.05445
AFIX  43
H14   2    0.569990    0.629455    0.720759    11.00000   -1.20000
AFIX   0
C15   1    0.622709    0.625955    0.677209    11.00000    0.08703    0.10651 =
         0.05797   -0.03014   -0.02266    0.04191
AFIX  43
H15   2    0.670183    0.650691    0.687145    11.00000   -1.20000
AFIX   0
C16   1    0.612749    0.602620    0.641835    11.00000    0.06203    0.08455 =
         0.04523   -0.01522   -0.00225    0.03570
AFIX  43
H16   2    0.653797    0.612109    0.627909    11.00000   -1.20000
AFIX   0
C17   1    0.562365    0.604313    0.564291    11.00000    0.03639    0.03890 =
         0.03919   -0.00362    0.00118    0.02252
C18   1    0.598524    0.681087    0.573420    11.00000    0.04679    0.04465 =
         0.04094   -0.01170   -0.00255    0.02249
AFIX  43
H18   2    0.608300    0.700914    0.596515    11.00000   -1.20000
AFIX   0
C19   1    0.615740    0.719217    0.542895    11.00000    0.04455    0.03001 =
         0.05606   -0.00566    0.00556    0.01910
AFIX  43
H19   2    0.640489    0.770747    0.540664    11.00000   -1.20000
AFIX   0
C20   1    0.589409    0.666844    0.514174    11.00000    0.03472    0.02876 =
         0.04278    0.00213    0.00571    0.01966
C21   1    0.593203    0.684975    0.477810    11.00000    0.03401    0.03240 =
         0.04469    0.00417    0.01142    0.01958
C22   1    0.632053    0.764694    0.468849    11.00000    0.05782    0.03092 =
         0.04919    0.00851    0.01379    0.01987
C23   1    0.594010    0.798457    0.457926    11.00000    0.10695    0.06114 =
         0.08263    0.03578    0.05569    0.06031
AFIX  43
H23   2    0.542766    0.770376    0.454721    11.00000   -1.20000
AFIX   0
C24   1    0.630328    0.873945    0.451499    11.00000    0.20437    0.07967 =
         0.08976    0.04799    0.07653    0.10431
AFIX  43
H24   2    0.602988    0.896207    0.444516    11.00000   -1.20000
AFIX   0
C25   1    0.702099    0.914650    0.455012    11.00000    0.22385    0.03749 =
         0.10911    0.02015    0.03204    0.03547
AFIX  43
H25   2    0.726408    0.965096    0.449458    11.00000   -1.20000
AFIX   0
C26   1    0.739813    0.883032    0.466609    11.00000    0.12964    0.05885 =
         0.15832    0.02894   -0.02241   -0.02184
AFIX  43
H26   2    0.790824    0.912256    0.470272    11.00000   -1.20000
AFIX   0
C27   1    0.705388    0.807746    0.473417    11.00000    0.07729    0.05620 =
         0.11931    0.02861   -0.00557    0.00544
AFIX  43
H27   2    0.733409    0.786786    0.481242    11.00000   -1.20000
AFIX   0
CL1S  4    0.396331    0.641030    0.614406    11.00000    0.09705    0.11034 =
         0.10708    0.00917   -0.01310    0.06189
C1S   1    0.333333    0.666667    0.600883    10.33333    0.07742    0.07742 =
         0.09608    0.00000    0.00000    0.03871
AFIX  13
H1S   2    0.333332    0.666667    0.574550    10.33333   -1.20000
AFIX   0
HKLF 4




REM  agr440bt3_a.res in R-3
REM wR2 = 0.0837, GooF = S = 1.006, Restrained GooF = 1.006 for all data
REM R1 = 0.0338 for 4984 Fo > 4sig(Fo) and 0.0450 for all 6058 data
REM 292 parameters refined using 0 restraints

END

WGHT      0.0432      0.0000

REM Highest difference peak  1.520,  deepest hole -0.764,  1-sigma level  0.067
Q1    1   0.3333  0.6667  0.4328  10.33333  0.05    1.52
Q2    1   0.3333  0.6667  0.5041  10.33333  0.05    1.18
Q3    1   0.3333  0.6667  0.6301  10.33333  0.05    0.38
Q4    1   0.3430  0.6855  0.6425  11.00000  0.05    0.34
Q5    1   0.7076  0.7925  0.4475  11.00000  0.05    0.34
Q6    1   0.4979  0.4887  0.5356  11.00000  0.05    0.34
Q7    1   0.3333  0.6667  0.5476  10.33333  0.05    0.33
Q8    1   0.3621  0.6631  0.6592  11.00000  0.05    0.32
Q9    1   0.7311  0.8535  0.4339  11.00000  0.05    0.30
Q10   1   0.5698  0.6780  0.4906  11.00000  0.05    0.28
Q11   1   0.6080  0.6655  0.4859  11.00000  0.05    0.27
Q12   1   0.5504  0.6019  0.5521  11.00000  0.05    0.26
Q13   1   0.3270  0.5582  0.4732  11.00000  0.05    0.25
Q14   1   0.7243  0.7650  0.4614  11.00000  0.05    0.24
Q15   1   0.4084  0.4971  0.4936  11.00000  0.05    0.23
Q16   1   0.5360  0.5100  0.5878  11.00000  0.05    0.23
Q17   1   0.7205  0.8956  0.4405  11.00000  0.05    0.23
Q18   1   0.5816  0.8000  0.4794  11.00000  0.05    0.22
;
_shelx_res_checksum              77685
_shelx_hkl_file
;
   0   0   6 2048.14   27.30
   0   0  -6 2042.73   27.29
   0   0  -9   54.06    3.89
   0   0   9   56.37    4.26
   0   0 -12 8433.19   99.48
   0   0  12 8363.23   99.52
   0   0 -15 1234.36   24.91
   0   0  15 1178.77   24.59
   0   0  18  799.74   21.30
   0   0 -18  826.44   21.35
   0   0 -21    3.39    3.78
   0   0  21   14.77    5.48
   0   0  24  257.61   13.88
   0   0  27  860.57   27.19
   0   0 -27  866.66   26.87
   0   0  30  172.24   13.25
   0   0 -30  163.57   12.62
   0   0  33  281.66   18.00
   0   0  36  100.82   12.97
   0   0  39   11.25    8.18
   0   0  42    5.88    8.42
   0   0  45    0.02    8.72
   1  -1  44    0.02    7.95
  -1   0  44    3.99    8.49
  -1   0  41   42.10   10.66
   0   1  41   59.23   11.18
   1  -1  41   35.47    9.87
  -1   0  38   93.94   13.08
   0   1  38  134.73   14.17
   1  -1  38  118.07   13.43
  -1   0  35  181.31   15.62
   1  -1  35  176.58   15.08
   0   1  35  189.84   15.67
   0  -1 -32   95.72   10.38
   0   1  32   80.87   10.87
  -1   0  32   81.91   11.33
   1  -1  32   81.53   10.68
   0  -1 -29    5.67    4.63
   0   1  29    5.87    5.85
  -1   1 -29   -4.78    4.93
   1   0 -29    5.09    5.48
   1  -1  29    4.55    5.87
  -1   0  29    9.61    7.02
  -1   1 -26    6.02    4.76
  -1   0  26    7.23    5.90
   1   0 -26    9.84    5.40
   0  -1 -26    7.85    4.56
   1  -1  26   -1.39    5.41
   0   1  26    6.17    5.52
   0   1  23  157.71   10.66
  -1   0  23  143.72   10.73
   1  -1  23  144.18   10.59
   1   0 -20  793.11   22.54
   0  -1 -20  814.68   21.70
   0   1  20  780.34   21.68
   1  -1  20  793.69   22.07
  -1   0  20  794.29   22.91
  -1   1 -20  783.01   22.01
   1  -1  17  382.13   13.97
  -1   0  17  394.23   14.85
   0   1  17  410.17   14.15
   1   0 -17  420.27   14.86
  -1   1 -17  417.99   14.42
   0  -1 -17  409.64   13.80
   0   1  14    7.05    3.13
   0  -1 -14    9.07    3.03
   1  -1  14   13.73    3.91
  -1   1 -14   10.02    3.29
  -1   0  14    8.38    3.97
   1   0 -14   12.37    3.54
   0  -1 -11   47.02    3.99
   1   0 -11   49.77    4.49
  -1   0  11   39.72    4.37
  -1   1 -11   47.86    4.30
   1  -1  11   38.88    4.27
   0   1  11   47.52    4.33
  -1   0   8 3300.86   43.80
  -1   1  -8 3337.04   42.98
   1  -1   8 3289.45   42.68
   0   1   8 3350.09   42.18
   0  -1  -8 3308.92   41.92
   1   0  -8 3382.18   43.93
   0   1   5 2612.90   32.58
   0  -1  -5 2627.92   32.22
   1  -1   5 2657.20   33.17
  -1   1  -5 2705.85   33.46
   0  -1   4  130.44    4.51
  -1   1   7  512.09   11.51
   1  -1  -7  503.68   11.27
   0  -1   7  523.25   11.56
  -1   0  -7  498.06   10.10
   1   0   7  505.58   10.02
  -1   1  10  739.31   16.30
   0  -1  10  767.29   16.63
   0   1 -10  757.79   16.51
  -1   0 -10  757.70   15.03
   1  -1 -10  735.20   16.02
   1   0  10  742.93   15.00
  -1   0 -13  473.77   12.95
   0  -1  13  450.60   13.72
   1   0  13  471.32   12.92
   1  -1 -13  470.23   13.75
  -1   1  13  476.34   14.00
   0   1 -13  475.72   14.00
   0   1 -16  241.09   10.86
   0  -1  16  234.80   10.99
  -1   1  16  236.06   10.85
  -1   0 -16  233.54   10.14
   1  -1 -16  229.16   10.53
   1   0  16  238.38   10.20
   1   0  19  210.71   10.92
  -1   1  19  212.34   11.58
  -1   0 -19  204.49   10.40
   1  -1 -19  208.32   11.03
   0   1 -19  222.42   11.51
   0  -1  19  204.00   11.32
  -1   0 -22  595.65   19.27
  -1   1  22  571.26   20.00
   1   0  22  587.95   19.17
   0  -1  22  599.29   20.36
   1  -1 -25  329.87   16.01
   1   0  25  303.83   15.02
  -1   1  25  325.58   16.27
   0  -1  25  314.85   15.94
   0   1 -25  363.13   16.66
   1   0  28  532.14   21.20
   1  -1 -28  561.30   22.04
  -1   1  28  501.78   21.57
   0  -1  28  564.60   22.49
  -1   0 -28  564.84   21.64
   0   1 -28  549.10   22.25
  -1   1  31   70.88    9.97
   0  -1  31   74.07   10.12
   1   0  31   48.84    8.79
  -1   0 -31   72.12    9.19
   1  -1 -31   68.89    9.22
   0  -1  34    6.17    6.84
   1   0  34    4.88    6.20
  -1   1  34   12.09    7.56
   0  -1  37    2.62    7.25
   1   0  37   15.90    7.87
  -1   1  37   17.30    8.60
   1   0  40   71.64   11.44
  -1   1  40   55.04   11.05
   0  -1  40   75.52   12.08
   0  -1  43   43.22   10.92
   1   0  43   52.18   11.84
   1  -2  45   32.10   10.57
   1  -2  42    9.83    8.07
  -2   1  42   21.48    9.67
   1   1  42    8.36    7.74
   1   1  39   -4.58    7.59
  -2   1  39    0.31    7.75
   1  -2  39    7.13    7.94
  -2   1  36   30.90    9.41
   1  -2  36   22.33    8.12
   1   1  36   34.35    8.97
   1  -2  33  200.77   15.55
  -2   1  33  187.58   15.39
  -1  -1 -33  214.04   14.88
   1   1  33  186.95   14.41
  -1   2 -30  220.65   14.92
   1   1  30  250.70   15.25
   2  -1 -30  230.84   15.09
  -2   1  30  252.68   16.49
  -1  -1 -30  245.18   14.56
   1  -2  30  242.66   15.72
  -1   2 -27  360.92   17.68
   1  -2  27  374.52   18.08
   1   1  27  366.00   17.31
  -1  -1 -27  352.57   16.28
  -2   1  27  391.44   19.05
   2  -1 -27  382.63   18.29
   1  -2  24   14.52    5.55
   1   1  24    2.27    4.39
  -1   2 -24   10.54    4.44
  -2   1  24   12.67    6.01
   2  -1 -24    0.04    3.86
  -2   1  21  343.14   15.45
   1  -2  21  312.67   14.65
  -1  -1 -21  344.52   13.68
   1   1  21  323.34   13.71
   2  -1 -18  365.18   14.55
  -1  -1 -18  396.84   13.48
  -1   2 -18  382.14   14.74
   1   1  18  388.83   13.68
   1  -2  18  378.77   14.73
  -2   1  18  379.99   15.17
   1  -2  15  774.90   20.01
  -1   2 -15  797.05   20.29
   1   1  15  830.85   18.69
  -2   1  15  818.88   20.76
   2  -1 -15  839.11   20.78
  -1  -1 -15  821.29   18.35
   2  -1 -12  649.45   16.71
   1   1  12  639.98   14.56
  -1  -1 -12  656.44   14.39
  -1   2 -12  694.70   16.89
  -2   1  12  678.87   17.23
   1  -2  12  656.06   16.40
   2  -1  -9 1616.84   27.21
  -1   2  -9 1733.54   27.53
   1  -2   9 1562.31   26.68
  -2   1   9 1654.48   27.61
  -1  -1  -9 1671.37   23.86
   1   1   9 1673.64   24.03
  -2   1   6  253.95    8.08
   1   1   6  244.72    5.66
   1  -2   6  257.53    7.91
  -1  -1  -6  242.44    5.57
   1  -2   3  281.70    7.32
   2  -1   3  417.52    8.41
  -1  -1   3  497.08    9.26
   2  -1   6  135.24    4.97
  -2   1  -6  137.99    5.03
  -1  -1   6  152.97    6.17
  -2   1  -9 1763.42   26.78
   2  -1   9 1761.24   26.42
   1  -2  -9 1791.00   27.46
  -1  -1   9 1839.19   29.16
   1  -2 -12 1575.41   27.23
  -1   2  12 1612.36   28.06
  -1  -1  12 1612.05   29.08
   1   1 -12 1574.02   28.83
   2  -1  12 1593.41   26.37
  -2   1 -12 1596.32   26.81
  -1   2  15 1340.59   26.96
   2  -1  15 1308.84   25.49
   1   1 -15 1294.97   27.36
   1  -2 -15 1328.87   26.33
  -2   1 -15 1331.31   25.86
  -1  -1  15 1340.92   27.98
   1   1 -18   48.81    6.24
  -2   1 -18   41.73    5.32
   1  -2 -18   34.78    5.07
  -1   2  18   45.38    6.35
  -1  -1  18   40.62    6.07
   2  -1  18   46.53    5.87
  -1   2  21  628.39   20.38
  -1  -1  21  597.96   20.38
   2  -1  21  601.73   19.07
  -2   1 -21  584.06   18.93
   1  -2 -21  587.79   19.26
  -1  -1  24   15.55    6.27
   1   1 -24    8.13    4.87
   2  -1  24    7.58    4.67
  -1   2  24    8.64    5.28
   1  -2 -27  213.02   13.11
  -1   2  27  204.65   13.70
  -2   1 -27  231.79   13.81
   2  -1  27  214.17   13.48
  -1  -1  27  219.43   14.73
   1   1 -27  224.80   14.27
   2  -1  30  331.12   17.52
  -2   1 -30  322.72   17.12
  -1  -1  30  382.06   19.60
  -1   2  30  318.14   17.91
   1  -2 -30  352.87   17.83
   2  -1  33  284.16   17.28
  -1  -1  33  276.41   18.37
  -1   2  33  308.99   18.73
  -1  -1  36  112.18   13.42
  -1   2  36  120.49   13.34
   2  -1  36  112.16   12.87
  -1  -1  39    7.56    8.21
   2  -1  39   28.45    9.11
  -1  -1  42   11.90    9.48
   2  -1  42   10.42    8.59
   2  -1  45   32.66   10.23
  -1  -1  45   61.23   12.95
  -2   0  43   34.85   10.79
   2  -2  43   26.35    9.81
  -2   0  40  122.29   14.96
   2  -2  40  106.43   13.66
   2  -2  37   70.81   10.76
  -2   0  37   96.78   13.14
   0   2  34   52.71    9.87
  -2   0  34   50.96   10.46
   2  -2  34   51.75    9.84
   0  -2 -31   31.17    6.91
  -2   0  31   25.27    8.22
   2  -2  31   35.90    8.18
   0   2  31   26.22    7.29
  -2   2 -31   37.02    7.77
  -2   2 -28  278.12   15.59
   2  -2  28  265.39   15.52
  -2   0  28  278.85   16.59
   0   2  28  280.11   15.78
   0  -2 -28  290.98   15.18
   2   0 -28  298.57   16.70
   0   2  25  296.76   15.02
  -2   0  25  268.15   15.54
   2   0 -25  288.10   15.29
  -2   2 -25  292.30   15.05
   2  -2  25  289.75   15.04
   0  -2 -22   16.17    4.46
   0   2  22    4.80    4.71
   2  -2  22    7.55    5.12
  -2   0  22    9.60    5.81
  -2   2 -19    7.43    4.11
  -2   0  19   11.30    5.36
   2  -2  19   12.88    4.97
   0  -2 -19   15.81    4.32
   0   2  19   18.00    5.09
   2  -2  16  969.93   22.67
   0  -2 -16  977.11   21.51
   0   2  16 1006.27   22.32
  -2   2 -16  982.49   23.01
  -2   0  16  977.77   24.02
   2   0 -16  969.19   23.78
   0  -2 -13 1594.23   27.09
   2   0 -13 1611.08   30.03
  -2   2 -13 1600.68   28.92
   0   2  13 1628.81   27.83
  -2   0  13 1589.26   29.94
   2  -2  13 1577.92   28.52
   0   2  10 1731.20   26.56
  -2   0  10 1746.85   29.31
   2  -2  10 1721.21   27.80
  -2   2 -10 1681.70   28.24
   0  -2 -10 1639.09   26.00
   2  -2   7   32.65    3.54
  -2   0   7   32.82    3.47
   0  -2  -7   27.22    2.56
  -2   2  -7   24.74    3.09
  -2   2  -4   25.90    2.77
  -2   0   4   31.10    2.91
   2  -2   4   24.06    2.66
   2   0  -1  242.16    5.48
   0  -2   2   28.02    2.31
   0  -2   5  765.54   14.62
   2   0   8  144.55    4.92
  -2   0  -8  141.53    4.98
   0  -2   8  147.61    6.84
   2  -2  -8  146.29    6.68
  -2   2  11 1505.71   26.95
   0   2 -11 1453.22   26.76
   2  -2 -11 1474.53   26.36
  -2   0 -11 1449.32   23.35
   0  -2  11 1474.19   26.81
   2   0  11 1451.39   23.19
   0  -2  14  787.38   19.90
   2   0  14  755.77   17.07
   2  -2 -14  798.96   19.43
   0   2 -14  780.32   19.82
  -2   0 -14  774.48   17.24
  -2   2  14  760.08   19.59
  -2   0 -17   45.13    5.03
   0  -2  17   35.50    6.28
   2   0  17   36.28    4.93
  -2   2  17   34.69    5.97
   0   2 -17   43.17    6.10
   2  -2 -17   46.68    5.91
  -2   2  20 1083.28   27.81
   2  -2 -20 1124.98   27.44
  -2   0 -20 1087.22   25.33
   2   0  20 1113.47   25.46
   0  -2  20 1117.50   28.07
  -2   2  23  699.27   23.22
   0  -2  23  692.00   23.00
  -2   0 -23  679.06   20.73
   2   0  23  723.72   21.38
   0   2 -23  721.84   23.54
   2  -2 -26   86.25    9.05
   2   0  26   75.72    8.33
   0  -2  26   74.78    9.31
   0   2 -26   89.20    9.37
  -2   2  26   84.88    9.71
   2   0  29   15.54    6.21
   0  -2  29   -0.42    5.76
   2  -2 -29    9.64    5.58
  -2   2  29    5.63    6.81
   0   2 -29    7.74    5.35
  -2   0 -29    3.74    4.53
  -2   0 -32  192.22   13.80
   2   0  32  199.95   14.31
   0  -2  32  208.25   15.92
  -2   2  32  191.93   15.25
  -2   2  35  126.36   13.65
   0  -2  35  103.27   12.70
   2   0  35  122.88   12.66
   0  -2  38   41.99   10.12
   2   0  38   32.75    8.90
   0  -2  41    5.91    8.78
   2   0  41   26.98    9.34
   2   0  44   -1.72    8.28
   0  -2  44    0.07    8.72
   1  -3  43   36.94   11.00
   1  -3  40   36.49   10.04
   2   1  40   52.71   10.13
   1  -3  37   54.92   10.57
   2   1  37   53.91    9.66
   2   1  34   21.01    7.44
  -3   2  34   11.80    8.07
  -2  -1 -34   15.17    5.64
   1  -3  34    7.14    7.59
  -3   2  31   81.50   10.94
  -2  -1 -31   76.43    8.98
   1  -3  31   85.90   10.81
   2   1  31   87.74   10.12
   2   1  28  437.46   18.51
  -1   3 -28  431.81   20.19
  -2  -1 -28  409.98   17.53
  -3   2  28  387.08   19.85
   1  -3  28  392.10   19.22
   3  -2 -28  400.21   19.25
   3  -2 -25  820.37   26.33
   1  -3  25  848.75   26.68
   2   1  25  844.53   24.28
  -1   3 -25  835.29   26.73
  -3   2  25  865.60   27.60
  -2  -1 -22   99.26    7.70
   1  -3  22  108.46    9.47
  -3   2  22  107.91    9.93
   2   1  22  109.08    8.57
  -2  -1 -19   27.17    4.63
  -3   2  19   29.36    6.82
  -1   3 -19   32.19    6.31
   1  -3  19   31.33    6.68
   2   1  19   39.48    5.57
  -2  -1 -16  963.62   20.03
  -1   3 -16  929.18   23.64
  -3   2  16  915.73   23.77
   1  -3  16  938.07   23.45
   2   1  16  935.65   20.09
   3  -2 -16  974.99   23.75
   1  -3  13 1128.91   24.33
  -1   3 -13 1159.55   24.92
   3  -2 -13 1148.57   24.49
  -2  -1 -13 1141.89   20.21
  -3   2  13 1131.46   24.82
   2   1  13 1117.53   20.22
   3  -2 -10   94.75    6.24
  -1   3 -10   94.16    6.39
  -3   2  10   99.18    6.72
  -2  -1 -10   97.62    4.38
   1  -3  10   80.69    6.12
   2   1  10   95.57    4.37
   2   1   7 5696.64   62.42
   1  -3   7 5755.96   70.53
  -2  -1  -7 5653.24   62.27
   1  -3   4  139.48    6.25
   1  -3   1 1712.19   25.64
  -2  -1   2 2267.98   28.84
   2   1  -2 2227.27   28.90
   3  -2   5   38.27    3.42
  -2  -1   5   44.71    3.90
  -3   2  -8 5909.24   72.03
   3  -2   8 5991.13   71.42
  -2  -1   8 6051.89   74.05
   3  -2  11  623.32   14.80
   1  -3 -11  619.79   14.89
  -3   2 -11  623.05   15.18
  -2  -1  11  631.86   16.76
  -2  -1  14   19.63    5.00
   3  -2  14   23.51    4.14
  -3   2 -14   24.97    3.93
   2   1 -14   22.25    4.19
   1  -3 -14   21.55    3.82
   3  -2  17  108.00    7.60
  -2  -1  17   97.39    8.82
   2   1 -17   94.41    8.08
   1  -3 -17   97.21    7.16
  -3   2 -17   98.86    7.40
  -3   2 -20 1959.60   37.73
   3  -2  20 1871.02   36.44
   1  -3 -20 1933.57   36.99
  -2  -1  20 1959.60   39.85
   2   1 -23  670.50   22.90
   3  -2  23  627.09   20.49
  -1   3  23  643.16   21.53
  -2  -1  23  639.02   22.57
   3  -2  26  328.95   16.11
  -3   2 -26  308.57   15.53
   1  -3 -26  324.24   15.72
  -2  -1  26  308.36   17.00
   2   1 -26  317.63   16.80
  -2  -1  29   30.78    8.01
   3  -2  29   20.51    6.73
  -3   2 -29   20.30    5.82
   1  -3 -29   21.46    5.98
   3  -2  32  190.43   14.14
  -2  -1  32  196.71   15.83
   1  -3 -32  185.74   13.62
  -3   2 -32  171.75   13.63
   3  -2  35  430.84   21.68
  -2  -1  35  420.13   23.29
  -2  -1  38  135.00   14.99
   3  -2  38  159.11   14.63
  -2  -1  41   38.45   11.06
   3  -2  41   55.01   11.21
  -2  -1  44   -5.47    9.67
   3  -2  44    2.30    7.67
   2  -3  44    1.32    8.00
   2  -3  41   13.77    8.48
  -3   1  41   12.57    8.94
  -3   1  38   63.83   11.61
   2  -3  38   96.94   12.89
   1   2  35  238.38   16.66
   2  -3  35  268.88   18.06
  -3   1  35  232.59   17.95
   2  -3  32  249.29   16.59
   1   2  32  269.34   16.31
  -1  -2 -32  228.23   14.66
  -3   1  32  252.63   17.62
  -2   3 -29   46.55    7.97
   1   2  29   56.97    8.97
  -3   1  29   51.71    9.44
  -1  -2 -29   59.18    7.79
   3  -1 -29   52.90    8.38
   2  -3  29   41.04    8.43
  -2   3 -26    1.57    4.77
   1   2  26    1.60    5.21
   3  -1 -26    5.26    4.52
   2  -3  26    6.29    5.57
  -3   1  26   -6.51    6.91
   2  -3  23  175.07   11.88
   3  -1 -23  187.69   12.12
   1   2  23  175.66   10.89
  -3   1  23  195.81   12.87
  -1  -2 -23  171.67   10.24
   1   2  20 1099.32   25.39
  -1  -2 -20 1120.40   24.84
  -3   1  20 1078.79   28.69
   2  -3  20 1099.63   27.40
  -2   3 -17   59.65    6.75
  -1  -2 -17   57.96    5.46
  -3   1  17   64.53    7.54
   3  -1 -17   59.49    6.31
   2  -3  17   61.81    7.02
   1   2  17   67.49    6.09
   3  -1 -14   26.82    4.79
   2  -3  14   28.36    4.90
   1   2  14   17.95    3.60
  -1  -2 -14   23.97    3.36
  -3   1  14   29.19    5.55
  -2   3 -14   23.35    4.34
  -2   3 -11  333.22   11.73
  -1  -2 -11  347.08    9.35
  -3   1  11  362.74   12.44
   2  -3  11  336.33   11.70
   1   2  11  341.21    9.51
  -1  -2  -8 9521.06  104.50
  -3   1   8 9735.80  111.63
  -2   3  -8 9696.76  111.59
   2  -3   8 9329.37  111.15
   2  -3   5  661.22   14.88
  -3   1   5  774.21   15.22
  -1  -2   1  239.46    6.06
   1   2  -1  229.16    6.12
  -1  -2   4 1043.09   17.73
   3  -1   7 2075.02   27.61
  -1  -2   7 2126.78   31.67
  -3   1 -10 2041.73   30.32
   3  -1  10 2109.15   29.79
  -1  -2  10 2099.56   34.14
   2  -3 -10 2094.59   33.07
   3  -1  13  486.23   12.72
   1   2 -13  475.37   15.13
   2  -3 -13  492.74   14.46
  -1  -2  13  502.59   15.60
  -3   1 -13  499.22   13.25
   1   2 -16   56.39    6.31
   2  -3 -16   47.71    5.40
  -1  -2  16   45.36    6.35
   3  -1  16   44.99    4.92
  -3   1 -16   41.68    4.72
  -1  -2  19  506.86   18.55
   3  -1  19  531.64   16.42
  -3   1 -19  519.05   16.33
   2  -3 -19  511.11   17.19
  -1  -2  22  562.34   20.94
   1   2 -22  543.24   20.19
   3  -1  22  564.93   18.53
  -3   1 -22  580.45   18.80
  -2   3  22  547.94   20.02
   3  -1  25  449.28   17.54
   2  -3 -25  436.90   18.29
   1   2 -25  437.89   19.23
  -1  -2  25  416.20   18.92
  -2   3  25  433.98   19.19
   1   2 -28  318.82   17.53
   3  -1  28  307.80   15.69
   2  -3 -28  310.46   16.38
  -1  -2  28  307.81   17.51
  -3   1 -28  315.84   15.84
   3  -1  31   78.06    9.51
  -3   1 -31   77.86    9.32
   2  -3 -31   92.70   10.11
  -1  -2  31   63.33   10.38
  -1  -2  34   -2.36    7.51
   3  -1  34   -2.13    6.27
  -3   1 -34    2.54    5.85
  -1  -2  37   35.89    9.73
   3  -1  37   36.91    9.54
   3  -1  40   71.67   11.24
  -1  -2  40   79.63   12.89
  -1  -2  43   37.39   11.81
   3  -1  43   51.51   11.05
  -3   0  45   31.40   10.68
   3  -3  45   32.88   10.63
   3  -3  42   15.90    8.14
  -3   0  42    2.32    8.68
  -3   0  39   -1.97    8.42
   3  -3  39    0.23    7.17
  -3   0  36  127.07   14.26
   3  -3  36  113.32   12.43
   3  -3  33  174.54   14.48
  -3   0  33  178.37   15.73
   0  -3 -33  180.38   13.25
   0  -3 -30  212.50   13.71
  -3   3 -30  225.90   15.18
  -3   0  30  188.65   15.01
   3  -3  30  215.39   14.59
   0  -3 -27   84.68    8.42
  -3   0  27   79.06   10.22
   3  -3  27   76.90    9.27
   3   0 -27   70.77    8.78
  -3   3 -27   79.50    9.43
   3  -3  24    9.21    5.17
  -3   0  24   13.94    5.98
   3   0 -24   25.19    5.87
  -3   0  21  179.36   12.11
   3  -3  21  157.15   10.57
   0  -3 -21  169.70    9.97
   0  -3 -18  374.24   13.33
   3  -3  18  376.54   14.65
  -3   3 -18  402.47   15.31
  -3   0  18  391.75   16.13
   0  -3 -15 1026.94   21.38
   3  -3  15 1022.86   23.28
  -3   3 -15 1051.96   24.23
  -3   0  15 1048.54   25.21
   3   0 -15 1064.98   25.00
   3  -3  12  992.51   21.38
   0  -3 -12 1018.09   19.48
  -3   3 -12 1026.51   22.19
  -3   0  12 1010.83   22.90
  -3   3  -9   17.20    3.47
   3  -3   9   20.18    3.77
  -3   0   9   20.67    4.16
   0  -3  -9   13.32    2.40
  -3   3  -6   11.79    3.08
   3  -3   6    7.62    2.88
  -3   0   6    9.68    2.96
  -3   0   3 2080.93   29.03
   3   0  -3 2107.74   28.97
   0  -3   0 1640.07   23.45
   3   0   0 1513.79   20.57
   0  -3   3  122.28    5.85
   0  -3   6  749.53   16.31
  -3   0  -9   46.13    3.15
   3  -3  -9   30.77    3.90
   3   0   9   47.54    3.06
   0  -3   9   42.08    4.64
   0   3 -12  547.34   16.07
   3  -3 -12  591.51   16.26
  -3   0 -12  544.91   12.50
   3   0  12  569.95   12.50
   0  -3  12  546.40   16.13
   3   0  15 1063.77   20.68
   0   3 -15 1036.39   25.06
   3  -3 -15 1057.00   24.32
  -3   0 -15 1041.63   20.74
   0  -3  15 1049.92   25.10
  -3   0 -18 1290.10   26.02
   3   0  18 1298.44   25.90
   3  -3 -18 1333.06   29.51
   0   3 -18 1309.02   30.31
   0  -3  18 1268.79   30.02
   0  -3  21  536.73   19.85
  -3   0 -21  572.43   17.64
   3   0  21  565.13   17.31
   3   0  24    2.36    4.32
  -3   3  24    4.35    5.59
   0  -3  24   -0.05    5.16
   0   3 -24    6.31    4.80
  -3   0 -24    3.00    3.53
   3  -3 -24   -0.69    4.04
   3   0  27  133.16   10.29
   0  -3  27  126.08   11.60
   0   3 -27  122.21   11.28
   3  -3 -27  134.45   11.13
   3   0  30  321.77   16.73
  -3   0 -30  332.58   16.98
   3  -3 -30  347.50   18.32
   0  -3  30  295.73   17.90
  -3   0 -33  103.69   10.57
   0  -3  33   74.29   11.16
   3   0  33   91.87   10.36
   3   0  36   18.52    7.11
   0  -3  36   18.57    8.72
   0  -3  39    2.97    8.13
   3   0  39   12.44    7.56
   0  -3  42    6.65    8.77
   3   0  42   13.60    7.63
   3   0  45    4.64    7.01
   0  -3  45    7.83    8.74
   1  -4  44    0.02    8.62
   1  -4  41   57.58   11.90
   3   1  38  128.23   12.90
   1  -4  38  136.06   14.71
   1  -4  35  257.36   18.52
  -3  -1 -35  245.91   16.13
   3   1  35  278.89   17.01
   1  -4  32   54.60    9.68
  -3  -1 -32   70.63    8.64
   3   1  32   39.76    7.73
   3   1  29   49.63    7.33
   1  -4  29   46.08    9.05
   3   1  26  213.47   12.11
   1  -4  26  194.03   14.20
   4  -3 -26  214.22   13.71
  -1   4 -26  193.22   13.74
   1  -4  23  406.97   18.23
  -1   4 -23  473.08   19.76
   3   1  23  461.50   16.05
  -3  -1 -23  428.86   15.29
   4  -3 -23  400.67   17.75
   3   1  20 1770.52   32.28
  -3  -1 -20 1732.81   31.91
   1  -4  20 1734.35   37.51
  -3  -1 -17  212.21    8.85
   4  -3 -17  212.04   11.57
   1  -4  17  197.74   11.46
   3   1  17  213.09    9.05
  -1   4 -17  203.50   11.75
   1  -4  14   76.84    7.17
   4  -3 -14   79.88    6.80
  -3  -1 -14   86.15    5.09
  -1   4 -14   88.24    7.31
   3   1  14   83.27    5.07
  -1   4 -11  444.11   14.56
  -3  -1 -11  441.57    9.63
   3   1  11  452.26    9.60
   4  -3 -11  451.80   14.46
   1  -4  11  452.06   14.69
   1  -4   8 3071.71   45.25
   1  -4   5 1865.84   30.40
   1  -4   2 6024.81   73.98
  -3  -1   1  849.22   13.93
   3   1  -1  843.56   14.01
  -3  -1   4  409.41   10.36
   3   1  -4  403.28   10.34
  -3  -1   7 1672.07   27.65
   4  -3   7 1575.53   27.14
  -4   3 -10 2312.02   37.36
   4  -3  10 2359.93   36.42
  -3  -1  10 2390.27   38.20
  -3  -1  13  932.96   22.92
   4  -3  13  943.34   20.79
   1  -4 -13  959.71   20.45
  -4   3 -13  939.50   21.53
  -4   3 -16 1155.59   25.90
   4  -3  16 1155.69   25.26
   1  -4 -16 1163.76   24.65
  -3  -1  16 1151.89   27.48
   4  -3  19    4.58    4.26
  -3  -1  19    5.61    5.74
   1  -4 -19    3.75    3.28
  -4   3 -19   10.89    4.45
   4  -3  22  758.54   22.55
   3   1 -22  770.71   24.89
   1  -4 -22  779.83   22.24
  -3  -1  22  758.55   24.95
   3   1 -25  745.03   25.66
  -3  -1  25  669.48   24.69
   4  -3  25  677.26   22.54
  -4   3 -28  808.89   27.04
   1  -4 -28  794.98   25.44
   4  -3  28  788.99   25.97
  -3  -1  28  808.80   28.71
   4  -3  31  296.00   17.26
  -3  -1  31  295.16   18.98
  -4   3 -31  271.95   16.88
   1  -4 -31  300.49   16.58
   4  -3  34   12.71    7.12
  -3  -1  34   -5.17    7.77
  -3  -1  37   55.50   11.60
   4  -3  37   63.56   10.47
  -3  -1  40   49.73   11.56
   4  -3  40   75.90   11.90
  -3  -1  43   41.10   11.77
   4  -3  43   46.76   11.32
   2  -4  45   27.44   10.10
   2  -4  42   11.92    7.93
   2  -4  39   17.01    8.87
  -4   2  36  114.37   14.56
   2  -4  36  140.03   14.58
  -4   2  33  295.59   19.72
  -2  -2 -33  332.89   17.28
   2  -4  33  309.13   19.18
   2   2  33  315.87   17.49
   2   2  30  464.12   20.04
   2  -4  30  451.10   21.52
  -2  -2 -30  432.99   18.63
  -4   2  30  467.61   22.84
   2   2  27  295.72   14.89
  -2   4 -27  282.13   16.51
   4  -2 -27  298.19   16.56
  -4   2  27  292.33   17.46
   2  -4  27  304.49   16.85
  -2  -2 -24  227.84   11.61
   4  -2 -24  236.09   14.07
   2  -4  24  210.69   13.44
   2   2  24  230.82   12.13
  -2   4 -24  201.10   13.37
  -4   2  24  220.45   14.30
   2  -4  21   84.33    9.05
   2   2  21   81.07    7.18
  -4   2  21   76.40    8.97
  -2  -2 -21   83.93    6.74
   2   2  18  958.32   21.55
   2  -4  18  946.93   25.13
  -4   2  18  942.18   26.00
  -2  -2 -18  972.86   20.96
  -2   4 -18  980.15   26.06
   4  -2 -15  830.73   21.92
  -2  -2 -15  818.34   17.14
   2   2  15  822.84   17.74
  -2   4 -15  828.76   22.14
  -4   2  15  814.25   22.38
   2  -4  15  821.08   21.87
   2   2  12 1075.24   18.55
  -2   4 -12 1078.79   24.15
  -2  -2 -12 1032.77   17.75
   2  -4  12 1036.85   23.50
  -4   2  12 1039.05   24.08
   2  -4   9   15.78    4.49
  -2   4  -9   19.40    4.06
  -2  -2  -9   14.86    1.90
   2  -4   6 1753.21   29.72
   2  -4   3 2691.92   39.90
   2   2   0 9801.86  107.46
  -2  -2   0 9999.00  107.24
   2   2  -3  444.84   10.54
  -2  -2   3  450.26   10.40
  -2  -2   6   44.65    4.15
   4  -2   6   44.55    3.92
   2   2  -6   51.37    4.17
  -4   2  -9  125.49    6.36
   4  -2   9  129.01    6.05
  -2  -2   9  148.07    7.87
   4  -2  12 1063.22   20.44
   2  -4 -12 1037.97   22.20
  -2  -2  12 1009.51   23.23
  -4   2 -12 1031.89   20.86
  -2  -2  15  899.48   23.37
  -4   2 -15  853.42   20.29
   2  -4 -15  874.96   21.12
   4  -2  15  870.63   19.84
   2  -4 -18  681.33   19.73
  -4   2 -18  666.23   19.00
   4  -2  18  689.22   18.54
  -2  -2  18  685.51   21.43
  -2  -2  21    8.42    6.00
  -4   2 -21    6.61    3.79
   2   2 -21    7.30    4.37
   4  -2  21   10.90    4.61
  -2  -2  24   81.11    9.75
   4  -2  24   72.61    7.78
   2   2 -24   81.68    8.58
  -4   2 -27  357.88   17.17
  -2  -2  27  344.72   18.41
   4  -2  27  364.66   16.69
   2   2 -27  377.36   18.91
   2  -4 -27  375.67   17.35
  -2  -2  30  206.46   15.64
  -4   2 -30  213.47   14.55
   2  -4 -30  222.67   14.60
   4  -2  30  225.05   14.45
   4  -2  33  315.82   17.83
  -2  -2  33  303.32   19.46
  -4   2 -33  312.38   17.99
   4  -2  36   90.05   11.42
  -2  -2  36   85.76   13.13
  -2  -2  39   14.05    9.23
   4  -2  39   19.19    8.24
  -2  -2  42   15.54   10.39
   4  -2  42    5.12    7.58
   4  -2  45   12.97    8.62
  -2  -2  45    6.43    9.29
   3  -4  43   42.23   11.03
   3  -4  40   29.55    9.50
  -4   1  40   44.63   11.54
  -4   1  37   -3.79    7.86
   3  -4  37  -10.33    7.99
   3  -4  34   40.83    8.95
  -1  -3 -34   29.94    6.66
   3  -4  31   17.91    6.98
  -4   1  31   15.87    7.84
  -1  -3 -31    9.75    5.04
  -3   4 -28   75.63    9.58
   3  -4  28   87.24   10.21
  -4   1  28   78.61   10.38
   4  -1 -25  132.08   10.98
   3  -4  25  113.39   10.54
  -3   4 -25  125.63   10.86
  -4   1  25   99.97   10.47
   3  -4  22  290.53   14.57
  -1  -3 -22  323.42   13.12
  -4   1  22  287.09   15.37
   4  -1 -22  327.58   15.74
  -4   1  19   54.76    7.98
  -3   4 -19   54.42    6.88
   3  -4  19   52.87    6.96
  -1  -3 -19   52.25    5.35
  -1  -3 -16  100.63    6.34
  -3   4 -16   95.03    7.84
   3  -4  16   96.19    7.96
  -4   1  16   91.80    8.71
  -3   4 -13  590.55   17.52
  -4   1  13  605.87   18.22
  -1  -3 -13  610.45   13.91
   3  -4  13  633.99   17.62
   3  -4  10 2692.38   42.27
  -4   1  10 2697.27   42.42
  -3   4 -10 2694.42   42.75
  -1  -3 -10 2696.84   35.59
  -3   4  -7 2783.01   42.36
   3  -4   7 2772.87   41.52
  -4   1   7 2775.70   40.93
   3  -4   4 8987.99  106.38
   4  -1  -4 8946.84  103.08
   1   3   1 2337.60   31.28
  -1  -3  -1 2317.44   30.34
  -1  -3   2  496.84   11.38
   1   3  -2  495.45   11.45
  -1  -3   5 1351.17   23.52
   1   3  -5 1406.37   23.97
   4  -1   8   21.67    2.48
  -1  -3   8   28.00    4.16
  -4   1  -8   24.02    2.71
  -4   1 -11   27.90    3.44
   3  -4 -11   22.90    3.75
   4  -1  11   27.99    3.17
  -1  -3  11   19.57    4.51
   3  -4 -14  199.00    9.95
  -1  -3  14  184.68   10.31
  -4   1 -14  194.88    8.24
   4  -1  14  193.41    7.91
  -1  -3  17 1833.94   36.99
   3  -4 -17 1822.91   35.79
  -4   1 -17 1867.12   32.78
   4  -1  17 1823.21   31.64
  -1  -3  20  485.91   18.74
  -4   1 -20  504.91   16.38
   4  -1  20  509.63   15.94
  -1  -3  23  237.36   14.25
   1   3 -23  269.30   14.94
   4  -1  23  260.68   12.23
  -4   1 -23  267.04   12.89
   4  -1  26   34.83    6.24
  -1  -3  26   41.48    8.44
   1   3 -26   39.64    7.31
   3  -4 -26   43.48    7.27
  -1  -3  29   32.10    8.72
  -4   1 -29   26.79    6.30
   3  -4 -29   27.11    6.77
   4  -1  29   37.16    7.06
  -4   1 -32  112.54   10.91
  -1  -3  32   99.99   12.41
   4  -1  32  113.94   10.96
   4  -1  35   45.31    8.86
  -1  -3  35   70.88   11.67
  -4   1 -35   54.03    8.57
   4  -1  38  120.28   13.14
  -1  -3  38  104.14   13.97
   4  -1  41   47.17    9.85
  -1  -3  41   64.59   11.98
   4  -1  44   -0.65    6.96
  -1  -3  44   -3.73    9.07
   4  -4  44    8.85    8.02
  -4   0  44    4.77    9.15
  -4   0  41   -5.57    9.86
   4  -4  41    8.12    7.64
   4  -4  38   25.16    8.49
  -4   0  38   14.31    8.93
   4  -4  35   34.09    8.79
  -4   0  35   29.03    9.34
  -4   0  32   15.25    7.72
   4  -4  32    1.41    6.74
   0  -4 -32   13.15    5.72
   0  -4 -29    3.93    4.65
   4  -4  29   -5.47    6.19
  -4   4 -29    5.15    5.44
  -4   0  29    6.73    7.38
  -4   0  26  243.33   15.71
  -4   4 -26  247.89   14.88
   4   0 -26  273.42   15.77
   4  -4  26  226.57   14.33
   4   0 -23  643.20   22.88
   0  -4 -23  589.71   19.14
  -4   0  23  591.23   22.51
   4  -4  23  621.92   21.16
   4  -4  20 1446.28   32.15
   4   0 -20 1415.04   33.98
   0  -4 -20 1438.76   29.46
  -4   4 -20 1407.89   32.78
  -4   0  20 1415.35   34.08
  -4   4 -17  644.23   20.04
   0  -4 -17  672.92   17.43
   4  -4  17  658.63   19.58
  -4   0  17  671.76   21.23
  -4   0  14  193.95   11.04
   0  -4 -14  213.30    8.67
  -4   4 -14  202.45   10.56
   4  -4  14  200.11   10.44
   0  -4 -11    5.59    2.47
   4  -4  11    6.38    3.86
  -4   4 -11    7.50    3.48
  -4   0  11    9.34    4.34
   4  -4   8  411.27   13.05
  -4   4  -8  420.09   13.72
  -4   0   8  417.80   12.89
   4  -4   5  460.36   13.78
  -4   0   5  465.64   12.39
   4   0  -5  465.84   12.24
  -4   0   2   77.59    4.33
   4   0  -2   71.81    4.58
   4   0   1 2450.15   30.88
   0   4  -1 2451.84   35.95
   0  -4   1 2495.22   35.20
   0  -4   4   53.76    4.78
   0   4  -4   55.60    4.75
   0  -4   7  250.79    9.98
   4   0   7  243.63    5.33
  -4   0 -10  360.17    8.69
   0  -4  10  384.60   13.49
   4   0  10  388.82    8.41
   4  -4 -13 2178.96   38.25
  -4   0 -13 2111.98   30.93
   4   0  13 2081.25   30.01
   0  -4  13 2116.16   38.03
   4   0  16   54.25    4.78
   0  -4  16   45.82    6.82
  -4   0 -16   51.38    4.75
   4  -4 -16   62.82    6.79
  -4   0 -19   41.68    5.07
   0  -4  19   29.14    6.50
   4   0  19   44.00    5.17
   4   0  22   22.87    4.61
   4  -4 -22   25.59    5.56
   0  -4  22   21.02    6.21
  -4   0 -22   26.53    4.62
   0   4 -22   23.14    5.60
   0  -4  25   73.13    9.12
   4  -4 -25   68.91    8.29
   4   0  25   71.48    7.33
  -4   0 -25   71.35    7.14
   0   4 -25   70.85    8.84
   0  -4  28  261.75   16.81
   4  -4 -28  275.97   15.97
   4   0  28  263.71   13.90
  -4   0 -31  120.63   10.56
   0  -4  31  131.41   13.40
   4   0  31  108.33   10.51
  -4   0 -34    0.10    5.00
   4   0  34   -8.40    6.27
   0  -4  34    6.10    7.76
   4   0  37  102.06   11.77
   0  -4  37   95.09   13.13
   4   0  40  147.01   14.21
   0  -4  40  143.56   16.17
   0  -4  43   51.29   12.19
   4   0  43   43.32   10.01
   1  -5  42   28.56   10.85
   4   1  39   22.00    7.61
   1  -5  39   26.60   10.36
   4   1  36   41.31    9.01
   1  -5  36   24.18    9.20
  -4  -1 -36   33.80    7.43
  -4  -1 -33  176.49   12.77
   4   1  33  180.34   13.28
   1  -5  33  160.51   15.11
   4   1  30   77.17    8.77
   1  -5  30   99.12   11.84
   5  -4 -27  117.31   10.92
   1  -5  27  117.11   12.19
   4   1  27  132.67    9.78
  -1   5 -27  126.14   12.29
  -4  -1 -27  118.27    9.28
  -4  -1 -24    4.28    3.78
   1  -5  24    1.32    6.19
   5  -4 -24   -0.54    4.28
  -1   5 -24    9.56    5.35
   4   1  24    2.54    4.02
   4   1  21  365.50   12.95
   1  -5  21  355.39   16.79
   5  -4 -21  362.82   16.52
  -1   5 -21  358.21   17.20
  -4  -1 -21  357.63   12.77
   4   1  18  722.71   16.81
   1  -5  18  747.32   23.08
  -4  -1 -18  699.80   16.69
   4   1  15  627.32   13.67
   1  -5  15  582.22   19.49
   5  -4 -15  640.50   19.79
  -4  -1 -15  608.98   13.67
  -4  -1 -12  461.54   10.04
   5  -4 -12  482.91   16.13
   1  -5  12  458.49   16.06
   4   1  12  499.93    9.94
   1  -5   9   37.15    5.59
   1  -5   6  895.52   20.68
  -1   5  -3 2521.91   40.39
   1  -5   3 2638.79   39.77
   4   1   0  541.34   10.81
  -4  -1   0  530.25   10.67
  -4  -1   3 5097.68   61.87
   4   1  -3 4993.56   61.90
   4   1  -6   36.30    3.99
  -4  -1   6   29.62    4.05
   5  -4   9  566.17   15.82
  -4  -1   9  574.09   16.06
   4   1  -9  566.84   15.93
   5  -4  12  168.99    9.00
  -5   4 -12  158.11    9.24
  -4  -1  12  168.37    9.75
  -4  -1  15 1532.65   32.95
   5  -4  15 1561.69   30.95
   1  -5 -15 1555.44   29.35
  -5   4 -15 1597.55   32.48
   1  -5 -18 1156.62   25.47
   5  -4  18 1158.14   27.09
  -4  -1  18 1083.47   28.58
  -5   4 -18 1135.31   27.90
  -4  -1  21   87.47    9.67
   5  -4  21   71.35    7.82
   1  -5 -21   78.46    7.18
   4   1 -21   65.94    7.79
  -4  -1  24    3.78    6.09
   5  -4  24    5.91    4.97
   4   1 -24   -0.86    4.24
  -5   4 -27  145.78   11.84
   1  -5 -27  164.86   11.41
   5  -4  27  133.13   11.26
  -4  -1  27  146.24   13.17
  -5   4 -30  665.33   25.89
   1  -5 -30  649.72   23.57
  -4  -1  30  640.46   26.95
   5  -4  30  685.43   25.22
  -4  -1  33   32.31    9.19
   5  -4  33   29.28    8.09
   1  -5 -33   22.30    6.62
  -4  -1  36    4.38    8.24
   5  -4  36   14.56    7.56
  -4  -1  39   10.18    8.63
   5  -4  39    9.19    7.46
  -4  -1  42   48.87   12.11
   5  -4  42   44.94   10.32
   2  -5  43   48.60   12.13
   2  -5  40  127.56   15.04
   2  -5  37   48.21   10.64
   2  -5  34   13.75    8.01
  -3  -2 -34    7.81    5.21
   3   2  31   50.34    7.66
  -3  -2 -31   43.99    6.82
   2  -5  31   53.68    9.94
   2  -5  28  441.97   20.89
  -2   5 -28  420.48   21.10
   3   2  28  427.24   17.79
   5  -3 -25  889.85   28.20
   3   2  25  861.26   23.75
   2  -5  25  798.63   27.01
  -2   5 -25  881.83   29.03
  -3  -2 -25  848.00   22.76
   2  -5  22  641.56   22.78
   5  -3 -22  701.16   23.51
  -3  -2 -22  670.41   18.39
   3   2  22  680.21   19.17
  -2   5 -22  693.52   24.17
  -3  -2 -19  210.35    9.11
   2  -5  19  193.59   12.28
   3   2  19  204.28    9.32
  -2   5 -16   62.01    7.10
   2  -5  16   50.84    7.05
   3   2  16   58.45    4.79
   5  -3 -16   68.22    7.00
  -3  -2 -16   53.05    4.29
   5  -3 -13  696.93   19.92
   2  -5  13  684.05   20.10
  -2   5 -13  697.90   20.45
  -3  -2 -13  716.90   13.51
   2  -5  10 1094.40   24.65
  -3  -2 -10 1060.48   15.15
   2  -5   7   63.13    5.90
   2  -5   4 1272.42   25.35
   3   2   1 4194.67   48.67
  -3  -2  -1 4193.40   48.43
   3   2  -2  137.00    5.78
  -3  -2   2  148.85    5.89
  -3  -2   5  797.99   16.70
   3   2  -5  773.18   16.70
   3   2  -8 2771.52   42.21
   5  -3   8 2726.40   40.86
  -3  -2   8 2868.13   42.25
  -5   3 -11  457.45   14.27
   5  -3  11  464.18   13.59
  -3  -2  11  485.17   15.41
   2  -5 -14   73.07    6.27
   5  -3  14   62.78    6.12
  -3  -2  14   75.74    7.92
  -5   3 -14   73.46    6.38
   5  -3  17  545.01   16.46
   2  -5 -17  535.22   16.94
  -5   3 -17  513.42   16.87
  -3  -2  17  549.56   19.46
   2  -5 -20  684.07   20.41
   5  -3  20  678.70   19.78
  -3  -2  20  642.11   22.39
  -5   3 -20  647.70   20.34
  -3  -2  23  489.78   20.63
   5  -3  23  506.09   18.36
   3   2 -23  510.06   20.79
   5  -3  26   54.47    7.51
   3   2 -26   45.57    7.72
   2  -5 -26   48.97    7.28
  -3  -2  26   63.02    9.84
  -5   3 -29    1.53    4.78
   5  -3  29    0.97    5.56
  -3  -2  29    7.23    7.58
   2  -5 -29   -1.12    4.70
   5  -3  32   87.50   10.29
  -3  -2  32  105.20   13.06
  -5   3 -32   95.47   10.54
   2  -5 -32  108.35   10.99
   5  -3  35   63.40    9.48
  -3  -2  35  108.62   14.04
  -3  -2  38  116.57   14.82
   5  -3  38  115.87   13.09
  -3  -2  41   14.76   10.20
   5  -3  41    8.51    7.70
  -3  -2  44    9.23    9.51
   5  -3  44   -4.80    7.34
   3  -5  44   -1.82    8.59
   3  -5  41   41.36   10.20
   3  -5  38   90.30   12.91
  -5   2  35   25.72    9.82
   3  -5  35   22.36    8.33
  -2  -3 -35   15.15    5.83
  -2  -3 -32  174.72   12.29
   3  -5  32  169.02   14.57
  -5   2  32  180.44   15.85
  -5   2  29   53.09   10.00
   3  -5  29   41.18    8.32
  -3   5 -29   32.80    7.49
  -5   2  26    2.67    6.99
   3  -5  26    0.30    6.15
   5  -2 -26    0.50    4.64
  -2  -3 -26    5.01    3.68
  -3   5 -26    2.46    5.16
  -2  -3 -23  286.71   12.46
   3  -5  23  277.03   15.18
  -3   5 -23  302.51   15.98
   5  -2 -23  269.57   15.30
  -5   2  23  286.01   16.25
  -2  -3 -20  170.61    8.75
   3  -5  20  166.10   11.38
   5  -2 -20  172.89   11.36
  -5   2  20  149.43   11.60
   3  -5  17 1048.35   26.80
  -3   5 -17 1052.38   27.50
  -5   2  17 1063.30   27.76
  -2  -3 -17 1043.62   20.89
  -5   2  14   62.19    7.10
  -3   5 -14   47.57    6.17
   3  -5  14   58.87    6.96
  -2  -3 -14   57.06    4.21
  -2  -3 -11   96.32    4.38
  -3   5 -11  113.21    8.15
   3  -5  11  101.75    7.79
   3  -5   8  820.77   20.06
  -3   5  -8  754.47   20.00
   3  -5   5 5611.71   72.87
   5  -2  -5 5379.72   69.66
  -2  -3  -2 2987.14   36.51
   2   3   2 2952.29   37.35
  -2  -3   1 3167.40   40.05
   2   3  -1 3057.37   40.63
  -2  -3   4  324.48    9.90
   2   3  -4  324.50    9.94
  -2  -3   7 3410.31   47.98
   2   3  -7 3413.93   48.48
   5  -2   7 3371.97   44.96
  -2  -3  10  717.61   18.69
   5  -2  10  722.54   15.47
  -2  -3  13   69.21    7.01
  -5   2 -13   71.60    5.49
   3  -5 -13   81.36    6.61
   5  -2  13   74.84    5.49
  -5   2 -16   41.56    5.31
   5  -2  16   32.80    4.55
   3  -5 -16   44.59    5.61
  -2  -3  16   38.02    6.77
   3  -5 -19  271.10   12.78
  -2  -3  19  252.00   13.76
   5  -2  19  244.27   10.91
  -5   2 -19  233.36   11.35
   2   3 -22  903.35   27.75
  -2  -3  22  892.13   27.52
   5  -2  22  887.20   23.12
  -5   2 -22  892.96   24.29
  -2  -3  25  395.09   19.40
   2   3 -25  380.77   18.86
   3  -5 -25  412.78   17.88
   5  -2  25  399.51   16.44
   5  -2  28  155.72   11.36
  -5   2 -28  180.50   12.30
   3  -5 -28  184.66   12.86
  -2  -3  28  148.53   13.37
   5  -2  31    7.32    5.47
  -5   2 -31   21.88    6.55
  -2  -3  31   13.35    7.24
  -2  -3  34   10.30    8.59
   5  -2  34   -3.79    6.45
  -5   2 -34   -0.43    4.95
  -2  -3  37   -0.21    8.11
   5  -2  37   -0.65    6.30
   5  -2  40   19.68    8.01
  -2  -3  40   29.50    9.82
   5  -2  43   33.99    9.36
  -2  -3  43   16.76   10.26
   4  -5  42   59.55   11.89
   4  -5  39   -3.70    7.85
  -5   1  39   -8.81    7.94
  -5   1  36   22.42    9.66
   4  -5  36   10.22    7.23
  -1  -4 -33  109.99   10.39
  -5   1  33  120.20   14.04
   4  -5  33   94.11   11.65
  -5   1  30  113.41   12.88
  -1  -4 -30  120.64   10.39
   4  -5  30  112.55   11.62
  -4   5 -30  112.01   11.78
   4  -5  27  120.11   11.42
  -4   5 -27  137.49   12.02
  -5   1  27  132.92   12.92
  -1  -4 -24    4.83    3.68
  -5   1  24    5.19    6.31
  -4   5 -24   -1.80    4.32
   4  -5  24    3.88    5.54
   5  -1 -24   12.82    5.65
  -1  -4 -21  124.21    8.06
  -5   1  21  108.83   10.35
   4  -5  21  127.06   10.11
   4  -5  18 1333.92   30.69
  -5   1  18 1237.53   31.27
  -4   5 -18 1301.25   31.52
  -1  -4 -18 1308.02   25.62
   4  -5  15 1788.35   35.21
  -5   1  15 1797.57   36.63
  -4   5 -15 1810.79   36.45
  -1  -4 -15 1773.30   29.28
  -5   1  12 2474.48   42.03
  -1  -4 -12 2401.65   34.25
   4  -5  12 2451.88   41.60
  -4   5  -9  341.00   13.68
  -5   1   9  356.77   12.88
   4  -5   9  339.32   12.81
   5  -1  -6  265.62    9.91
  -5   1   6  266.11   10.07
   4  -5   6  263.92   11.39
   5  -1  -3 1272.97   22.59
  -1  -4  -3 1283.39   21.21
  -1  -4   0 3796.00   48.70
   1   4   0 3865.96   49.98
  -1  -4   3  143.00    6.83
   1   4  -3  139.83    6.82
   1   4  -6  221.03    9.27
  -1  -4   6  208.97    9.02
   5  -1   9  198.55    6.49
  -1  -4   9  197.80    9.60
  -1  -4  12 1033.07   24.55
   5  -1  12 1073.08   18.60
  -5   1 -12 1026.43   19.68
  -1  -4  15  625.09   19.81
   4  -5 -15  664.44   19.63
   5  -1  15  614.00   14.69
  -5   1 -15  612.94   15.53
  -5   1 -18  403.53   13.52
   5  -1  18  404.51   12.91
  -1  -4  18  427.37   17.33
   1   4 -21   68.23    8.01
   5  -1  21   60.32    6.19
  -5   1 -21   75.90    6.81
  -1  -4  21   73.51    8.79
   5  -1  24    2.33    4.23
  -5   1 -24    6.50    4.19
  -1  -4  24    2.54    5.70
   4  -5 -24   13.68    5.35
   1   4 -24   12.74    5.41
   5  -1  27    4.68    4.89
  -1  -4  27   13.79    7.06
   4  -5 -27   10.58    5.50
   5  -1  30  212.93   13.43
  -1  -4  30  213.72   16.16
  -5   1 -30  231.75   14.23
  -5   1 -33  130.18   11.59
  -1  -4  33  136.60   14.13
   5  -1  33  114.57   10.97
   5  -1  36   45.83    8.37
  -5   1 -36   37.07    7.67
  -1  -4  36   32.62    9.74
  -1  -4  39    7.26    8.38
   5  -1  39    7.46    6.28
   5  -1  42    8.69    6.87
  -1  -4  42    9.77    9.62
  -5   0  43   26.83   11.33
   5  -5  43   49.00   11.09
   5  -5  40   63.12   11.41
  -5   0  40   45.20   11.44
  -5   0  37   30.61   10.07
   5  -5  37   29.84    8.95
   5  -5  34   -0.03    7.04
  -5   0  34   15.18    8.51
   0  -5 -34   11.56    5.39
  -5   0  31  177.95   15.67
   5  -5  31  187.49   14.60
   0  -5 -31  212.67   13.45
   5  -5  28  338.66   17.79
   0  -5 -28  328.64   15.81
  -5   5 -28  321.87   17.93
  -5   0  28  338.54   19.34
  -5   5 -25  502.96   21.55
   5   0 -25  575.80   22.96
  -5   0  25  513.76   22.67
   5  -5  25  549.49   21.12
   5  -5  22  282.08   14.65
  -5   0  22  265.41   15.46
   5   0 -22  285.09   15.51
   0  -5 -22  289.95   12.85
   0  -5 -19   58.52    5.73
  -5   5 -19   48.44    6.70
  -5   0  19   47.86    7.30
   5  -5  19   58.56    7.09
  -5   5 -16  988.37   26.12
  -5   0  16  963.79   26.08
   5  -5  16  942.19   24.66
   0  -5 -16  978.02   21.50
  -5   5 -13  628.55   19.53
   0  -5 -13  618.46   15.38
   5  -5  13  643.34   18.86
  -5   0  13  630.68   19.31
   5  -5  10 1937.17   35.52
   5   0 -10 1991.13   35.59
  -5   0  10 2010.65   35.73
   5   0  -7 2158.31   35.55
   5  -5   7 2233.28   38.60
  -5   0   7 2233.09   36.10
   5   0  -4  505.11   13.21
  -5   0   4  532.27   13.52
   0  -5  -1   13.41    3.19
   5   0  -1   19.83    2.72
   5   0   2 3306.50   40.83
   0  -5   2 3365.99   46.87
   0   5  -2 3388.73   48.37
   0   5  -5 1179.66   24.46
   0  -5   5 1161.16   24.00
   5   0   8  681.74   10.91
   0  -5   8  733.50   18.91
   0  -5  11  542.80   17.16
   5   0  11  516.69   10.17
   5  -5 -14    4.69    3.80
  -5   0 -14    6.76    2.63
   0  -5  14    0.70    5.23
   5   0  14    8.88    2.61
   0  -5  17  626.97   21.03
   5   0  17  632.99   14.97
  -5   0 -17  620.78   15.54
   0   5 -20  739.38   24.64
   0  -5  20  706.61   23.72
   5   0  20  744.32   18.32
  -5   0 -20  750.57   18.97
   0  -5  23  245.48   15.28
  -5   0 -23  271.74   12.25
   5  -5 -23  254.89   14.51
   0   5 -23  266.62   15.64
   5   0  23  258.34   11.68
   0  -5  26  156.89   13.33
   0   5 -26  129.69   11.99
   5   0  26  141.33    9.71
  -5   0 -26  149.32   10.09
   5  -5 -26  139.63   11.64
   0  -5  29    7.25    7.01
   5   0  29   17.14    5.74
   5   0  32   27.64    6.41
   0  -5  32   32.08    8.99
  -5   0 -32   25.70    6.41
   5   0  35  114.33   11.40
   0  -5  35   96.39   12.72
  -5   0 -35   95.00   10.14
   5   0  38  123.92   12.46
   0  -5  38  156.79   16.50
   0  -5  41   32.53   11.22
   5   0  41   14.37    7.62
   0  -5  44   -7.56    9.07
   1  -6  43   43.44   12.31
   1  -6  40   64.85   12.89
   1  -6  37   53.66   11.41
  -5  -1 -37   54.43    8.65
   5   1  37   51.64    9.36
   5   1  34    3.21    5.54
  -5  -1 -34   -5.05    4.50
   1  -6  34   -3.67    8.23
   1  -6  31   -3.62    7.60
   5   1  31    5.58    4.94
   5   1  28   81.09    7.99
  -5  -1 -28   76.96    7.83
   1  -6  28   82.16   11.25
   6  -5 -25 1069.04   31.73
   5   1  25 1051.85   25.34
  -5  -1 -25 1026.83   25.17
   1  -6  25 1057.12   32.32
  -1   6 -25 1030.37   32.94
  -5  -1 -22  197.71    9.55
   6  -5 -22  199.49   13.06
  -1   6 -22  200.02   13.61
   5   1  22  194.04    9.43
   1  -6  22  195.62   13.37
   6  -5 -19   10.43    4.78
  -1   6 -19    7.48    4.64
  -5  -1 -19    9.10    3.24
   5   1  19    7.08    3.13
   1  -6  19   13.97    6.42
  -5  -1 -16   25.72    3.37
   5   1  16   30.25    3.32
   5   1  13  266.75    6.74
  -5  -1 -13  248.51    7.08
   1  -6  13  251.20   12.76
   1  -6  10  523.32   17.32
   1  -6   7  623.57   18.29
   1  -6   4  245.48   10.84
   5   1   4  228.33    5.12
  -1   6  -4  235.54   10.78
   5   1   1  531.32   10.88
   1  -6   1  552.71   15.77
  -5  -1  -1  520.43   10.82
  -5  -1   2 2886.76   39.69
   5   1  -2 2916.10   39.65
   5   1  -5  265.30    9.70
  -5  -1   5  254.52    9.73
  -5  -1   8 1219.99   25.18
   6  -5   8 1212.15   26.73
   5   1  -8 1210.39   25.14
   6  -5  11  430.41   15.32
  -5  -1  11  444.94   15.54
   5   1 -11  432.36   15.18
  -6   5 -14  116.96    9.05
  -5  -1  14  113.97    9.16
   6  -5  14  119.08    8.89
   6  -5  17  108.50    8.90
  -6   5 -17  114.24    9.51
  -5  -1  17  125.16   10.35
   1  -6 -17  115.72    7.87
  -5  -1  20  200.53   13.24
   1  -6 -20  221.79   11.05
   6  -5  20  200.93   12.05
   5   1 -23  443.14   20.06
  -5  -1  23  422.62   19.81
   6  -5  23  440.30   17.98
  -6   5 -26  162.06   12.55
  -5  -1  26  181.32   14.38
   6  -5  26  167.43   12.24
   6  -5  29    3.67    5.84
   1  -6 -29    3.11    4.66
  -6   5 -29    0.73    5.29
   1  -6 -32   33.15    6.78
   6  -5  32   53.36    8.99
   6  -5  35   79.02   10.85
  -5  -1  35   58.76   11.61
  -5  -1  38   29.39   10.71
   6  -5  38   12.72    7.77
   6  -5  41   14.98    8.17
  -5  -1  41   17.87   10.08
  -5  -1  44    6.57    9.95
   6  -5  44    0.40    7.46
   2  -6  44    6.64    8.73
   2  -6  41   16.93    9.53
   2  -6  38   58.59   12.18
  -4  -2 -35   80.02    9.32
   2  -6  35   98.62   13.38
   2  -6  32  118.52   13.19
  -4  -2 -32  103.86    9.45
   2  -6  29   -9.09    7.43
   4   2  29    0.95    4.58
   4   2  26  522.23   17.87
   6  -4 -26  551.63   22.93
   2  -6  26  509.06   22.40
  -4  -2 -26  526.13   17.59
  -2   6 -26  535.54   23.52
  -4  -2 -23  895.11   21.59
  -2   6 -23  920.26   29.30
   2  -6  23  842.23   27.64
   4   2  23  912.35   22.35
   6  -4 -23  876.31   27.84
   4   2  20  635.35   16.45
   2  -6  20  630.70   22.27
  -2   6 -20  623.17   22.72
   6  -4 -20  641.35   22.30
  -4  -2 -20  644.78   16.15
  -4  -2 -17  784.85   16.26
   4   2  17  791.26   16.64
   2  -6  17  791.53   23.98
   2  -6  14   20.46    5.44
  -4  -2 -14   25.63    2.71
   2  -6  11   44.91    6.72
   2  -6   8 1524.11   30.77
   2  -6   5 6438.61   84.22
   2  -6   2  549.90   16.43
  -4  -2  -2  541.81    9.83
   4   2   2  553.14   10.01
  -4  -2   1   54.07    3.67
   4   2  -1   47.57    3.44
   4   2  -4   22.12    3.29
  -4  -2   4   19.10    3.26
   4   2  -7 1189.26   24.04
  -4  -2   7 1204.64   24.08
   4   2 -10  876.50   21.60
   6  -4  10  887.80   21.14
  -4  -2  10  918.97   21.98
  -4  -2  13 1028.43   25.32
   6  -4  13 1039.19   23.62
  -4  -2  16  384.34   16.52
  -6   4 -16  404.58   15.49
   2  -6 -16  405.21   14.81
   6  -4  16  393.23   14.52
  -4  -2  19   13.69    5.62
   6  -4  19   12.50    4.84
   2  -6 -19    4.25    3.40
  -6   4 -19    6.99    4.29
   6  -4  22  345.95   15.10
   4   2 -22  360.87   17.61
  -4  -2  22  320.69   17.13
   4   2 -25  225.35   14.62
   6  -4  25  194.65   12.80
  -4  -2  25  220.88   15.63
   2  -6 -25  216.74   12.62
   6  -4  28  234.82   14.37
  -6   4 -28  213.65   14.27
  -4  -2  28  240.38   16.57
   2  -6 -28  237.41   14.26
   6  -4  31  138.59   12.13
  -6   4 -31  144.29   12.79
  -4  -2  31  150.98   14.37
   2  -6 -31  152.57   12.43
  -4  -2  34    2.39    7.88
   6  -4  34   -1.49    6.32
   6  -4  37   52.10    9.91
  -4  -2  37   65.67   11.97
  -4  -2  40   67.25   13.66
   6  -4  40   90.01   12.26
   6  -4  43   79.50   12.58
  -4  -2  43   79.57   14.53
   3  -6  42   22.18    9.94
   3  -6  39   13.08    8.94
  -3  -3 -36    2.87    5.03
   3  -6  36   -1.78    7.83
   3  -6  33  138.78   13.90
  -3  -3 -33  150.05   11.63
   3  -6  30  269.21   17.62
   3  -6  27  127.11   12.11
  -3   6 -27  119.04   11.54
  -3  -3 -27  116.88    8.88
   3  -6  24   75.70    9.70
   6  -3 -24   67.43    8.76
  -3   6 -24   79.64    9.63
  -3  -3 -24   76.46    6.68
   3  -6  21   31.59    6.89
   6  -3 -21   42.49    6.55
  -3   6 -21   52.89    7.54
  -3  -3 -21   36.90    4.48
   3  -6  18  322.88   15.37
  -3  -3 -18  326.55   10.52
  -3  -3 -15  622.83   13.25
  -3   6 -15  626.82   20.80
   3  -6  15  602.44   19.90
   3  -6  12  415.60   15.94
  -3   6 -12  423.16   16.22
  -3  -3 -12  416.89    8.83
   3  -6   9  847.72   22.14
   3  -6   6  720.25   20.01
  -3  -3  -3  106.87    3.83
   3   3   3   94.94    4.07
   3  -6   3   95.76    7.41
   3   3   0  529.11   11.67
  -3  -3   0  531.42   11.24
  -3  -3   3  865.50   17.15
   3   3  -3  839.81   17.39
  -3  -3   6  659.97   16.21
   3   3  -6  658.89   16.41
   6  -3   9  580.40   15.18
   3   3  -9  603.33   16.91
  -3  -3   9  576.73   16.69
   6  -3  12  156.11    7.96
  -3  -3  12  170.52    9.78
   3  -6 -15  782.69   21.44
   6  -3  15  811.46   19.58
  -6   3 -15  768.87   20.52
  -3  -3  15  812.68   23.17
   3  -6 -18  862.61   23.40
  -3  -3  18  791.55   24.49
   6  -3  18  830.95   20.97
  -6   3 -18  816.95   22.16
  -3  -3  21  129.47   11.06
   3   3 -21  147.26   11.13
  -6   3 -21  145.21    9.98
   6  -3  21  138.97    9.25
   6  -3  24    4.81    4.63
   3  -6 -24    2.00    4.10
   3   3 -24    2.93    4.42
  -3  -3  24   -4.36    6.30
   3  -6 -27  263.54   14.99
  -3  -3  27  238.67   16.31
   6  -3  27  250.95   13.93
   3  -6 -30  117.92   10.95
  -3  -3  30  113.92   13.14
  -6   3 -30  112.88   11.13
   6  -3  30  112.82   10.69
  -6   3 -33  121.27   12.09
  -3  -3  33  117.82   13.58
   6  -3  33  113.06   11.12
  -3  -3  36   36.43    9.75
   6  -3  36   38.48    8.55
  -3  -3  39    6.11    8.52
   6  -3  39    4.16    6.62
   6  -3  42   53.78   10.56
  -3  -3  42   57.51   13.10
   4  -6  43  101.91   14.81
   4  -6  40  125.69   14.94
   4  -6  37  219.91   18.20
   4  -6  34   13.90    8.12
  -2  -4 -34   11.21    5.18
  -2  -4 -31   11.24    5.05
   4  -6  31   10.66    7.18
  -6   2  31    1.81    7.81
   4  -6  28  316.68   18.04
  -4   6 -28  290.24   17.78
  -6   2  28  289.69   18.15
   4  -6  25   82.83   10.10
  -6   2  25   93.63   11.09
   6  -2 -25  101.61   10.18
  -4   6 -25  113.18   10.98
  -2  -4 -25  101.82    7.83
   4  -6  22   60.60    8.51
  -6   2  22   64.52    9.01
  -4   6 -22   66.95    8.31
  -2  -4 -22   65.59    5.94
   6  -2 -22   78.52    8.63
  -2  -4 -19   60.34    5.20
  -6   2  19   64.71    8.71
   4  -6  19   57.15    7.46
  -4   6 -16  904.68   25.71
  -6   2  16  825.39   24.69
  -2  -4 -16  894.85   18.18
   4  -6  16  879.14   24.69
  -6   2  13 2140.53   40.85
  -4   6 -13 2240.92   42.43
   4  -6  13 2230.06   41.38
  -2  -4 -13 2165.87   30.93
   4  -6  10 5560.56   79.13
  -4   6 -10 5938.11   81.23
   6  -2  -7 1857.64   33.42
   4  -6   7 1881.98   36.06
  -2  -4  -4  467.27   10.33
   6  -2  -4  466.45   13.49
   2   4   1  342.85    9.77
  -2  -4  -1  343.00    9.25
  -2  -4   2  523.30   12.71
   2   4  -2  485.42   12.79
  -2  -4   5 2113.51   34.00
   2   4  -5 2133.56   34.71
   2   4  -8  491.95   15.22
   6  -2   8  493.33   12.57
  -2  -4   8  524.27   15.43
   2   4 -11  153.30    9.24
   6  -2  11  150.54    6.81
  -2  -4  11  133.90    8.94
  -2  -4  14  108.87    9.13
   6  -2  14  112.98    6.59
  -6   2 -14  107.38    6.95
   6  -2  17  658.09   17.07
   4  -6 -17  668.28   20.77
  -2  -4  17  676.86   21.97
  -6   2 -17  660.66   18.18
   6  -2  20  648.30   18.28
  -6   2 -20  663.63   19.45
  -2  -4  20  652.59   22.76
   6  -2  23 1190.23   27.43
   4  -6 -23 1179.54   31.06
  -6   2 -23 1172.31   28.65
  -2  -4  23 1107.52   32.33
   2   4 -23 1215.17   33.66
   4  -6 -26  495.83   20.81
  -2  -4  26  474.47   22.17
   6  -2  26  489.72   18.09
  -6   2 -29    0.92    4.96
   4  -6 -29   14.51    6.17
  -2  -4  29    6.75    7.27
   6  -2  29    2.52    5.29
  -2  -4  32   65.70   11.31
   6  -2  32   53.21    8.34
  -6   2 -32   48.17    8.03
   6  -2  35   98.75   10.76
  -2  -4  35   96.37   12.81
  -6   2 -35   89.36   10.28
   6  -2  38   58.69    9.49
  -2  -4  38   61.63   12.25
   6  -2  41   11.00    7.50
  -2  -4  41   28.21   11.10
   6  -2  44    6.11    7.14
  -2  -4  44    1.51    8.98
   5  -6  44    2.41    8.64
   5  -6  41   38.03   10.53
  -6   1  38  179.37   17.89
   5  -6  38  198.29   17.05
   5  -6  35  307.57   19.85
  -1  -5 -35  313.61   17.16
  -6   1  35  329.87   22.11
  -1  -5 -32   96.54    9.76
  -6   1  32   98.51   12.74
   5  -6  32   89.00   11.28
   5  -6  29    7.01    6.70
  -6   1  29    9.46    7.55
  -5   6 -29   10.03    6.24
   5  -6  26  113.17   11.20
  -5   6 -26  123.67   11.52
  -6   1  26  107.48   12.11
  -6   1  23  485.54   21.30
  -1  -5 -23  503.80   16.64
   5  -6  23  469.97   19.71
   6  -1 -23  480.38   20.79
  -5   6 -23  504.44   21.30
   6  -1 -20  169.24   11.73
  -6   1  20  211.07   13.74
  -1  -5 -20  204.92    9.79
   5  -6  20  207.50   12.76
  -1  -5 -17   34.93    4.32
  -6   1  17   31.67    7.01
   5  -6  17   25.45    6.46
  -6   1  14   55.35    7.25
  -1  -5 -14   52.82    4.66
  -5   6 -14   59.96    7.58
   5  -6  14   53.76    7.34
   5  -6  11  135.77    9.39
   6  -1 -11  108.03    7.90
  -5   6 -11  128.40    9.38
  -6   1  11  131.28    9.17
   6  -1  -8  152.80    8.55
   5  -6   8  152.09    9.83
  -6   1   8  153.38    8.85
   6  -1  -5  426.57   13.16
  -1  -5  -2  557.89   13.48
   6  -1  -2  540.22   13.68
  -1  -5   1   24.19    3.76
   1   5  -1   25.07    3.77
  -1  -5   4  483.29   13.99
   1   5  -4  479.21   14.34
  -1  -5   7  585.49   16.76
   1   5  -7  552.35   16.53
  -1  -5  10 1318.62   28.20
   1   5 -10 1331.59   28.93
   6  -1  10 1282.34   20.37
  -1  -5  13 1163.49   27.74
   6  -1  13 1166.44   19.93
  -1  -5  16  763.52   23.43
   6  -1  16  789.02   16.93
  -6   1 -16  798.40   18.54
   6  -1  19    4.68    3.41
  -6   1 -19    6.33    3.29
  -1  -5  19    0.45    5.53
  -1  -5  22  493.69   20.98
   1   5 -22  501.84   21.10
  -6   1 -22  515.01   16.92
   6  -1  22  504.72   15.86
   5  -6 -22  505.12   20.30
  -6   1 -25  842.74   23.71
   6  -1  25  838.06   22.79
   1   5 -25  797.23   28.52
   5  -6 -25  840.37   27.35
  -1  -5  25  826.51   28.65
  -1  -5  28  929.32   31.76
   6  -1  28  904.73   25.50
   5  -6 -28  941.99   30.38
   6  -1  31  381.21   17.35
  -1  -5  31  357.46   21.60
  -6   1 -31  361.86   17.55
  -6   1 -34    4.77    5.81
   6  -1  34    1.41    5.44
  -1  -5  34    0.35    7.79
   6  -1  37   41.52    8.36
  -1  -5  37   60.57   12.37
   6  -1  40   50.39    9.50
  -1  -5  40   49.21   11.59
  -1  -5  43   14.11    9.89
   6  -1  43   32.31    8.90
  -6   0  42    2.45    9.34
   6  -6  42   14.74    8.51
   6  -6  39   15.30    7.97
  -6   0  39    1.32    8.63
   6  -6  36  128.22   13.92
  -6   0  36  120.36   15.21
  -6   0  33  185.80   16.43
   0  -6 -33  191.86   13.33
   6  -6  33  203.93   15.98
   0  -6 -30  110.13    9.84
  -6   6 -30  123.64   12.65
   6  -6  30  129.67   12.53
  -6   0  30  125.04   13.25
  -6   0  27   84.82   11.37
   6  -6  27  121.12   11.44
  -6   6 -27  105.84   11.13
  -6   0  24   12.97    7.33
   6   0 -24   13.77    5.55
   0  -6 -24   21.08    4.98
   6  -6  24   28.82    7.20
  -6   6 -24   14.15    6.05
   6   0 -21    2.23    4.31
  -6   0  21    1.61    5.33
   0  -6 -21    7.01    3.66
   6  -6  21    7.57    5.40
   6  -6  18  148.85   10.55
  -6   0  18  139.95   11.19
   0  -6 -18  146.16    8.45
  -6   6 -15  646.22   22.08
   6  -6  15  656.02   21.01
   0  -6 -15  689.56   17.40
  -6   0  15  696.34   22.15
  -6   0  12   89.52    7.81
   6   0 -12   95.59    7.90
   6  -6  12   94.48    8.66
   6  -6   9   78.58    7.71
   6   0  -9   81.35    6.70
  -6   0   9   87.64    7.44
  -6   0   6  234.20   10.07
   6   0  -6  225.69    9.74
   6   0  -3  294.62   10.15
  -6   0   3  301.63   10.18
   6   0   0   47.97    3.75
   0  -6   0   48.79    4.96
   6   0   3 1066.28   17.33
   0   6  -3 1088.79   24.52
   0  -6   3 1055.47   23.04
   0   6  -6  528.35   16.73
   0  -6   6  560.67   16.85
   0   6  -9   13.34    4.32
   6   0   9   12.14    1.66
   0  -6   9   15.21    5.10
   0  -6  12  298.22   13.65
   6   0  12  287.96    7.27
   0  -6  15  566.19   19.67
  -6   0 -15  539.35   13.41
   6   0  15  569.05   12.16
   0  -6  18 1281.18   32.72
   6   0  18 1335.77   23.53
  -6   0 -18 1303.54   24.65
   0  -6  21   22.90    6.68
   0   6 -21   14.25    4.95
  -6   0 -21   26.34    4.44
   6  -6 -21   24.95    5.99
   6   0  21   21.69    4.00
   6   0  24  547.59   16.82
   6  -6 -24  542.31   21.87
   0  -6  24  553.30   23.19
  -6   0 -24  519.86   17.12
   0   6 -24  554.10   23.51
   0  -6  27  317.30   18.56
  -6   0 -27  318.73   14.41
   6   0  27  323.14   14.13
   6   0  30  673.47   22.01
   0  -6  30  656.10   27.78
  -6   0 -33  225.44   14.14
   6   0  33  182.73   12.86
   0  -6  33  206.45   17.29
   0  -6  36   18.26    8.98
   6   0  36   14.97    6.67
  -6   0 -36   19.15    6.30
   6   0  39   17.88    7.08
   0  -6  39   11.06    9.47
   0  -6  42   14.42    9.57
   1  -7  41   31.87   10.61
   1  -7  38  133.13   15.67
  -6  -1 -35   61.10    8.20
   6   1  35   55.65    8.40
   1  -7  35   58.79   11.37
   6   1  32  174.44   11.76
   1  -7  32  179.71   16.08
  -6  -1 -29  245.42   12.85
   1  -7  29  254.00   17.85
   6   1  29  254.82   12.90
   1  -7  26  142.54   12.93
   6   1  26  148.32    9.25
  -6  -1 -26  143.95    9.21
   7  -6 -23   67.81    8.57
   1  -7  23   50.91    8.90
   6   1  23   52.13    5.34
  -6  -1 -23   59.37    5.57
  -1   7 -23   50.86    8.32
   7  -6 -20  486.48   20.05
  -1   7 -20  468.09   20.50
  -6  -1 -20  446.46   12.94
   1  -7  20  417.77   19.52
   6   1  20  450.85   12.57
  -6  -1 -17  647.07   14.33
   6   1  17  670.45   13.63
   7  -6 -17  650.36   22.56
   1  -7  17  676.51   23.08
   6   1  14   13.49    1.82
   1  -7  14   13.84    5.49
   1  -7  11   51.48    7.45
  -1   7  -8  499.93   17.87
   1  -7   8  510.61   17.54
  -1   7  -5 2876.97   47.64
   6   1   5 2708.96   32.61
   1  -7   5 2820.66   45.97
   1  -7   2 1552.27   30.90
   6   1   2 1558.10   22.97
   1  -7  -1   44.12    5.77
  -6  -1   1   47.15    4.18
   6   1  -1   48.77    3.97
   6   1  -4   10.01    2.94
  -6  -1   4    6.77    3.33
  -6  -1   7 1834.56   32.98
   6   1  -7 1763.60   32.59
  -6  -1  10 1630.69   32.94
   6   1 -10 1738.02   33.60
   7  -6  10 1637.49   34.75
   6   1 -13  275.64   13.29
   7  -6  13  260.61   12.96
  -6  -1  13  263.14   13.33
  -6  -1  16  131.00   10.43
   7  -6  16  132.38   10.14
   6   1 -19    2.44    3.94
  -6  -1  19    4.95    5.89
   1  -7 -19    4.20    3.23
   7  -6  19    4.06    4.62
   7  -6  22  683.30   23.02
  -6  -1  22  603.93   23.72
   1  -7 -22  653.15   20.58
   6   1 -22  678.03   24.65
  -6  -1  25  384.16   20.23
  -7   6 -25  382.52   19.39
   7  -6  25  385.54   18.06
   1  -7 -28  438.00   18.65
  -7   6 -28  412.52   21.62
  -6  -1  28  460.34   23.20
   7  -6  28  395.50   19.35
   1  -7 -31   74.79    8.68
   7  -6  31   58.62    9.50
  -6  -1  31   60.34   11.08
   1  -7 -34   26.24    6.63
   7  -6  34   18.76    7.76
  -6  -1  34   31.33    9.52
   7  -6  37   16.70    7.73
  -6  -1  37   12.45    8.37
  -6  -1  40   38.08   12.15
   7  -6  40   29.75    9.73
  -6  -1  43   78.22   14.98
   7  -6  43   50.59   11.06
   2  -7  42   18.63    9.96
   2  -7  39   19.36    9.71
  -5  -2 -36   21.11    6.23
   2  -7  36   30.38    9.63
   2  -7  33   79.99   12.26
  -5  -2 -33   88.25    8.76
   2  -7  30  119.46   12.64
   2  -7  27   -3.32    7.34
  -5  -2 -27   14.91    4.38
   2  -7  24   -3.15    6.94
   7  -5 -24    2.51    4.63
  -2   7 -24    9.39    5.95
  -5  -2 -24    4.71    3.44
   7  -5 -21  249.56   14.65
  -2   7 -21  261.37   15.58
  -5  -2 -21  241.15    9.63
   2  -7  21  227.75   14.67
   2  -7  18  442.08   18.91
  -2   7 -18  454.05   19.30
   7  -5 -18  433.84   18.35
  -5  -2 -18  445.58   11.60
  -5  -2 -15  322.45    8.04
   2  -7  15  345.09   16.04
   2  -7  12  479.73   17.97
   2  -7   9  186.21   10.97
   2  -7   6  275.94   12.74
   2  -7   3 1231.82   27.42
  -5  -2  -3 1136.33   17.09
   5   2   3 1204.35   17.37
   5   2   0 2040.43   29.32
  -5  -2   0 2014.96   28.99
  -5  -2   3 2422.42   35.82
   5   2  -3 2373.88   35.82
   5   2  -6   69.25    5.59
  -5  -2   6   73.36    5.98
  -5  -2   9  282.78   11.85
   7  -5   9  255.27   11.97
   5   2  -9  270.18   11.56
   7  -5  12 1044.37   25.02
   5   2 -12 1065.95   25.94
  -5  -2  12 1079.72   26.19
  -5  -2  15 1097.58   28.09
   7  -5  15 1061.90   26.19
   7  -5  18  922.26   24.62
  -7   5 -18  972.67   26.92
   2  -7 -18  939.35   24.42
  -5  -2  18  933.41   27.35
  -5  -2  21    4.07    5.29
   7  -5  21    8.98    4.98
   5   2 -21    6.88    4.11
  -5  -2  24   27.96    8.41
   7  -5  24   39.87    7.10
   5   2 -24   21.57    6.61
  -7   5 -27   48.08    7.86
   7  -5  27   44.75    7.85
   2  -7 -27   38.99    6.43
  -5  -2  27   41.91    8.55
   7  -5  30  763.46   26.88
   2  -7 -30  761.65   26.21
  -5  -2  30  794.01   30.97
  -7   5 -30  770.47   28.67
  -5  -2  33  164.28   16.06
   7  -5  33  170.97   13.84
   7  -5  36   24.03    7.98
  -5  -2  36   24.62    9.35
   7  -5  39   -6.50    7.30
  -5  -2  39    3.26    7.97
   7  -5  42   69.79   11.68
  -5  -2  42   50.94   12.63
   3  -7  43   45.59   11.61
   3  -7  40   39.04   10.89
  -4  -3 -37   63.38    8.73
   3  -7  37   87.62   13.32
   3  -7  34   16.69    8.82
  -4  -3 -34   21.14    5.59
   3  -7  31   69.80   10.86
   3  -7  28  127.07   12.63
  -4  -3 -28  139.24    9.42
   3  -7  25  549.24   23.13
   7  -4 -25  587.61   23.85
  -3   7 -25  570.18   24.34
  -4  -3 -25  555.27   17.14
  -4  -3 -22  184.61    8.77
   7  -4 -22  190.81   13.02
  -3   7 -22  191.93   13.57
   3  -7  22  211.88   14.28
   3  -7  19    3.74    5.67
  -4  -3 -19    4.92    2.54
  -3   7 -19    2.00    4.47
   7  -4 -19    2.68    4.25
   3  -7  16   52.25    7.73
  -4  -3 -16   49.56    3.53
  -4  -3 -13 1320.72   18.34
   3  -7  13 1368.11   31.95
   3  -7  10 1900.41   37.75
   3  -7   7  462.66   16.75
   4   3   4  671.33   11.94
   3  -7   4  710.85   20.73
  -4  -3  -4  731.82   11.29
   4   3   1 1222.25   19.99
  -4  -3  -1 1221.40   19.30
  -4  -3   2 4115.85   53.10
   4   3  -2 4131.42   53.56
   4   3  -5  401.60   12.67
  -4  -3   5  421.77   12.89
  -4  -3   8 1150.92   24.66
   4   3  -8 1135.48   24.69
   4   3 -11  254.48   11.81
  -4  -3  11  246.39   11.82
   7  -4  11  257.90   11.11
   7  -4  14  477.37   15.69
  -4  -3  14  459.35   17.31
   7  -4  17  661.22   19.26
  -7   4 -17  703.77   21.20
   3  -7 -17  660.67   20.60
  -4  -3  17  667.26   22.59
  -4  -3  20  747.75   25.20
  -7   4 -20  750.05   23.24
   7  -4  20  771.44   21.63
   4   3 -23  576.02   22.80
  -4  -3  23  545.92   22.35
   7  -4  23  556.27   19.18
  -4  -3  26   24.35    8.21
   7  -4  26   19.48    6.29
   3  -7 -26   22.96    6.13
   7  -4  29   -0.23    5.36
  -7   4 -29    3.87    5.57
  -4  -3  29    0.52    7.20
   3  -7 -29    4.23    4.83
  -7   4 -32   14.45    6.59
   7  -4  32   -3.47    6.39
  -4  -3  32   22.86    8.79
  -4  -3  35  181.77   17.02
   7  -4  35  174.68   13.96
  -4  -3  38   80.48   13.66
   7  -4  38   87.05   11.11
   7  -4  41   11.52    7.79
  -4  -3  41   -5.49    9.70
   7  -4  44    5.89    6.93
  -4  -3  44   22.27   12.05
   4  -7  44   11.10    8.99
   4  -7  41   47.67   11.69
   4  -7  38  119.41   13.57
   4  -7  35  174.86   16.01
  -3  -4 -35  166.86   12.31
  -3  -4 -32   38.44    6.46
   4  -7  32   19.04    7.96
   4  -7  29   12.74    7.37
   4  -7  26  258.32   16.44
  -4   7 -26  257.05   16.90
  -3  -4 -26  246.59   11.80
   4  -7  23  178.23   13.15
  -4   7 -23  185.92   13.45
  -3  -4 -23  198.85    9.61
   7  -3 -23  173.39   13.04
   7  -3 -20  653.86   23.18
  -3  -4 -20  620.42   15.62
   4  -7  20  577.47   21.99
  -4   7 -20  605.52   23.16
   4  -7  17  305.27   15.61
  -3  -4 -17  313.39    9.61
  -3  -4 -14  456.21   10.42
   4  -7  14  488.92   18.54
  -4   7 -14  471.56   18.88
   4  -7  11 1003.57   25.92
  -4   7 -11 1012.61   26.77
   4  -7   8 2183.45   41.08
   7  -3  -8 2254.71   39.65
   4  -7   5  604.92   19.32
  -3  -4  -5  590.68   11.02
   3   4   2  276.01    8.53
  -3  -4  -2  269.85    7.76
   3   4  -1  517.83   13.26
  -3  -4   1  541.81   12.93
   3   4  -4  352.55   11.69
  -3  -4   4  362.22   11.60
  -3  -4   7  323.93   11.98
   3   4  -7  316.01   12.02
  -3  -4  10 1274.15   27.44
   3   4 -10 1249.68   27.63
   7  -3  10 1217.39   24.30
  -3  -4  13   38.29    6.51
   7  -3  13   40.57    4.77
   7  -3  16  203.78    9.70
  -3  -4  16  196.40   12.42
  -7   3 -19   52.30    6.52
  -3  -4  19   52.52    8.12
   7  -3  19   57.34    6.32
   4  -7 -22  440.11   18.35
   7  -3  22  459.38   16.16
   3   4 -22  434.98   19.97
  -7   3 -22  443.66   17.44
  -3  -4  22  415.40   19.65
   7  -3  25  406.17   16.21
  -3  -4  25  383.11   19.93
   4  -7 -25  423.22   18.77
   4  -7 -28  355.42   18.09
  -3  -4  28  342.19   19.43
   7  -3  28  352.04   16.22
  -3  -4  31   56.26   10.62
   7  -3  31   46.77    7.75
  -7   3 -31   50.05    8.00
   7  -3  34   -3.22    6.09
  -7   3 -34   -9.42    6.42
  -3  -4  34   -0.97    8.03
  -3  -4  37   82.28   13.37
   7  -3  37   54.12    9.31
   7  -3  40   53.99    9.54
  -3  -4  40   50.26   11.45
  -3  -4  43    8.30    9.80
   7  -3  43   17.27    7.86
   5  -7  42   29.87   10.32
   5  -7  39   -7.26    8.64
   5  -7  36   16.21    8.18
  -2  -5 -36    9.37    5.88
  -2  -5 -33   48.68    7.41
   5  -7  33   40.50    9.26
  -7   2  30  224.49   17.24
   5  -7  30  225.85   16.17
   5  -7  27   57.31    9.80
  -7   2  27   61.85   10.62
  -2  -5 -27   67.93    7.07
  -5   7 -27   68.35    9.66
  -5   7 -24   53.65    8.78
   5  -7  24   44.64    8.43
  -7   2  24   45.76    8.87
  -2  -5 -24   56.88    5.98
   7  -2 -24   52.49    7.93
  -5   7 -21  179.34   13.17
  -7   2  21  206.63   14.45
  -2  -5 -21  189.06    9.17
   7  -2 -21  199.80   13.53
   5  -7  21  192.36   13.18
  -7   2  18 1724.10   39.81
  -2  -5 -18 1736.45   29.58
   5  -7  18 1798.25   39.04
  -2  -5 -15 1965.07   29.96
   5  -7  15 1907.31   40.23
  -7   2  15 1896.05   40.10
  -5   7 -12 1619.40   36.87
   5  -7  12 1729.96   36.28
   7  -2  -9  892.73   22.75
   5  -7   9  886.37   24.29
   5  -7   6  108.36    8.92
   7  -2  -6  128.00    8.02
  -2  -5  -6  120.74    5.77
   7  -2  -3  873.93   19.89
  -2  -5  -3  866.54   16.88
   2   5   0  277.94    9.91
  -2  -5   0  275.40    9.37
   2   5  -3 1138.08   23.49
  -2  -5   3 1158.29   22.87
   2   5  -6  543.36   16.26
  -2  -5   6  554.84   15.93
  -2  -5   9  766.70   20.45
   7  -2   9  748.77   16.47
   2   5  -9  746.73   20.82
  -2  -5  12 1113.59   26.93
   7  -2  12 1127.61   21.13
   7  -2  15 1191.67   22.66
  -2  -5  15 1190.05   29.77
   7  -2  18  330.33   11.72
  -2  -5  18  347.54   16.46
  -7   2 -18  350.04   13.26
  -2  -5  21    8.76    6.34
   2   5 -21   14.73    5.86
   5  -7 -21   17.53    5.21
  -7   2 -21    4.58    3.87
   7  -2  21    8.77    4.07
  -2  -5  24    9.78    7.30
   2   5 -24   15.53    6.34
   7  -2  24    9.15    4.43
   5  -7 -24   16.63    5.70
  -7   2 -24    6.17    3.98
  -2  -5  27  136.59   13.16
   5  -7 -27  128.70   11.25
   7  -2  27  117.29    9.51
  -7   2 -30  364.09   17.96
  -2  -5  30  354.40   20.76
   7  -2  30  383.57   17.12
   7  -2  33  189.22   13.00
  -2  -5  33  182.81   16.47
  -7   2 -33  177.59   13.37
  -7   2 -36    8.60    6.21
   7  -2  36    8.74    6.12
  -2  -5  36   12.98    8.90
  -2  -5  39   -2.56    8.80
   7  -2  39   -3.23    6.30
  -2  -5  42    7.02    9.76
   7  -2  42   -7.71    6.54
   6  -7  43   40.51   11.06
   6  -7  40   72.64   12.91
  -7   1  37   65.55   12.52
   6  -7  37   60.19   11.38
  -1  -6 -34    5.00    4.61
  -7   1  34   15.78    8.54
   6  -7  34   14.09    7.84
   6  -7  31   47.09    9.42
  -1  -6 -31   42.78    6.64
  -7   1  31   48.55   10.41
  -6   7 -28  131.90   12.78
   6  -7  28  130.23   12.30
  -7   1  28  135.29   13.41
  -6   7 -25  344.36   18.92
   6  -7  25  343.21   17.91
  -1  -6 -25  333.63   14.10
  -7   1  25  316.98   18.95
   7  -1 -22  469.51   20.44
  -6   7 -22  428.24   20.14
  -1  -6 -22  450.20   15.26
  -7   1  22  420.55   20.07
   6  -7  22  420.99   19.09
   6  -7  19   77.22    9.26
  -7   1  19   63.32    9.05
  -1  -6 -19   62.31    5.61
  -7   1  16  453.13   18.56
   6  -7  16  459.49   18.56
  -1  -6 -16  467.39   13.65
   6  -7  13  435.43   17.46
  -7   1  13  404.54   16.69
   6  -7  10 1460.04   32.95
  -7   1  10 1472.45   31.24
   7  -1 -10 1440.29   30.97
   6  -7   7  265.17   13.51
   7  -1  -7  268.57   11.48
  -1  -6  -4  208.70    8.93
   7  -1  -4  206.28    9.31
  -1  -6  -1  221.47    9.19
   7  -1  -1  228.35    8.88
   1   6  -2 1152.56   24.62
  -1  -6   2 1090.10   23.25
   1   6  -5 2223.96   38.89
  -1  -6   5 2170.58   37.52
  -1  -6   8  234.69   11.54
   1   6  -8  247.92   11.92
  -1  -6  11  991.01   25.20
   7  -1  11  965.95   16.96
   1   6 -11  947.14   25.56
   7  -1  14  130.24    5.88
  -1  -6  14  127.49    9.99
  -1  -6  17  598.56   21.60
   7  -1  17  604.63   14.37
   7  -1  20  557.09   15.27
   6  -7 -20  588.84   21.75
  -1  -6  20  568.12   22.17
   1   6 -20  578.61   22.64
  -7   1 -20  586.52   17.09
   1   6 -23  477.75   21.79
  -7   1 -23  486.35   16.79
   6  -7 -23  507.33   21.03
  -1  -6  23  480.63   21.73
   7  -1  23  495.98   15.72
  -1  -6  26  203.87   15.48
  -7   1 -26  211.13   11.87
   7  -1  26  202.74   10.94
   6  -7 -26  185.42   13.45
  -1  -6  29   33.40    9.99
   7  -1  29   20.72    5.56
   7  -1  32  112.52    9.81
  -7   1 -32  126.08   10.94
  -1  -6  32  135.99   14.81
  -7   1 -35  183.93   13.99
   7  -1  35  184.52   13.10
  -1  -6  35  195.09   17.20
   7  -1  38   89.06   10.67
  -1  -6  38   85.88   13.52
   7  -1  41   31.30    7.81
  -1  -6  41   31.92   11.38
  -7   0  41    6.22    8.52
   7  -7  41   11.22    8.63
   7  -7  38  156.29   15.62
  -7   0  38  162.54   17.50
   0  -7 -35  108.39   10.64
   7  -7  35  105.47   12.46
  -7   0  35   96.70   13.71
  -7   0  32   30.19    9.68
   0  -7 -32   30.23    6.49
   7  -7  32   28.68    8.65
   0  -7 -29    8.36    4.48
  -7   0  29   -4.15    8.25
   7  -7  29   17.23    7.55
  -7   7 -29   17.41    6.92
  -7   7 -26   26.90    7.80
  -7   0  26   23.30    8.13
   7  -7  26   26.78    7.42
   0  -7 -23  383.95   15.08
   7  -7  23  423.93   19.04
  -7   7 -23  393.70   19.80
   7   0 -23  382.73   19.08
  -7   0  23  400.14   20.07
   7  -7  20  220.11   13.59
   0  -7 -20  212.22   10.77
  -7   0  20  212.15   14.45
   7   0 -20  220.12   14.05
  -7   0  17  111.04   10.01
   0  -7 -17  135.57    8.32
   7  -7  17  129.34   10.67
   7  -7  14   92.53    9.13
   7   0 -14   88.84    8.23
  -7   0  14   87.02    8.84
   7  -7  11  619.69   20.98
   7   0 -11  655.92   20.10
  -7   0  11  643.50   20.05
   7  -7   8  759.37   23.32
  -7   0   8  775.54   20.71
   7   0  -8  783.93   20.74
  -7   0   5 1112.89   23.95
   7   0  -5 1166.30   24.16
   0  -7  -2 1418.09   28.02
   7   0  -2 1391.68   25.33
   7   0   1  559.49   13.14
   0  -7   1  551.05   16.61
   0  -7   4  255.08   11.72
   7   0   4  266.38    7.73
   0   7  -4  289.20   13.01
   0  -7   7  977.74   24.47
   0   7  -7  980.47   25.62
   0  -7  10 1551.77   32.56
   0   7 -10 1522.33   33.47
   7   0  13  844.23   13.72
   0  -7  13  818.20   24.36
   7   0  16   63.14    3.94
   0  -7  16   69.49    8.92
  -7   0 -19   95.86    6.34
   0  -7  19  101.46   10.77
   7   0  19  106.02    5.83
   0   7 -19   92.47    9.90
   7  -7 -19  105.58   10.03
   0   7 -22  318.28   18.04
   0  -7  22  313.42   17.46
   7   0  22  346.75   11.81
  -7   0 -22  347.25   12.75
   7  -7 -22  354.54   17.79
  -7   0 -25  544.25   17.67
   0  -7  25  566.57   24.46
   7  -7 -25  582.50   23.68
   7   0  25  563.55   16.99
  -7   0 -28  261.02   13.25
   0  -7  28  233.00   16.80
   7   0  28  231.56   11.88
   7   0  31   -0.98    4.60
   0  -7  31   11.53    7.78
   7   0  34   -2.44    4.99
  -7   0 -34   -6.74    5.02
   7   0  37   77.92    9.61
   0  -7  37   92.32   13.62
   7   0  40   51.46    8.76
   0  -7  40   97.34   14.42
   0  -7  43   34.19   11.97
   1  -8  42   -4.46   10.12
   1  -8  39    3.60    9.13
   1  -8  36    7.21    9.15
   1  -8  33   67.10   12.01
   1  -8  30    8.53    7.64
   7   1  30   10.89    4.71
  -7  -1 -30   23.07    5.24
   1  -8  27   39.03    9.78
   7   1  27   39.81    5.47
  -7  -1 -27   40.30    5.57
  -7  -1 -24   62.37    5.78
   1  -8  24   59.18    9.26
   7   1  24   53.48    5.29
   7   1  21  154.83    7.11
   1  -8  21  150.16   12.77
  -1   8 -21  189.72   14.06
  -7  -1 -21  157.67    7.61
   8  -7 -21  159.44   12.48
   1  -8  18 1004.61   29.92
   7   1  18  997.83   17.34
   8  -7 -18 1023.75   30.22
  -1   8 -18 1017.54   30.98
   8  -7 -15  561.09   20.97
   1  -8  15  516.19   20.15
   1  -8  12  706.92   23.00
   1  -8   9  209.01   12.53
  -1   8  -9  195.87   12.47
   1  -8   6 1230.92   29.43
   7   1   6 1269.37   17.55
   7   1   3  118.68    5.07
   1  -8   3  113.79    9.13
   1  -8   0 2007.43   37.69
   7   1   0 1973.13   30.63
  -7  -1   3 1367.51   26.12
   7   1  -3 1394.95   26.01
   7   1  -6   36.56    4.92
  -7  -1   6   38.73    5.28
   7   1  -9  349.97   14.12
   8  -7   9  352.27   16.20
  -7  -1   9  334.81   13.95
   8  -7  12  175.71   11.95
  -7  -1  12  186.24   11.29
   7   1 -12  178.08   10.89
   7   1 -15 1367.07   33.16
   8  -7  15 1377.89   33.09
  -7  -1  15 1351.32   33.13
   8  -7  18  452.65   18.74
   1  -8 -18  468.81   16.26
  -7  -1  18  448.00   19.34
   7   1 -18  484.34   20.05
   8  -7  21    4.97    5.75
   7   1 -21    3.52    4.78
   1  -8 -21    3.80    3.75
  -7  -1  21    1.02    6.56
  -8   7 -21   -1.68    4.80
   8  -7  24   10.07    6.52
  -8   7 -24    5.18    5.38
  -7  -1  24   10.56    7.70
   1  -8 -27  483.34   19.16
   8  -7  27  468.31   21.19
  -7  -1  27  476.97   23.62
  -8   7 -27  463.79   22.67
   8  -7  30  181.76   14.25
  -7  -1  30  195.46   16.94
   1  -8 -30  194.99   13.02
   8  -7  33   41.73    9.09
  -7  -1  33   50.62   10.76
   1  -8 -33   50.46    7.77
  -7  -1  36   -1.21    9.03
   8  -7  36  -14.51    7.73
   8  -7  39   -3.15    8.03
  -7  -1  39    1.81    8.91
   8  -7  42   14.31    8.51
  -7  -1  42   16.79   10.82
   2  -8  43   67.07   13.76
   2  -8  40  103.91   15.38
   2  -8  37   54.01   11.74
   2  -8  34    0.20    7.25
   2  -8  31   -9.10    8.61
  -6  -2 -31    6.32    4.28
  -6  -2 -28   16.14    4.54
   2  -8  28    8.91    6.81
  -6  -2 -25   78.30    6.36
   2  -8  25   59.95    9.69
   8  -6 -22   15.49    5.63
   2  -8  22   21.51    7.26
  -2   8 -22    8.98    5.31
  -6  -2 -22    7.44    2.99
   8  -6 -19    5.81    5.05
   2  -8  19   -0.24    5.74
  -6  -2 -19    2.68    1.99
  -2   8 -19   -1.62    4.59
   2  -8  16   19.03    5.97
   2  -8  13 1866.82   39.75
   2  -8  10 2675.51   48.98
  -2   8  -7  585.66   20.79
   2  -8   7  614.99   20.13
   6   2   4 3131.40   38.21
   2  -8   4 3323.74   53.21
   6   2   1   40.47    3.57
   2  -8   1   29.48    6.01
  -6  -2  -1   40.25    3.60
   6   2  -2  716.54   16.28
  -6  -2   2  697.38   16.16
   6   2  -5  321.16   11.64
  -6  -2   5  319.95   11.69
   6   2  -8 1146.19   25.77
  -6  -2   8 1141.94   25.56
  -6  -2  11  289.80   13.44
   8  -6  11  293.05   14.42
   6   2 -11  326.37   13.99
   6   2 -14  334.87   15.14
  -6  -2  14  314.76   14.82
   8  -6  14  341.56   15.12
   6   2 -17  807.18   25.36
   8  -6  17  787.56   23.80
  -6  -2  17  789.65   25.21
   8  -6  20  255.74   13.75
   2  -8 -20  273.68   13.28
   6   2 -20  256.53   15.12
  -6  -2  20  258.73   15.63
  -6  -2  23  758.65   27.16
   6   2 -23  750.60   26.94
   8  -6  23  733.18   24.20
   8  -6  26  108.70   10.42
   2  -8 -26  120.87   10.03
  -8   6 -26  108.72   11.28
  -6  -2  26  114.92   12.29
   2  -8 -29   36.62    7.24
   8  -6  29   46.08    8.49
  -8   6 -29   43.89    8.51
  -6  -2  29   52.65   10.95
   8  -6  32   27.47    7.68
  -6  -2  32   40.78    9.32
   2  -8 -32   33.97    7.06
   8  -6  35   26.67    7.96
  -6  -2  35   25.73   10.03
  -6  -2  38   69.93   13.41
   8  -6  38   50.20    9.67
  -6  -2  41    4.81    8.73
   8  -6  41   12.43    7.33
   3  -8  41   40.40   12.10
   3  -8  38  217.18   18.84
   3  -8  35  177.43   16.93
  -5  -3 -35  178.50   12.39
   3  -8  32  201.01   17.11
  -5  -3 -29   35.76    5.42
   3  -8  29   37.99    9.50
  -5  -3 -26   37.23    4.97
   3  -8  26   38.53    9.03
  -5  -3 -23  126.43    7.16
   8  -5 -23  127.84   11.48
  -3   8 -23  156.12   13.07
   3  -8  23  140.90   12.69
   3  -8  20  448.57   20.11
  -3   8 -20  460.63   20.94
  -5  -3 -20  478.04   12.31
   8  -5 -20  505.88   20.80
  -3   8 -17  750.20   25.51
   3  -8  17  734.33   24.33
  -5  -3 -17  669.81   12.98
   3  -8  14  237.65   13.46
   3  -8  11 1073.78   28.27
   3  -8   8  606.99   20.43
   5   3   5 2851.73   35.45
  -5  -3  -5 2965.04   34.49
   3  -8   2 4214.81   64.67
   5   3   2 4125.69   51.35
  -5  -3  -2 4166.48   50.71
   5   3  -1  383.45   10.92
  -5  -3   1  368.22   10.67
   5   3  -4  224.24    9.23
  -5  -3   4  222.38    9.21
   5   3  -7  968.91   22.61
  -5  -3   7  957.03   22.32
  -5  -3  10  661.86   19.56
   5   3 -10  682.71   19.86
   8  -5  10  660.91   20.25
   5   3 -13  303.06   14.07
   8  -5  13  308.20   13.34
  -5  -3  13  294.40   14.04
   8  -5  16  278.50   12.94
   5   3 -16  286.17   14.46
  -5  -3  16  254.28   13.92
   8  -5  19   28.94    5.77
   5   3 -19   17.88    5.35
  -5  -3  19   33.40    7.30
  -5  -3  22  210.28   14.56
   5   3 -22  210.69   14.06
   8  -5  22  217.24   12.50
   3  -8 -25  213.25   13.05
   8  -5  25  191.88   12.64
  -5  -3  25  174.78   14.44
  -8   5 -28   97.79   10.79
   3  -8 -28   95.32    9.70
  -5  -3  28   78.12   11.65
   8  -5  28   93.49    9.58
  -5  -3  31  303.02   19.94
  -8   5 -31  276.03   17.97
   3  -8 -31  327.72   17.70
   8  -5  31  297.67   17.20
   8  -5  34   -0.90    5.87
  -5  -3  34   12.53    8.11
   8  -5  37   35.76    8.57
  -5  -3  37   36.37   11.07
  -5  -3  40   64.13   13.07
   8  -5  40   57.44   10.42
  -5  -3  43   67.14   13.97
   8  -5  43   59.92   11.06
   4  -8  42    3.61    8.48
   4  -8  39   14.28   10.05
   4  -8  36   61.85   11.66
   4  -8  33  177.41   16.24
   4  -8  30  236.69   17.44
  -4  -4 -30  227.41   12.11
  -4  -4 -27   55.27    5.95
   4  -8  27   46.64    9.41
   4  -8  24   91.38   10.71
  -4  -4 -24  102.41    6.96
  -4   8 -24   93.54   10.94
   8  -4 -21   28.13    6.33
  -4   8 -21   26.34    6.45
   4  -8  21   26.73    7.25
  -4  -4 -21   38.34    4.15
  -4   8 -18  779.83   26.74
  -4  -4 -18  794.38   15.57
   4  -8  18  769.53   25.50
  -4  -4 -15  166.21    5.40
   4  -8  15  174.02   11.98
   4  -8  12   55.20    8.55
   8  -4  -9   22.71    4.65
   4  -8   9   19.79    5.86
   4  -8   6  538.71   19.29
  -4  -4  -6  507.70    9.12
  -4  -4  -3 3960.61   48.72
   4  -8   3 3970.65   63.80
   4   4   3 4082.54   50.59
  -4  -4   0 2149.50   31.66
   4   4   0 2118.97   32.45
  -4  -4   3 2119.73   33.56
   4   4  -3 2045.84   33.83
   4   4  -6   48.18    5.43
  -4  -4   6   53.71    5.73
   4   4  -9   62.18    6.33
  -4  -4   9   57.78    6.43
   8  -4  12   80.94    6.78
   4   4 -12   90.17    7.81
  -4  -4  12   94.57    8.34
   8  -4  15 1021.76   23.63
  -4  -4  15  955.15   26.70
  -4  -4  18 1035.80   29.27
   8  -4  18 1064.34   24.78
  -4  -4  21   98.31   10.77
   4   4 -21   85.63    9.43
   4  -8 -21   75.44    7.96
  -8   4 -21   66.43    7.59
   8  -4  21   73.60    7.50
  -4  -4  24    8.25    7.25
   8  -4  24    2.85    4.95
   4  -8 -24    3.95    4.51
   8  -4  27   89.80    9.16
  -4  -4  27  106.68   12.36
   4  -8 -27   88.14    9.64
   8  -4  30  207.65   13.85
  -4  -4  30  200.83   16.59
  -8   4 -30  211.46   14.71
  -4  -4  33   74.03   11.92
  -8   4 -33   69.25    9.91
   8  -4  33   86.06   10.12
   8  -4  36   84.01   10.58
  -4  -4  36   65.54   11.80
  -4  -4  39   -0.22    8.81
   8  -4  39   -1.54    7.01
  -4  -4  42   -2.85    9.32
   8  -4  42    4.46    6.71
   5  -8  43   12.74    9.23
   5  -8  40   70.08   12.30
   5  -8  37   50.76   10.80
  -3  -5 -34   -1.85    4.23
   5  -8  34   -5.35    7.87
   5  -8  31   59.51   10.53
   5  -8  28   96.01   11.66
  -3  -5 -28  126.55    9.02
  -5   8 -25 1056.05   34.33
  -3  -5 -25  987.25   23.40
   5  -8  25  977.92   31.78
  -3  -5 -22  137.03    7.66
   8  -3 -22  133.70   11.57
  -5   8 -22  156.96   13.04
   5  -8  22  128.68   11.85
   8  -3 -19    7.86    5.12
  -5   8 -19    3.01    5.01
  -3  -5 -19    6.84    2.90
   5  -8  19    8.92    5.96
   5  -8  16  330.79   16.57
  -3  -5 -16  328.78    9.39
  -3  -5 -13 1386.88   21.32
   5  -8  13 1501.80   34.56
   8  -3 -10  721.85   21.45
   5  -8  10  756.83   23.44
  -3  -5  -7 1268.14   19.97
   8  -3  -7 1318.78   28.72
   5  -8   7 1254.07   31.28
  -3  -5  -4   41.56    3.60
   3   5   1 1253.05   23.43
  -3  -5  -1 1262.01   22.19
   3   5  -2 1607.19   29.21
  -3  -5   2 1674.65   28.52
  -3  -5   5  281.05   11.31
   3   5  -5  265.75   11.36
  -3  -5   8 1026.18   24.15
   3   5  -8 1014.45   24.69
   8  -3  11   56.48    5.61
   3   5 -11   58.85    6.64
  -3  -5  11   55.67    7.20
  -3  -5  14  160.20   11.14
   8  -3  14  152.03    8.25
   3   5 -14  135.55   10.14
   8  -3  17  339.25   12.40
  -3  -5  17  312.81   15.99
  -3  -5  20  297.12   16.44
   8  -3  20  286.97   12.23
   5  -8 -20  302.98   15.47
   3   5 -20  277.39   15.75
   8  -3  23  189.54   10.60
  -8   3 -23  208.36   12.24
   3   5 -23  212.71   14.53
   5  -8 -23  221.12   13.81
  -3  -5  23  216.14   15.28
   5  -8 -26  160.86   12.54
   8  -3  26  151.88   10.29
  -3  -5  26  160.72   14.09
  -3  -5  29  -10.86    8.42
   8  -3  29    3.78    5.03
   8  -3  32   29.49    6.54
  -3  -5  32   36.73    9.24
  -8   3 -32   34.83    7.36
  -8   3 -35   23.42    6.87
   8  -3  35   32.58    7.29
  -3  -5  35   29.41   10.58
  -3  -5  38  126.67   16.01
   8  -3  38  122.25   12.25
  -3  -5  41   21.87   10.31
   8  -3  41   30.38    8.40
   6  -8  41   -4.41    8.97
   6  -8  38   50.45   11.33
   6  -8  35   57.22   11.14
  -2  -6 -35   48.65    7.55
   6  -8  32   54.92   10.49
  -2  -6 -32   45.35    6.77
   6  -8  29   96.28   12.00
  -2  -6 -26  218.67   11.23
   6  -8  26  213.57   15.40
  -8   2  26  207.42   16.44
  -6   8 -26  226.89   16.56
  -6   8 -23  678.62   26.59
  -2  -6 -23  665.49   18.46
  -8   2  23  670.68   26.19
   8  -2 -23  687.27   25.86
   6  -8  23  688.02   25.53
  -8   2  20  802.19   27.71
  -6   8 -20  859.08   29.15
   6  -8  20  824.16   26.99
  -2  -6 -20  850.03   19.60
   8  -2 -20  861.88   27.88
  -2  -6 -17 1004.69   20.33
   6  -8  17 1041.76   29.81
  -2  -6 -14  517.53   12.93
   6  -8  14  523.31   20.17
   6  -8  11   17.47    5.98
   8  -2 -11   16.09    4.32
   6  -8   8  643.96   22.29
   8  -2  -8  696.39   20.10
  -2  -6  -5  676.19   15.56
   8  -2  -5  694.71   18.98
   8  -2  -2  289.76   11.13
  -2  -6  -2  293.67   10.25
  -2  -6   1   10.96    3.41
   2   6  -1   19.04    3.89
  -2  -6   4  267.85   11.24
   2   6  -4  267.85   11.47
   2   6  -7 1139.15   26.71
  -2  -6   7 1146.37   26.07
   2   6 -10 1497.96   32.79
   8  -2  10 1412.05   25.27
  -2  -6  10 1436.81   31.28
  -2  -6  13 1931.78   39.53
   2   6 -13 1977.84   40.95
   8  -2  13 1986.27   31.22
  -2  -6  16   70.44    8.83
   8  -2  16   66.94    5.24
   2   6 -19   -4.96    5.38
  -2  -6  19    6.35    6.26
   8  -2  19    0.45    2.91
   6  -8 -19    0.37    4.27
  -2  -6  22   20.78    7.73
   2   6 -22   29.58    6.74
   8  -2  22   25.15    4.52
  -8   2 -22   23.84    4.81
   6  -8 -22   29.94    6.28
   8  -2  25  231.68   11.62
  -2  -6  25  232.11   16.46
  -8   2 -25  233.13   12.82
  -2  -6  28   34.96    9.60
   8  -2  28   56.10    7.06
  -2  -6  31   42.46    9.60
   8  -2  31   47.17    7.29
  -8   2 -31   45.44    7.59
  -8   2 -34    0.12    5.15
  -2  -6  34   17.15    9.38
   8  -2  34   20.69    6.48
   8  -2  37   55.82    8.59
  -2  -6  37   56.11   11.83
  -2  -6  40   48.05   12.57
   8  -2  40   56.77    9.09
  -2  -6  43   63.40   13.15
   7  -8  42   15.94    9.07
   7  -8  39   -5.00    7.70
   7  -8  36   39.75   10.12
  -8   1  36   38.81   11.31
  -1  -7 -33   82.53    8.92
  -8   1  33   72.03   12.42
   7  -8  33   86.61   12.01
   7  -8  30  646.89   27.08
  -1  -7 -30  646.06   21.87
  -8   1  30  629.82   28.74
  -7   8 -27  127.60   13.04
   7  -8  27  124.73   12.21
  -8   1  27  101.01   12.44
  -1  -7 -24   47.20    5.86
  -7   8 -24   51.30    8.99
   7  -8  24   34.72    8.18
  -8   1  24   42.14    9.40
  -7   8 -21  150.27   12.94
  -8   1  21  164.14   13.68
  -1  -7 -21  152.38    8.76
   7  -8  21  184.87   13.30
   8  -1 -21  158.28   12.45
  -1  -7 -18  695.29   17.95
   7  -8  18  707.71   24.30
  -8   1  18  659.92   24.09
   8  -1 -18  663.05   23.65
   7  -8  15 1116.62   30.42
  -8   1  15 1115.86   30.17
   8  -1 -15 1154.68   30.36
   7  -8  12  263.94   14.70
   8  -1 -12  294.66   13.94
  -8   1  12  276.99   14.08
   8  -1  -9  130.59    9.06
   7  -8   9  119.77   10.90
   8  -1  -6  160.26    9.12
  -1  -7  -3 2810.22   43.31
   8  -1  -3 2782.69   43.62
  -1  -7   0 1308.59   26.34
   8  -1   0 1279.28   24.35
  -1  -7   3  479.06   15.85
   1   7  -3  487.27   16.72
   1   7  -6    7.02    3.83
  -1  -7   6    8.37    4.19
   8  -1   9  605.47   13.57
   1   7  -9  626.29   20.39
  -1  -7   9  672.66   20.56
   1   7 -12 1020.29   28.01
  -1  -7  12 1017.83   27.21
   8  -1  12 1019.88   17.75
  -1  -7  15  571.44   20.86
   8  -1  15  559.95   12.60
   8  -1  18  621.38   14.56
  -1  -7  18  585.66   22.33
   1   7 -18  616.41   23.38
   7  -8 -18  628.00   23.00
  -1  -7  21  149.13   12.89
   1   7 -21  167.02   13.16
   7  -8 -21  179.75   12.88
   8  -1  21  168.49    8.26
   8  -1  24    1.65    3.59
  -1  -7  24   15.08    7.72
  -8   1 -24    0.50    3.88
   7  -8 -24    2.88    4.70
  -8   1 -27   16.51    4.84
  -1  -7  27    8.55    7.63
   8  -1  27   16.46    4.62
   8  -1  30   65.93    7.67
  -1  -7  30   50.33   10.28
   8  -1  33   97.88    9.23
  -1  -7  33   82.05   13.01
  -8   1 -33   96.68    9.79
  -1  -7  36   23.36   10.09
   8  -1  36   42.46    7.71
   8  -1  39   -8.52    6.43
  -1  -7  39    2.91    8.17
  -1  -7  42   21.68   10.43
  -8   0  40   12.29    9.49
   8  -8  40   34.60   10.79
   8  -8  37   62.89   11.36
  -8   0  37   61.48   12.97
  -8   0  34   49.74   12.10
   0  -8 -34   41.38    7.13
   8  -8  34   40.73    9.56
   0  -8 -31  185.03   12.53
   8  -8  31  197.55   15.95
  -8   0  31  174.97   16.77
  -8   0  28  127.34   14.11
   8  -8  28  147.99   13.26
  -8   0  25  107.92   12.30
   8  -8  25  106.90   11.31
  -8   8 -25  100.93   11.26
  -8   8 -22  408.84   20.81
  -8   0  22  396.69   20.13
   0  -8 -22  404.26   15.45
   8  -8  22  414.59   19.47
   8   0 -22  410.21   20.00
   8   0 -19   30.48    6.43
   8  -8  19   17.74    6.67
   0  -8 -19   21.49    4.48
  -8   0  19   28.65    7.04
   8  -8  16  302.67   15.98
  -8   0  16  297.09   15.61
   8   0 -16  326.99   16.01
  -8   0  13  517.48   19.42
   8   0 -13  507.00   18.95
   8  -8  13  489.89   19.85
  -8   0  10 2455.26   44.65
   8  -8  10 2449.18   48.52
   8   0 -10 2394.82   44.07
   8   0  -7 2194.48   39.68
  -8   0   7 2223.11   39.65
   0  -8  -4  510.62   16.97
   8   0  -4  508.20   15.38
   0  -8  -1   23.95    5.25
   8   0  -1   33.23    4.22
   0  -8   2 1027.99   24.83
   8   0   2 1029.20   19.56
   0  -8   5 2114.91   39.66
   8   0   5 2053.44   29.50
   0   8  -5 2150.30   41.92
   0   8  -8  427.38   17.59
   0  -8   8  411.37   16.48
   0  -8  11  323.56   15.37
   0   8 -11  314.28   15.42
   8   0  14   34.11    2.47
   0  -8  14   39.30    7.83
   8  -8 -17  943.14   28.72
   0  -8  17  953.14   28.90
   0   8 -17  970.67   29.87
   8   0  17  891.83   15.87
   0  -8  20  856.25   28.76
   8   0  20  864.68   17.41
   8  -8 -20  929.68   29.38
   0   8 -20  875.33   29.60
   0  -8  23 1038.54   33.20
   8   0  23 1126.29   22.52
   8  -8 -23 1136.62   34.05
   0  -8  26  239.99   17.22
   8   0  26  242.02   10.73
  -8   0 -26  219.56   11.59
   0  -8  29  145.09   14.89
  -8   0 -29  139.00    9.96
   8   0  29  144.23    9.49
   0  -8  32    5.81    8.40
   8   0  32    5.55    4.41
   0  -8  35   41.01   10.95
   8   0  35   40.51    6.87
   0  -8  38  102.49   15.22
   0  -8  41   25.56   11.31
   1  -9  40   34.97   11.19
   1  -9  37   81.10   13.52
   1  -9  34   -3.45    8.05
   1  -9  31   62.91   11.55
  -8  -1 -31   57.58    6.96
  -8  -1 -28  291.66   12.77
   1  -9  28  312.46   20.16
   8   1  25  371.00   12.04
   1  -9  25  357.38   20.12
   1  -9  22  199.34   15.37
   8   1  22  175.37    7.06
   9  -8 -22  188.41   13.94
   9  -8 -19  107.76   10.64
  -1   9 -19   95.34   10.20
   1  -9  19   88.27   10.90
  -1   9 -16  120.41   10.85
   1  -9  16  119.48   10.79
   1  -9  13  775.64   25.12
  -1   9 -10 1109.39   30.67
   1  -9  10  978.32   27.99
   1  -9   7   16.20    5.89
   8   1   7   18.22    1.81
  -1   9  -7   23.78    6.16
   1  -9   4   51.88    7.25
   8   1   4   63.42    3.92
   8   1   1  716.39   15.86
   1  -9   1  695.97   21.38
   1  -9  -2 1194.88   28.90
   8   1  -2 1191.95   24.06
   8   1  -5  616.83   17.92
  -8  -1   5  612.61   17.83
  -8  -1   8 1028.93   25.63
   8   1  -8 1048.14   25.72
   8   1 -11  939.75   25.59
  -8  -1  11  880.69   25.23
   9  -8  11  928.41   27.89
   8   1 -14   25.47    5.51
   9  -8  14   23.45    6.64
  -8  -1  14   15.84    6.21
   8   1 -17  196.84   13.17
  -8  -1  17  209.94   13.84
   9  -8  17  222.78   13.95
   8   1 -20  298.60   16.66
   1  -9 -20  310.74   13.89
   9  -8  20  306.15   16.72
  -8  -1  20  287.68   16.89
  -8  -1  23  261.23   17.14
   9  -8  23  265.38   15.89
   9  -8  26   11.78    7.24
  -8  -1  26    7.65    8.05
   1  -9 -26   12.07    4.76
   1  -9 -29   -0.56    4.27
  -8  -1  29   -3.80    8.50
   9  -8  29    0.54    6.03
   9  -8  32   24.92    8.43
   1  -9 -32   34.41    6.97
  -8  -1  32   25.05    9.78
  -8  -1  35  130.86   15.98
   9  -8  35  120.93   13.23
   9  -8  38   69.40   11.44
  -8  -1  38   91.63   14.98
  -8  -1  41   15.53    9.75
   9  -8  41    3.75    8.67
   2  -9  41   38.04   11.36
   2  -9  38  135.36   15.98
   2  -9  35  175.87   17.27
   2  -9  32  165.73   16.55
  -7  -2 -32  173.62   10.87
   2  -9  29    9.75    7.88
  -7  -2 -29    7.88    4.12
   2  -9  26  165.28   14.82
  -7  -2 -26  170.95    8.83
  -7  -2 -23  403.19   12.20
   2  -9  23  419.31   21.00
   9  -7 -20   45.05    7.62
  -2   9 -20   45.95    8.36
   2  -9  20   42.60    8.16
   9  -7 -17  356.31   17.79
   2  -9  17  355.71   18.04
  -2   9 -17  396.74   19.62
   2  -9  14   43.87    7.84
   2  -9  11 1197.49   31.35
   2  -9   8   76.82    8.46
  -2   9  -8   80.97    8.56
   2  -9   5 3149.99   54.08
   7   2   5 3100.78   37.85
   2  -9   2  581.27   19.88
   7   2   2  577.49   12.84
   2  -9  -1   10.80    5.02
   7   2  -1   13.55    3.12
  -7  -2   1   11.21    3.40
  -7  -2   4  248.24   10.42
   7   2  -4  244.61   10.28
   7   2  -7  555.87   17.28
  -7  -2   7  583.62   17.89
   9  -7  10 2041.38   42.20
   7   2 -10 2038.71   39.37
  -7  -2  10 2039.40   39.18
   7   2 -13   63.94    7.37
   9  -7  13   56.85    7.81
  -7  -2  13   50.82    7.38
   7   2 -16  588.83   21.75
   9  -7  16  585.96   20.91
  -7  -2  16  550.13   20.98
  -7  -2  19   16.95    6.58
   9  -7  19   18.13    6.14
   7   2 -19   15.17    5.22
  -7  -2  22  385.10   19.99
   9  -7  22  408.75   18.53
  -7  -2  25  352.75   20.21
   9  -7  25  334.15   17.24
   2  -9 -25  336.60   16.15
   2  -9 -28  501.74   20.50
  -9   7 -28  482.61   23.64
   9  -7  28  514.78   22.12
  -7  -2  28  504.44   25.01
   2  -9 -31   12.08    5.45
  -7  -2  31   12.56    8.42
   9  -7  31   20.02    7.48
   9  -7  34    4.53    6.51
  -7  -2  34    3.61    8.96
  -7  -2  37   49.19   11.56
   9  -7  37   49.11   10.20
  -7  -2  40   26.72   11.65
   9  -7  40   38.52   10.23
   3  -9  42   12.54    9.23
   3  -9  39    2.50    8.60
   3  -9  36   55.06   12.03
   3  -9  33  435.80   24.42
  -6  -3 -33  425.88   17.09
   3  -9  30  311.92   20.85
  -6  -3 -30  316.99   13.48
  -6  -3 -27   86.81    6.63
   3  -9  27   81.15   11.67
   3  -9  24   27.82    8.59
  -6  -3 -24   26.60    3.91
   3  -9  21  149.89   13.18
  -6  -3 -21  147.65    6.32
   9  -6 -21  151.84   12.36
  -3   9 -21  171.12   13.88
   9  -6 -18  336.63   17.40
   3  -9  18  306.68   17.20
  -3   9 -18  348.31   18.37
   3  -9  15  444.53   19.46
   3  -9  12  724.53   24.49
   3  -9   9  146.56   10.90
   3  -9   6   58.37    8.05
   3  -9   3  138.78   10.51
  -6  -3  -3  139.19    5.48
   6   3   3  143.39    5.78
  -6  -3   0  180.14    7.42
   6   3   0  181.82    7.49
  -6  -3   3 2151.64   34.83
   6   3  -3 2147.22   35.20
   6   3  -6  296.03   11.97
  -6  -3   6  259.23   11.44
  -6  -3   9   72.38    7.52
   6   3  -9   74.38    6.85
   9  -6  12  393.49   16.30
   6   3 -12  413.89   16.42
  -6  -3  12  393.56   16.18
   9  -6  15 1937.20   39.22
   6   3 -15 1915.62   41.04
  -6  -3  15 1908.33   40.73
   9  -6  18  532.29   19.36
   6   3 -18  522.01   20.95
  -6  -3  18  487.86   20.34
  -6  -3  21   52.66    8.84
   6   3 -21   62.53    8.40
   9  -6  21   63.70    8.18
   9  -6  24   18.40    6.34
  -6  -3  24   12.12    6.48
   3  -9 -24   19.01    5.42
  -9   6 -27   79.04   10.04
  -6  -3  27   70.35   11.18
   3  -9 -27   83.86    9.12
   9  -6  27   80.15    9.52
   9  -6  30  295.54   16.77
   3  -9 -30  311.30   17.17
  -6  -3  30  293.68   19.87
  -9   6 -30  307.11   18.82
   9  -6  33   22.60    7.22
  -6  -3  33   23.43    9.76
   9  -6  36    6.08    6.44
  -6  -3  36   11.99    9.74
  -6  -3  39   12.84    9.99
   9  -6  39    3.41    6.63
  -6  -3  42   48.86   12.29
   9  -6  42   17.26    7.89
   4  -9  40   63.95   12.45
   4  -9  37   23.93   10.38
   4  -9  34   24.57   10.04
   4  -9  31    9.49    7.71
  -5  -4 -31   16.07    4.84
  -5  -4 -28  133.84    8.49
   4  -9  28  123.25   13.63
   4  -9  25  208.78   15.66
  -5  -4 -25  199.64    9.23
  -4   9 -22  158.23   13.45
  -5  -4 -22  143.33    6.83
   4  -9  22  155.11   13.46
   9  -5 -22  163.95   12.85
  -5  -4 -19    9.17    2.08
  -4   9 -19   -2.97    5.94
   4  -9  19    2.51    6.50
   9  -5 -19   12.97    5.63
   4  -9  16   46.74    8.18
  -4   9 -16   51.11    7.63
  -5  -4 -16   40.06    2.36
   4  -9  13  766.55   25.28
   4  -9  10  484.77   19.54
   4  -9   7  796.49   25.13
   5   4   4  665.07   13.57
   4  -9   4  652.41   22.27
  -5  -4  -4  673.46   12.57
  -5  -4  -1  444.90   11.39
   5   4   1  437.43   12.01
  -5  -4   2  582.74   15.06
   5   4  -2  595.74   15.48
   5   4  -5  609.36   17.25
  -5  -4   5  604.45   16.91
   5   4  -8  492.28   16.48
  -5  -4   8  505.40   16.49
   5   4 -11  260.57   12.89
   9  -5  11  260.65   12.69
  -5  -4  11  272.20   13.18
   5   4 -14  110.41    9.60
  -5  -4  14   98.81    9.40
   9  -5  14  102.52    8.58
   5   4 -17  256.36   14.56
   9  -5  17  256.80   12.88
  -5  -4  17  248.55   14.75
   5   4 -20  515.74   21.64
   9  -5  20  527.88   18.56
  -5  -4  20  493.03   21.20
  -5  -4  23  419.93   20.60
   9  -5  23  438.89   17.70
   4  -9 -26   33.62    6.83
   9  -5  26   34.86    6.55
  -5  -4  26   30.80    7.94
  -5  -4  29   45.18    9.55
   9  -5  29   30.07    7.04
  -9   5 -29   31.87    7.29
   4  -9 -29   44.03    8.06
  -9   5 -32   25.30    7.71
   9  -5  32   30.78    7.36
  -5  -4  32   30.07    9.79
   9  -5  35  227.49   16.01
  -5  -4  35  241.90   19.84
   9  -5  38   65.82   10.48
  -5  -4  38  117.88   15.81
  -5  -4  41   24.75   10.97
   9  -5  41   22.73    8.08
   5  -9  41   34.17   11.26
   5  -9  38  103.37   14.65
   5  -9  35  117.67   14.45
   5  -9  32  161.51   15.63
   5  -9  29   23.64    8.40
  -4  -5 -29   19.46    4.88
   5  -9  26    6.08    7.39
  -4  -5 -26   12.77    3.80
  -5   9 -23  309.13   18.95
  -4  -5 -23  316.07   10.98
   5  -9  23  288.52   17.37
  -5   9 -20  269.97   16.83
  -4  -5 -20  261.16    8.81
   5  -9  20  243.09   15.45
   9  -4 -20  269.53   15.75
  -4  -5 -17  255.25    7.62
   5  -9  17  250.47   15.52
   9  -4 -17  265.87   15.02
  -5   9 -17  275.04   16.29
   5  -9  14   41.50    7.61
  -4  -5 -14   36.74    2.57
  -4  -5 -11  241.02    6.23
  -4  -5 -11  237.47    5.78
   5  -9  11  275.10   15.27
   9  -4 -11  291.94   14.26
   5  -9   8  405.31   18.18
   9  -4  -8  389.34   16.02
  -4  -5  -8  389.82    8.40
   5  -9   5 2940.65   53.88
  -4  -5  -5 2961.08   38.03
   4   5   2 3097.28   43.97
  -4  -5  -2 3121.58   42.15
  -4  -5   1 1470.16   26.36
   4   5  -1 1488.40   27.46
  -4  -5   4   19.26    4.03
   4   5  -4   23.18    4.14
  -4  -5   7  986.93   23.66
   4   5  -7  992.55   24.24
  -4  -5  10 1524.77   32.30
   9  -4  10 1482.98   30.50
   4   5 -10 1517.58   33.01
   4   5 -13  408.50   16.85
  -4  -5  13  394.79   16.53
   9  -4  13  400.93   14.22
   9  -4  16  528.35   16.61
  -4  -5  16  530.21   20.22
   4   5 -16  474.31   19.60
   4   5 -19   10.73    5.80
  -4  -5  19    3.08    5.17
   9  -4  19    8.87    4.31
   4   5 -22  341.40   18.55
   9  -4  22  381.35   15.25
   5  -9 -22  405.55   18.38
  -4  -5  22  367.62   19.21
   9  -4  25  258.49   13.43
  -4  -5  25  252.39   17.28
   5  -9 -25  275.22   16.02
  -4  -5  28  259.36   18.17
   9  -4  28  257.83   14.13
  -9   4 -31   97.36   10.89
   9  -4  31  106.59    9.96
  -4  -5  31  120.18   13.84
   9  -4  34    7.44    5.77
  -9   4 -34    5.20    5.03
  -4  -5  34   16.98    8.98
  -4  -5  37   28.11   10.03
   9  -4  37   24.58    7.61
  -4  -5  40   35.99   11.65
   9  -4  40   31.56    7.97
   6  -9  42    5.22    8.98
   6  -9  39    3.71    8.39
   6  -9  36   29.43    9.75
   6  -9  33  171.37   16.70
   6  -9  30  268.54   18.73
  -3  -6 -27  128.26    8.53
   6  -9  27  113.81   12.63
  -6   9 -24    3.26    6.00
   6  -9  24    6.76    7.06
  -3  -6 -24    4.64    3.33
   6  -9  21   32.33    8.30
   9  -3 -21   20.12    6.22
  -3  -6 -21   20.79    3.52
  -6   9 -21   17.90    6.55
  -6   9 -18  465.08   21.74
   6  -9  18  468.84   20.66
   9  -3 -18  450.49   19.63
  -3  -6 -18  448.50   12.05
   6  -9  15  982.16   29.41
   9  -3 -15  929.08   27.60
  -3  -6 -15  985.69   17.94
   9  -3 -12  839.08   24.98
   6  -9  12  865.88   26.87
   6  -9   9  329.79   16.53
   9  -3  -9  373.39   15.66
  -3  -6  -9  373.58   10.39
   6  -9   6  151.46   12.16
   9  -3  -6  190.55   10.57
  -3  -6  -6  183.75    7.23
  -3  -6  -3 1454.85   25.08
   3   6   0 2560.82   40.86
  -3  -6   0 2514.46   38.70
  -3  -6   3 1145.17   24.27
   3   6  -3 1128.91   25.04
  -3  -6   6   16.34    4.68
   3   6  -6   18.88    4.43
   3   6  -9  151.08   10.13
  -3  -6   9  130.30    9.43
   9  -3  12  992.80   21.77
  -3  -6  12  970.42   26.40
   3   6 -12 1029.60   27.87
   9  -3  15 1802.30   31.72
  -3  -6  15 1743.60   38.93
   3   6 -15 1761.46   39.78
   9  -3  18  963.56   21.98
   3   6 -18  944.35   29.43
  -3  -6  18  914.36   28.70
   9  -3  21  286.55   12.11
   6  -9 -21  299.64   16.35
  -3  -6  21  298.79   17.09
   3   6 -21  278.52   16.55
  -3  -6  24    6.92    7.28
   6  -9 -24   10.71    4.79
   9  -3  24    4.27    4.07
  -3  -6  27   45.04    9.83
   9  -3  27   39.55    6.29
  -3  -6  30  147.86   14.96
   9  -3  30  139.21   10.44
   9  -3  33   28.29    6.56
  -9   3 -33   31.73    7.27
  -3  -6  33   30.81    9.63
   9  -3  36   15.66    6.26
  -3  -6  36   15.38    9.98
   9  -3  39    2.55    5.79
  -3  -6  39    6.31    9.10
  -3  -6  42   35.09   12.12
   7  -9  40    3.24    8.45
   7  -9  37   -1.97    7.85
   7  -9  34   10.67    8.39
  -2  -7 -34   15.02    5.51
   7  -9  31   89.71   12.35
   7  -9  28  321.49   19.07
  -2  -7 -28  282.14   13.25
  -2  -7 -25  265.11   11.87
   7  -9  25  252.25   16.91
  -7   9 -25  253.11   17.77
  -7   9 -22  333.74   19.26
   7  -9  22  317.55   17.91
  -2  -7 -22  318.97   12.18
   7  -9  19  215.51   14.89
  -7   9 -19  217.92   15.32
  -2  -7 -19  217.02    9.25
   9  -2 -19  243.65   14.89
   9  -2 -16   23.70    5.70
  -2  -7 -16   25.08    3.62
   7  -9  16   18.55    6.52
   9  -2 -13  402.64   17.11
   7  -9  13  367.97   17.70
   7  -9  10  570.27   22.09
   9  -2 -10  557.62   19.16
   9  -2  -7  106.40    8.37
   7  -9   7  103.72   10.29
  -2  -7  -7  106.77    6.74
   9  -2  -4    7.43    3.59
  -2  -7  -4    2.93    3.48
   9  -2  -1    9.34    3.45
  -2  -7  -1    9.85    3.82
  -2  -7   2  622.37   17.58
   2   7  -2  661.19   19.36
   2   7  -5  702.41   20.69
  -2  -7   5  688.94   19.81
  -2  -7   8  431.58   16.35
   2   7  -8  429.63   16.84
   9  -2  11    7.39    2.97
  -2  -7  11   10.60    5.66
   2   7 -11    2.55    4.34
   9  -2  14  158.52    7.28
  -2  -7  14  138.93   10.97
   2   7 -14  150.42   11.06
   2   7 -17  556.76   22.27
  -2  -7  17  555.69   21.61
   9  -2  17  558.93   14.44
  -2  -7  20  205.03   14.23
   9  -2  20  196.86    9.14
   7  -9 -20  226.86   14.28
   2   7 -20  197.85   14.28
   9  -2  23  174.36    9.32
  -2  -7  23  181.37   14.01
   7  -9 -23  190.43   14.12
  -2  -7  26  119.90   12.89
   9  -2  26  124.82    8.75
   9  -2  29   21.08    5.26
  -2  -7  29   11.45    8.39
  -2  -7  32   25.55    9.33
   9  -2  32   29.99    6.19
  -2  -7  35  148.25   15.57
   9  -2  35  161.58   11.97
   9  -2  38   61.53    8.79
  -2  -7  38   69.10   13.86
  -2  -7  41   23.76   10.81
   8  -9  41   23.84   10.18
   8  -9  38   53.45   11.30
   8  -9  35  207.02   17.39
  -1  -8 -32   89.56    8.83
  -9   1  32   93.97   13.55
   8  -9  32   79.76   11.55
   8  -9  29   20.21    8.44
  -9   1  29   14.81    9.09
  -9   1  26   93.80   11.90
   8  -9  26   76.97   10.62
  -1  -8 -26   92.99    7.92
   8  -9  23  413.25   20.53
  -8   9 -23  412.24   21.91
  -1  -8 -23  405.66   14.89
  -9   1  23  400.26   21.22
   9  -1 -20  608.58   24.33
   8  -9  20  635.88   24.80
  -9   1  20  637.69   25.03
  -1  -8 -20  646.43   18.19
   9  -1 -17  478.59   20.27
  -9   1  17  486.93   20.88
   8  -9  17  515.11   21.47
  -1  -8 -17  497.72   15.19
  -9   1  14  186.12   12.38
   9  -1 -14  181.92   12.03
   8  -9  14  200.75   13.69
   9  -1 -11   99.27    8.56
   8  -9  11   89.42    9.91
   8  -9   8 1351.75   35.56
   9  -1  -8 1370.36   30.65
   9  -1  -5 1444.12   30.28
  -1  -8  -5 1512.48   29.74
  -1  -8  -2 1311.14   27.47
   9  -1  -2 1315.65   26.87
   9  -1   1   20.18    3.51
  -1  -8   1   31.01    5.69
   1   8  -4  285.83   13.72
   9  -1   4  284.64    9.66
  -1  -8   4  274.53   12.86
   1   8  -7  436.68   17.41
  -1  -8   7  450.92   16.98
   9  -1  10  405.25   10.85
  -1  -8  10  421.91   17.24
   1   8 -10  418.92   17.85
  -1  -8  13  270.49   14.56
   1   8 -13  279.20   15.18
   9  -1  13  275.82    8.09
   9  -1  16   17.56    2.77
  -1  -8  16   18.34    6.57
   1   8 -16   23.03    6.14
   9  -1  19   40.31    3.91
  -1  -8  19   51.85    8.86
   1   8 -19   54.21    8.55
   8  -9 -19   46.65    7.75
  -1  -8  22  257.65   16.74
   9  -1  22  264.31   10.05
   8  -9 -22  254.36   16.10
  -1  -8  25  342.09   19.95
   9  -1  25  349.61   12.63
   9  -1  28  150.85    9.40
  -1  -8  28  138.40   14.43
   9  -1  31  102.78    8.63
  -1  -8  31  106.55   13.92
  -9   1 -31  101.44    9.45
  -1  -8  34   21.35    8.85
   9  -1  34    5.44    4.62
  -1  -8  37   19.42    9.22
   9  -1  37   21.54    6.31
  -1  -8  40   55.92   13.09
   9  -9  39    3.71    7.98
  -9   0  39  -12.24    9.30
   9  -9  36   36.94    9.50
  -9   0  36   44.18   12.38
   0  -9 -33  157.25   11.88
   9  -9  33  152.87   14.68
  -9   0  33  163.26   17.11
  -9   0  30  194.94   17.51
   9  -9  30  178.54   15.21
   0  -9 -30  171.97   11.97
  -9   0  27    0.97    8.06
   9  -9  27   10.77    7.29
  -9   0  24    3.33    7.13
   9  -9  24   -5.07    6.82
   9  -9  21   27.67    7.97
  -9   0  21   18.50    7.14
   0  -9 -21   19.66    4.50
   9  -9  18  598.67   23.79
  -9   0  18  600.56   23.70
   9   0 -18  626.34   23.86
   9   0 -15  973.47   28.79
   9  -9  15  967.04   29.56
  -9   0  15  958.69   28.89
   9   0 -12   81.15    8.26
  -9   0  12   88.27    9.08
   9  -9  12   79.62   10.01
   9   0  -9    6.11    4.12
  -9   0   9    5.05    4.85
   9  -9   9    4.68    6.39
   9   0  -6   13.01    3.97
   0  -9  -3  814.32   22.39
   9   0  -3  741.12   19.51
   9   0   0 1392.07   26.33
   0  -9   0 1439.79   31.14
   0  -9   3  867.24   23.90
   9   0   3  861.07   18.03
   0  -9   6   84.76    8.42
   9   0   6   93.21    4.85
   0   9  -6   86.74    8.98
   0   9  -9  223.66   13.80
   0  -9   9  205.51   12.78
   9   0   9  198.19    6.03
   0  -9  12 1183.06   31.13
   0   9 -12 1181.62   32.39
   0  -9  15  926.12   28.24
   0   9 -15  959.70   29.76
   0  -9  18  577.99   23.05
   9  -9 -18  566.24   22.99
   0   9 -18  532.13   23.12
   0  -9  21  217.42   15.60
   9  -9 -21  227.34   15.57
   9   0  21  221.57    7.77
   0  -9  24   90.95   11.20
   9   0  24   84.56    5.82
   0  -9  27  109.45   13.20
   9   0  27  116.01    7.42
   0  -9  30  222.37   18.15
   9   0  30  202.00   10.69
   0  -9  33  185.72   17.49
   9   0  33  177.87   10.89
   0  -9  36    4.11    8.75
   0  -9  39   -7.05    9.99
   1 -10  41    8.64    9.15
   1 -10  38   51.27   12.27
   1 -10  35   87.69   13.90
   1 -10  32  118.72   15.15
   1 -10  29  245.58   19.03
   1 -10  26   31.67    9.39
   1 -10  23   32.77    9.41
   1 -10  20  351.66   19.47
   1 -10  17  435.88   20.58
  -1  10 -17  444.19   21.39
   1 -10  14   46.75    8.60
  -1  10 -14   46.88    8.02
  -1  10 -11   16.47    6.12
   1 -10  11   21.29    7.25
   1 -10   8  409.55   18.34
  -1  10  -8  409.51   19.03
   9   1   8  373.12    7.57
   1 -10   5  938.12   26.74
   9   1   5  894.26   16.57
   1 -10   2  463.75   18.46
   9   1   2  475.59   12.86
   1 -10  -1   50.10    7.54
   9   1  -1   58.03    5.31
   9   1  -4   61.17    5.95
   1 -10  -4   39.99    6.71
   9   1  -7  792.51   22.24
  -9  -1   7  783.88   22.23
   9   1 -10  857.08   24.61
  10  -9  10  800.74   27.80
  -9  -1  10  827.97   24.53
   9   1 -13  850.82   25.86
  10  -9  13  774.49   26.77
  -9  -1  13  804.83   25.40
   9   1 -16   43.18    6.90
  10  -9  16   46.03    8.23
  -9  -1  16   48.42    8.42
   9   1 -19   93.62   10.30
  10  -9  19   92.30   10.70
  -9  -1  19   95.99   11.12
  -9  -1  22  256.67   17.33
  10  -9  22  233.18   15.98
  -9  -1  25  170.58   15.08
  10  -9  25  182.69   14.43
  10  -9  28  155.26   13.73
  -9  -1  28  170.49   16.11
   1 -10 -28  155.19   11.47
  10  -9  31  177.27   15.11
  -9  -1  31  164.88   16.99
   1 -10 -31  146.27   11.62
  10  -9  34    0.45    7.02
  -9  -1  34    6.64    8.64
  10  -9  37   13.64    7.94
  -9  -1  37   37.34   10.17
  10  -9  40   21.30    8.72
  -9  -1  40   25.49   11.78
   2 -10  39    3.87    9.67
   2 -10  36    8.23    9.33
   2 -10  33  238.05   19.87
   2 -10  30  555.63   27.25
  -8  -2 -30  518.67   16.76
   2 -10  27  273.99   19.15
   2 -10  24   92.19   12.59
   2 -10  21    0.38    7.02
  -2  10 -18  388.15   20.38
  10  -8 -18  439.34   20.47
   2 -10  18  394.86   19.83
  -2  10 -15  173.27   13.50
   2 -10  15  154.92   12.71
   2 -10  12  112.18   11.17
   2 -10   9   -3.93    6.15
  -2  10  -9    7.05    4.91
   2 -10   6  573.18   20.83
   8   2   6  525.48   10.06
   8   2   3  174.47    6.88
   2 -10   3  182.58   12.37
   8   2   0  794.58   17.77
   2 -10   0  763.64   24.11
  -8  -2   0  781.75   17.86
  -8  -2   3 1048.61   23.32
   8   2  -3 1050.08   23.28
  -8  -2   6  332.16   13.49
   8   2  -6  337.70   13.43
   8   2  -9    6.95    4.07
  -8  -2   9    5.90    4.72
  10  -8  12   11.36    5.99
   8   2 -12   18.55    5.08
  -8  -2  12   19.57    5.94
  -8  -2  15  162.04   11.78
  10  -8  15  160.52   11.96
   8   2 -15  131.79   10.48
  -8  -2  18  124.09   11.98
   8   2 -18  112.97   10.46
  10  -8  18  112.18   10.33
  10  -8  21   13.90    6.36
  -8  -2  21   29.00    7.89
  10  -8  24   -9.34    6.92
  -8  -2  24    6.55    7.11
   2 -10 -24   -5.36    4.59
   2 -10 -27  180.51   12.40
  10  -8  27  165.79   13.82
  -8  -2  27  171.32   15.76
   2 -10 -30  214.91   14.09
  10  -8  30  226.68   16.19
  -8  -2  30  230.73   18.34
  10  -8  33  158.50   14.12
  -8  -2  33  169.86   17.02
  10  -8  36   78.95   11.36
  -8  -2  36   92.97   14.78
  10  -8  39    9.44    8.25
  -8  -2  39   12.39    9.21
   3 -10  40   60.23   13.41
   3 -10  37   65.54   13.46
   3 -10  34    3.28    8.78
   3 -10  31  185.90   17.23
  -7  -3 -31  176.15    9.94
  -7  -3 -28  270.34   10.92
   3 -10  28  275.23   19.03
  -7  -3 -25  817.10   17.80
   3 -10  25  837.02   31.23
   3 -10  22  280.79   17.71
  -3  10 -19   16.89    6.32
  10  -7 -19   11.67    5.32
   3 -10  19    8.70    6.94
   3 -10  16   64.65    9.32
  10  -7 -16   93.61    9.88
  -3  10 -16   92.66   10.61
   3 -10  13 1069.20   31.11
   3 -10  10  859.81   26.88
   3 -10   7  713.91   23.96
  -7  -3  -4   75.58    4.19
   3 -10   4   68.36    8.77
   7   3   4   72.50    4.23
   3 -10   1   63.72    8.53
   7   3   1   64.80    4.81
  -7  -3  -1   53.29    4.49
   7   3  -2 1018.74   21.84
  -7  -3   2 1008.77   21.63
   7   3  -5 1185.45   25.80
  -7  -3   5 1134.96   25.42
   7   3  -8 1066.40   26.19
  -7  -3   8 1080.40   26.01
   7   3 -11  326.07   15.00
  -7  -3  11  334.71   14.97
  10  -7  11  319.95   16.03
   7   3 -14  404.76   17.62
  -7  -3  14  419.15   18.01
  10  -7  14  413.19   17.89
  -7  -3  17   32.93    7.46
   7   3 -17   36.51    7.08
  10  -7  17   45.25    7.63
   7   3 -20  359.47   18.49
  -7  -3  20  363.08   18.90
  10  -7  20  365.91   17.19
   3 -10 -23  645.82   22.74
  10  -7  23  569.48   21.94
  -7  -3  23  584.04   25.23
  -7  -3  26  140.23   14.50
  10  -7  26  118.96   11.37
   3 -10 -26  121.00   10.56
  10  -7  29   12.31    6.40
  -7  -3  29    8.82    7.53
   3 -10 -29    4.18    4.89
  10  -7  32   61.83    9.32
  -7  -3  32   83.85   13.23
  10  -7  35  139.41   13.52
  -7  -3  35  121.81   15.31
  10  -7  38   91.92   12.30
  -7  -3  38  118.95   16.75
  10  -7  41   11.62    7.36
  -7  -3  41   31.77   12.15
   4 -10  41   -1.84    9.04
   4 -10  38   74.90   13.26
   4 -10  35   57.22   11.62
   4 -10  32   30.99    9.79
  -6  -4 -32   36.94    5.50
  -6  -4 -29   27.87    4.65
   4 -10  29   27.12    9.10
   4 -10  26  218.79   16.76
  -6  -4 -26  202.58    8.77
  -6  -4 -23  217.91    7.77
   4 -10  23  249.46   16.73
  -4  10 -20  429.81   21.65
   4 -10  20  426.65   21.03
  10  -6 -20  403.18   19.71
  10  -6 -17  613.11   23.53
   4 -10  17  564.79   23.23
  -4  10 -17  546.76   23.86
   4 -10  14   45.73    8.05
   4 -10  11   77.61    9.14
   4 -10   8  939.71   28.20
   4 -10   5 1804.40   40.20
   6   4   5 1718.36   25.51
  -6  -4  -5 1754.91   24.13
  -6  -4  -2  362.84   10.07
   6   4   2  360.66   10.72
   4 -10   2  368.63   17.45
  -6  -4   1   68.38    5.42
   6   4  -1   61.50    5.14
  -6  -4   4   55.47    5.73
   6   4  -4   49.46    5.33
  -6  -4   7  938.97   23.54
   6   4  -7  952.17   24.11
  -6  -4  10 1140.90   27.88
   6   4 -10 1123.83   28.00
   6   4 -13  322.12   15.35
  -6  -4  13  318.26   15.51
  10  -6  13  345.23   15.43
  -6  -4  16  349.05   16.76
  10  -6  16  354.96   15.67
   6   4 -16  370.14   17.32
  10  -6  19    1.23    5.26
   6   4 -19    7.58    5.13
  -6  -4  19   -0.61    6.16
   4 -10 -22  263.81   14.80
  10  -6  22  254.51   13.89
  -6  -4  22  263.29   16.77
  10  -6  25  111.29   10.32
   4 -10 -25   95.32   10.15
  -6  -4  25  101.84   12.36
  -6  -4  28  122.78   13.47
  10  -6  28  112.56   10.76
   4 -10 -28  115.44   11.13
  10  -6  31    1.67    5.88
  -6  -4  31    7.83    8.93
  10  -6  34   80.48   10.28
  -6  -4  34   76.36   13.34
  -6  -4  37   96.88   14.94
  10  -6  37   89.28   11.20
  10  -6  40   74.59   10.96
  -6  -4  40   58.56   13.12
   5 -10  42   -6.43    9.13
   5 -10  39    3.58    9.05
   5 -10  36   18.08    9.14
   5 -10  33  144.75   15.31
  -5  -5 -33  142.70    9.85
   5 -10  30  189.94   16.47
  -5  -5 -30  192.43   10.29
   5 -10  27  222.09   16.99
  -5  -5 -27  199.97    9.44
  -5  -5 -24    2.48    2.52
   5 -10  24   -7.81    7.79
   5 -10  21  168.28   13.90
  -5  10 -21  171.93   14.43
  -5  -5 -21  156.86    6.32
  10  -5 -18 1198.99   33.50
   5 -10  18 1226.23   34.45
  -5  10 -18 1207.93   36.23
   5 -10  15 1128.59   32.88
  -5  10 -15 1218.38   35.67
  10  -5 -15 1170.04   32.48
  10  -5 -12  969.10   28.27
   5 -10  12  950.59   29.04
  10  -5  -9  223.67   12.88
   5 -10   9  209.09   13.71
  -5  -5  -6 1496.23   21.52
   5 -10   6 1425.24   36.46
  -5  -5  -3  175.86    6.98
   5   5   3  166.21    7.55
   5 -10   3  169.54   13.05
  -5  -5   0  483.53   13.35
   5   5   0  492.92   14.26
  -5  -5   3  468.11   14.61
   5   5  -3  465.76   15.08
   5   5  -6    2.34    3.37
  -5  -5   6    3.66    4.18
  -5  -5   9  465.58   16.87
   5   5  -9  464.68   17.07
  -5  -5  12  516.99   19.13
   5   5 -12  516.55   19.36
  10  -5  12  554.26   18.63
   5   5 -15 1124.32   30.92
  10  -5  15 1116.00   27.17
  -5  -5  15 1094.78   30.20
  10  -5  18  798.53   22.71
   5   5 -18  725.17   25.86
  -5  -5  18  730.57   25.61
  10  -5  21   44.81    6.49
  -5  -5  21   45.12    8.68
   5 -10 -21   43.54    7.07
   5   5 -21   52.16    8.16
  -5  -5  24   -5.88    7.61
  10  -5  24    2.85    5.12
   5 -10 -24    7.05    5.24
  10  -5  27  227.43   13.36
   5 -10 -27  241.61   15.51
  -5  -5  27  239.39   17.96
  10  -5  30  295.84   15.88
  -5  -5  30  288.51   20.00
  10  -5  33  181.84   13.64
  -5  -5  33  192.62   17.80
  10  -5  36   24.29    7.45
  -5  -5  36   18.41    9.44
  10  -5  39   -4.86    7.23
  -5  -5  39   -0.08    9.58
  -5  -5  42   34.69   11.76
   6 -10  40   40.59   12.08
   6 -10  37   85.23   13.13
   6 -10  34    4.49    8.29
   6 -10  31   15.57    8.09
  -4  -6 -31    7.36    3.80
   6 -10  28  229.42   16.93
  -4  -6 -28  205.40   10.16
  -4  -6 -25   71.51    5.80
   6 -10  25   58.58   10.16
   6 -10  22   55.66    9.48
  -4  -6 -22   66.63    5.03
  -6  10 -22   56.39    9.90
  -4  -6 -19   41.05    3.56
   6 -10  19   47.25    8.72
  -6  10 -19   44.84    8.37
  10  -4 -19   42.33    7.67
   6 -10  16  159.96   13.12
  10  -4 -16  177.36   12.44
  -4  -6 -16  151.92    5.57
  -4  -6 -13  632.17   12.90
  -4  -6 -13  641.61   11.91
   6 -10  13  646.11   24.14
  10  -4 -13  692.93   23.48
  10  -4 -10 1222.47   30.91
  -4  -6 -10 1157.93   18.51
   6 -10  10 1168.33   32.78
   6 -10   7  184.75   13.52
  10  -4  -7  198.54   11.76
  -4  -6  -7  196.79    6.97
  -4  -6  -4 1843.94   28.64
   4   6   1  122.73    7.55
  -4  -6  -1  117.96    6.84
  -4  -6   2  210.32    9.93
   4   6  -2  216.86   10.39
   4   6  -5 1196.69   27.37
  -4  -6   5 1145.78   25.83
   4   6  -8  412.90   16.33
  -4  -6   8  414.33   15.93
   4   6 -11    9.00    4.35
  -4  -6  11   14.18    5.54
  10  -4  11    8.66    4.00
  -4  -6  14  457.56   18.62
   4   6 -14  471.70   19.32
  10  -4  14  464.27   15.58
  10  -4  17  556.65   17.45
  -4  -6  17  551.66   21.94
   4   6 -17  577.48   22.47
  10  -4  20 1048.12   25.25
   4   6 -20 1015.70   32.13
  -4  -6  20 1076.08   32.37
  10  -4  23 1014.91   25.75
  -4  -6  23  988.59   32.82
  -4  -6  26   72.95   11.26
  10  -4  26   59.70    7.31
  -4  -6  29   -6.29    8.40
  10  -4  29   -1.14    4.68
  10  -4  32   68.86    8.62
  -4  -6  32   66.11   11.30
  10  -4  35   16.62    6.20
  -4  -6  35   28.49   10.35
  -4  -6  38   38.75   11.75
  10  -4  38   35.81    7.85
  -4  -6  41    3.86    9.95
   7 -10  41   -1.77    8.39
   7 -10  38   88.27   13.65
   7 -10  35   92.57   13.53
   7 -10  32   48.79   10.51
  -3  -7 -29   15.54    4.35
   7 -10  29    3.47    6.91
  -3  -7 -26   63.79    5.94
   7 -10  26   48.22    9.82
  -3  -7 -23  150.25    8.10
  -7  10 -23  168.31   14.86
   7 -10  23  158.11   13.75
  10  -3 -20  392.81   19.61
  -3  -7 -20  391.56   11.90
  -7  10 -20  401.25   21.27
   7 -10  20  350.31   19.40
   7 -10  17  223.79   15.24
  10  -3 -17  233.24   14.49
  -3  -7 -17  228.69    8.49
   7 -10  14  136.39   12.25
  10  -3 -14  132.04   10.60
   7 -10  11  358.48   18.20
  -3  -7 -11  351.08   10.99
  10  -3 -11  351.56   16.12
  10  -3  -8  356.96   15.49
  -3  -7  -8  343.56   10.82
   7 -10   8  328.10   17.41
  -3  -7  -5  407.17   12.21
  10  -3  -5  422.37   16.07
  -3  -7  -2  939.29   20.69
   3   7  -1  444.51   15.65
  -3  -7   1  437.87   14.26
   3   7  -4   26.97    5.00
  -3  -7   4   30.82    5.18
  -3  -7   7  185.81   10.70
   3   7  -7  175.84   10.77
   3   7 -10  387.22   16.75
  -3  -7  10  365.43   15.92
   3   7 -13  201.95   12.82
  -3  -7  13  202.43   12.65
  10  -3  13  209.16    9.50
  -3  -7  16   76.57    9.31
   3   7 -16   87.62    9.69
  10  -3  16   90.19    6.55
  -3  -7  19    8.99    7.19
   3   7 -19    3.79    5.19
  10  -3  19   10.20    3.75
  -3  -7  22  452.49   21.83
  10  -3  22  438.53   15.14
   7 -10 -22  459.54   21.11
  10  -3  25  289.84   12.91
  -3  -7  25  266.76   17.66
  -3  -7  28  197.28   16.58
  10  -3  28  210.49   11.83
  -3  -7  31   12.09    7.72
  10  -3  31   12.90    5.12
  -3  -7  34   -1.51    9.20
  10  -3  34   -7.33    5.49
  10  -3  37   12.95    5.86
  -3  -7  37    3.63    8.09
  -3  -7  40   26.06   11.10
   8 -10  39   20.82    9.88
   8 -10  36  127.31   14.86
   8 -10  33  176.98   16.33
  -2  -8 -33  174.75   11.59
   8 -10  30  172.10   15.58
   8 -10  27  219.42   16.72
  -2  -8 -27  213.38   11.11
  -2  -8 -24    7.44    3.63
   8 -10  24    2.99    6.84
  -2  -8 -21   31.55    4.49
   8 -10  21   16.94    7.59
  10  -2 -18   57.77    8.43
   8 -10  18   53.47    9.40
  -2  -8 -18   50.26    5.05
  10  -2 -15  215.99   13.58
   8 -10  15  206.26   14.32
   8 -10  12   18.02    6.56
  10  -2 -12   19.79    5.29
  -2  -8  -9   76.83    6.25
  10  -2  -9   77.12    7.76
   8 -10   9   61.62    9.33
  -2  -8  -6  166.42    8.77
  10  -2  -6  166.06   10.34
  10  -2  -3  981.38   24.30
  -2  -8  -3  993.99   22.78
  -2  -8   0 1268.23   27.12
  10  -2   0 1227.72   26.44
   2   8  -3  349.17   15.30
  -2  -8   3  327.34   13.92
  -2  -8   6  426.66   16.39
   2   8  -6  412.42   16.88
  -2  -8   9  125.01    9.88
   2   8  -9  139.15   10.45
   2   8 -12   56.80    7.54
  -2  -8  12   59.25    8.30
  10  -2  12   57.08    4.96
  -2  -8  15  212.28   13.63
  10  -2  15  219.04    8.51
   2   8 -15  196.14   13.33
  -2  -8  18  296.97   16.93
  10  -2  18  280.62    9.90
   2   8 -18  297.08   17.19
   8 -10 -21   11.44    5.91
  -2  -8  21    2.82    7.48
  10  -2  21   13.76    3.47
  -2  -8  24    4.92    7.76
  10  -2  24    8.07    3.68
  -2  -8  27  215.91   17.58
  10  -2  27  218.28   10.97
  10  -2  30  366.65   15.28
  -2  -8  30  372.23   22.58
  10  -2  33  134.06   10.18
  -2  -8  33  144.14   16.52
  -2  -8  36   44.32   11.77
  10  -2  36   44.81    7.25
  -2  -8  39    1.52    8.72
   9 -10  40   47.46   11.46
   9 -10  37    5.00    8.12
   9 -10  34   -4.17    8.44
  -1  -9 -31    3.65    4.82
   9 -10  31    5.81    7.69
 -10   1  28   96.25   13.71
   9 -10  28  118.76   13.35
 -10   1  25  526.21   25.24
  -1  -9 -25  516.17   17.75
   9 -10  25  532.04   24.52
 -10   1  22  514.86   23.90
  -1  -9 -22  519.04   17.01
   9 -10  22  526.94   23.75
  10  -1 -19   13.29    5.85
 -10   1  19    2.45    6.92
   9 -10  19   -1.47    7.05
  -1  -9 -19    7.04    3.44
   9 -10  16  257.29   16.23
  10  -1 -16  269.20   15.44
  10  -1 -13   39.72    6.39
   9 -10  13   38.49    7.91
  10  -1 -10  311.82   14.71
   9 -10  10  272.54   16.58
  -1  -9  -7  418.41   15.22
  10  -1  -7  437.72   16.57
  -1  -9  -4   29.63    5.51
  10  -1  -4   35.06    5.05
  10  -1  -1  253.48   11.08
  -1  -9  -1  265.11   12.34
  -1  -9   2  846.98   23.36
  10  -1   2  850.95   19.73
  -1  -9   5 1586.86   35.23
  10  -1   5 1674.84   28.22
   1   9  -5 1703.68   38.36
   1   9  -8  924.00   27.65
  -1  -9   8  859.97   25.39
  -1  -9  11  106.86   10.32
  10  -1  11  116.31    5.67
   1   9 -11  115.51   10.41
  -1  -9  14    2.04    5.97
   1   9 -14    3.68    4.92
  10  -1  14    2.19    1.84
  10  -1  17  176.90    6.54
  -1  -9  17  200.57   14.20
   1   9 -17  189.75   14.03
  10  -1  20  347.83   10.06
  -1  -9  20  363.38   19.16
   9 -10 -20  357.40   19.19
  -1  -9  23   23.90    7.89
  10  -1  23   28.39    3.89
  -1  -9  26   32.85    9.48
  10  -1  26   22.40    4.19
  -1  -9  29   16.66    9.42
  10  -1  29   21.13    4.78
  -1  -9  32   22.31    8.85
  10  -1  32   26.54    5.42
  -1  -9  35   55.39   11.87
  10  -1  35   35.26    6.16
  -1  -9  38   38.62   11.87
  -1  -9  41   27.13   11.21
  10 -10  38   36.77   10.29
 -10   0  35   86.96   14.25
  10 -10  35  103.90   14.05
   0 -10 -32   81.59    8.93
 -10   0  32  102.87   14.95
  10 -10  32   78.66   11.37
   0 -10 -29    1.13    4.20
  10 -10  29   -2.18    7.09
 -10   0  29    2.55    8.59
 -10   0  26  158.22   15.19
  10 -10  26  188.72   14.95
 -10   0  23  509.70   24.21
  10 -10  23  484.65   23.25
  10 -10  20  440.33   21.41
   0 -10 -20  462.41   16.84
  10   0 -17  434.86   19.91
  10 -10  17  408.01   20.37
 -10   0  17  429.02   20.31
  10   0 -14  221.34   13.81
  10 -10  14  213.51   15.00
 -10   0  14  227.01   14.28
  10   0 -11   37.07    6.32
 -10   0  11   26.87    6.37
  10 -10  11   44.30    8.71
  10   0  -8  954.60   25.98
  10   0  -5  392.46   15.09
   0 -10  -5  400.46   16.30
   0 -10  -2  334.72   14.93
  10   0  -2  329.68   12.67
   0 -10   1   15.71    5.16
  10   0   1   27.16    3.99
   0 -10   4  775.84   23.89
  10   0   4  751.91   16.73
   0  10  -7 1292.81   34.31
  10   0   7 1225.39   20.75
   0 -10   7 1253.97   32.01
   0 -10  10 1272.92   32.57
   0  10 -10 1269.20   34.70
  10   0  10 1166.09   17.77
   0  10 -13  833.95   28.51
   0 -10  13  834.36   27.21
   0 -10  16  106.51   11.16
   0  10 -16  108.73   11.28
   0 -10  19   -1.37    5.72
  10   0  19    2.39    1.15
   0 -10  22   16.61    8.34
  10   0  22   34.41    3.07
   0 -10  25  489.55   24.30
  10   0  25  523.84   13.36
  10   0  28   51.43    4.93
   0 -10  28   65.71   11.66
   0 -10  31  111.52   14.58
   0 -10  34   -4.49    9.69
   0 -10  37   15.23    9.16
   0 -10  40   25.41   10.23
   1 -11  39  -10.70    9.15
   1 -11  36  117.49   15.53
   1 -11  33  159.19   16.97
   1 -11  30  331.06   22.26
   1 -11  27  164.20   16.06
   1 -11  24    9.36    7.37
   1 -11  21   81.71   11.32
   1 -11  18  259.53   17.16
  -1  11 -15  734.62   28.28
   1 -11  15  723.63   27.05
  -1  11 -12  696.48   26.77
   1 -11  12  579.18   23.28
  10   1   9   84.06    3.23
  -1  11  -9  100.23   10.32
   1 -11   9   93.65   10.04
  10   1   6   66.53    4.11
   1 -11   6   66.15    8.49
   1 -11   3  898.82   26.98
  10   1   3  904.80   18.98
  10   1   0 1202.01   25.17
   1 -11   0 1269.01   31.84
  10   1  -3  657.72   19.00
   1 -11  -3  621.11   22.03
  10   1  -6  151.97    9.79
  10   1  -9    9.11    4.51
 -10  -1   9   12.67    5.25
 -10  -1  12  835.68   26.26
  10   1 -12  837.99   26.04
  11 -10  12  768.25   28.68
  10   1 -15  735.99   25.62
 -10  -1  15  722.28   25.62
  11 -10  15  723.60   27.08
  10   1 -18  331.12   18.23
  11 -10  18  334.19   18.50
 -10  -1  18  335.19   18.60
  11 -10  21  165.92   14.33
 -10  -1  21  164.83   14.57
  11 -10  24   60.79   10.23
 -10  -1  24   57.27   10.97
 -10  -1  27   90.40   12.51
   1 -11 -27   97.87    9.50
  11 -10  27   97.88   11.86
  11 -10  30  355.29   21.42
 -10  -1  30  329.90   22.32
   1 -11 -30  343.47   17.03
 -10  -1  33   77.66   13.02
  11 -10  33   86.12   12.41
 -10  -1  36   16.26    9.90
  11 -10  36   14.55    8.50
 -10  -1  39    0.95    9.90
  11 -10  39    8.26    8.01
   2 -11  40    9.85    9.38
   2 -11  37   10.26   10.25
   2 -11  34    3.63    9.19
   2 -11  31   74.57   12.27
   2 -11  28  245.84   18.71
   2 -11  25  360.80   21.21
   2 -11  22  153.22   14.23
   2 -11  19   15.84    7.17
   2 -11  16   26.72    7.27
  -2  11 -16   21.41    6.02
  -2  11 -13  297.37   17.68
   2 -11  13  270.39   16.21
   2 -11  10  324.30   17.46
  -2  11 -10  376.25   19.28
   9   2   7   63.57    3.13
   2 -11   7   64.68    8.58
   9   2   4  102.38    5.35
   2 -11   4   94.81    9.54
   9   2   1  479.96   13.46
   2 -11   1  479.02   19.73
   2 -11  -2 2306.16   46.25
  -9  -2   2 2237.13   38.07
   9   2  -5  880.85   22.76
  -9  -2   5  829.56   22.50
   9   2  -8  443.13   17.21
  -9  -2   8  477.48   17.78
   9   2 -11   41.82    6.56
  -9  -2  11   27.28    6.33
  11  -9  11   35.14    7.41
  11  -9  14    9.74    6.32
   9   2 -14   14.75    5.20
  -9  -2  14   22.44    6.84
  11  -9  17  149.08   12.47
   9   2 -17  140.38   11.83
  -9  -2  17  148.20   12.70
  11  -9  20  404.70   20.37
  -9  -2  20  417.74   21.13
  -9  -2  23  553.89   25.00
   2 -11 -23  525.56   20.38
  11  -9  23  521.46   23.03
  11  -9  26   59.55   10.15
   2 -11 -26   69.06    8.31
  -9  -2  26   54.20   10.06
  -9  -2  29   65.85   11.31
  11  -9  29   74.75   11.00
   2 -11 -29   73.39    8.82
   2 -11 -32   13.05    5.40
  11  -9  32    9.48    6.80
  -9  -2  32   10.79    9.03
  -9  -2  35   77.36   13.82
  11  -9  35  100.73   12.76
  11  -9  38   54.75   10.76
  -9  -2  38   59.63   13.87
   3 -11  41   22.83   11.82
   3 -11  38   51.46   12.39
   3 -11  35   74.89   12.87
   3 -11  32   32.23   10.79
   3 -11  29    6.06    7.76
   3 -11  26  132.77   14.12
   3 -11  23  239.90   17.65
   3 -11  20  428.97   21.72
  11  -8 -17  415.40   20.34
   3 -11  17  397.38   20.19
  -3  11 -17  402.56   21.47
   3 -11  14   18.17    6.43
  -3  11 -14   27.12    6.83
   3 -11  11  152.69   12.58
  -3  11 -11  146.64   12.59
   3 -11   8  376.05   18.13
   3 -11   5  737.72   24.85
   8   3   5  712.94   13.92
   8   3   2  686.88   15.55
   3 -11   2  666.06   23.78
  -8  -3  -2  682.17   15.44
   3 -11  -1   13.69    5.96
   8   3  -1   26.71    3.99
  -8  -3   1   27.99    4.34
   8   3  -4    3.40    3.28
  -8  -3   4    2.50    3.91
   8   3  -7  411.80   15.86
  -8  -3   7  388.50   15.36
   8   3 -10  459.88   17.67
  -8  -3  10  432.45   17.22
  11  -8  13   17.99    6.29
   8   3 -13   14.80    4.64
  -8  -3  13   13.16    5.35
  11  -8  16   56.33    8.37
   8   3 -16   46.24    7.41
  -8  -3  16   45.30    8.30
  -8  -3  19   68.56    9.66
  11  -8  19   63.38    8.86
   8   3 -19   71.63    9.54
  -8  -3  22  447.89   22.10
   3 -11 -22  504.01   20.29
  11  -8  22  479.13   21.30
  -8  -3  25  448.21   23.09
   3 -11 -25  457.69   19.96
  11  -8  25  453.20   20.76
   3 -11 -28   93.73   10.29
  -8  -3  28  102.49   13.29
  11  -8  28   95.00   11.35
  11  -8  31  105.95   11.68
  -8  -3  31   90.58   13.88
  11  -8  34   17.25    7.59
  -8  -3  34   13.73    8.77
  11  -8  37    9.21    7.71
  -8  -3  37    4.68    9.69
  11  -8  40   53.86   10.38
  -8  -3  40   59.62   12.57
   4 -11  39    3.53    9.18
   4 -11  36   -4.59    8.68
   4 -11  33    8.44    8.59
   4 -11  30  123.96   14.42
  -7  -4 -30  100.49    6.62
  -7  -4 -27    7.85    2.48
   4 -11  27    3.30    7.95
   4 -11  24  123.93   13.59
   4 -11  21  273.16   17.88
  11  -7 -18  489.00   22.03
   4 -11  18  462.09   22.00
  -4  11 -18  453.84   22.84
  11  -7 -15  387.04   19.01
  -4  11 -15  374.85   20.38
   4 -11  15  392.00   20.13
   4 -11  12  650.78   24.99
   4 -11   9   91.83   10.51
  -7  -4  -6   22.80    2.15
   4 -11   6   34.60    7.17
   7   4   6   22.57    2.41
   7   4   3 1221.61   21.99
  -7  -4  -3 1220.88   21.13
   4 -11   3 1182.84   33.41
  -7  -4   0 2256.00   35.39
   7   4   0 2249.62   36.06
  -7  -4   3 1561.29   29.77
   7   4  -3 1557.06   30.39
  -7  -4   6   35.38    5.63
   7   4  -6   39.78    5.48
   7   4  -9    5.17    3.93
  -7  -4   9    4.24    4.43
   7   4 -12  219.60   12.82
  -7  -4  12  209.85   12.61
  11  -7  12  213.53   13.41
   7   4 -15  823.55   26.59
  -7  -4  15  823.91   26.44
  11  -7  15  854.56   26.25
  11  -7  18  624.43   22.34
   7   4 -18  634.73   24.19
  -7  -4  18  570.77   22.98
  11  -7  21   99.52    9.88
  -7  -4  21  118.00   11.97
   4 -11 -24   10.94    5.61
  -7  -4  24    4.78    7.21
  11  -7  24   -3.59    5.29
   4 -11 -27   36.18    7.25
  11  -7  27   33.09    7.40
  -7  -4  27   33.04    9.60
  11  -7  30   97.03   10.68
  -7  -4  30  102.23   13.70
  11  -7  33   65.97    9.79
  -7  -4  33   89.55   13.73
  11  -7  36    2.31    6.51
  -7  -4  36   -1.53    8.60
  11  -7  39    3.05    6.79
  -7  -4  39    4.20    9.98
   5 -11  40   11.59    9.83
   5 -11  37   20.83    9.27
   5 -11  34  -10.35    9.15
   5 -11  31   -7.60    8.75
  -6  -5 -31   12.33    3.63
   5 -11  28   39.61    9.93
  -6  -5 -28   40.30    4.34
  -6  -5 -25  327.01    9.58
   5 -11  25  370.62   21.25
  -6  -5 -22   15.94    1.87
   5 -11  22   19.87    8.39
   5 -11  19   37.13    8.40
  -5  11 -19   28.68    7.96
  11  -6 -19   22.18    6.71
   5 -11  16  185.01   14.42
  -5  11 -16  193.40   14.99
  11  -6 -16  180.50   13.26
  11  -6 -13  811.17   26.79
   5 -11  13  715.87   26.31
   5 -11  10 1047.48   31.32
   5 -11   7  264.27   16.06
  -6  -5  -7  249.22    6.32
   6   5   4  119.79    6.41
   5 -11   4  105.36   11.33
  -6  -5  -4  122.61    5.63
   6   5   1 1254.43   24.55
  -6  -5  -1 1263.05   23.55
  -6  -5   2  976.03   21.84
   6   5  -2  946.74   22.46
  -6  -5   5   58.04    6.37
   6   5  -5   55.20    6.21
  -6  -5   8  531.57   18.09
   6   5  -8  560.96   18.98
  -6  -5  11   40.61    6.75
  11  -6  11   25.36    5.67
   6   5 -11   34.34    5.80
  11  -6  14   38.42    6.40
  -6  -5  14   52.53    8.29
   6   5 -14   46.08    6.83
  11  -6  17  444.21   17.83
   6   5 -17  401.53   19.09
  -6  -5  17  410.59   19.20
  11  -6  20  198.77   12.43
   6   5 -20  226.89   15.33
  -6  -5  20  213.73   15.05
  -6  -5  23  137.67   13.37
   5 -11 -23  132.20   11.68
  11  -6  23  140.74   11.02
  11  -6  26   37.87    7.36
  -6  -5  26   22.89    7.75
   5 -11 -26   15.66    6.36
  11  -6  29   10.35    5.58
  -6  -5  29    5.68    8.67
  11  -6  32   72.70    9.40
  -6  -5  32   68.13   12.48
  11  -6  35  154.62   13.17
  -6  -5  35  165.19   17.69
  11  -6  38   65.97    9.70
  -6  -5  38   76.05   14.50
  -6  -5  41   29.61   12.37
  11  -6  41    4.44    6.26
   6 -11  41    4.28    9.58
   6 -11  38   21.35    9.63
   6 -11  35  111.71   14.63
   6 -11  32  136.75   15.70
  -5  -6 -29   53.17    5.34
   6 -11  29   68.11   11.64
   6 -11  26   13.95    7.82
  -5  -6 -26   14.59    3.38
   6 -11  23  322.55   19.54
  -5  -6 -23  320.03    9.45
  -6  11 -20  263.01   18.02
  -5  -6 -20  244.87    6.87
   6 -11  20  249.43   16.99
   6 -11  17  332.10   18.70
  11  -5 -17  390.01   19.19
  11  -5 -14   97.13    9.87
   6 -11  14   97.08   11.47
  11  -5 -11    5.68    4.40
   6 -11  11    1.33    5.37
  -5  -6 -11    7.02    1.24
   6 -11   8  325.30   17.91
  -5  -6  -8  314.46    8.08
  11  -5  -8  315.59   15.41
   6 -11   5 1340.90   36.56
  -5  -6  -5 1305.84   22.05
  -5  -6  -2   62.83    5.07
   5   6   2   58.19    5.49
   5   6  -1    7.34    3.34
  -5  -6   1    4.72    3.67
  -5  -6   4    2.94    3.81
   5   6  -4    1.91    3.33
  -5  -6   7  353.47   14.49
   5   6  -7  340.23   14.78
  -5  -6  10  665.71   21.54
   5   6 -10  668.12   22.02
  -5  -6  13  297.08   15.30
  11  -5  13  266.84   13.07
   5   6 -13  274.01   14.86
   5   6 -16   81.13    9.27
  -5  -6  16   79.30    9.79
  11  -5  16   93.38    8.01
   5   6 -19   81.77    9.63
  -5  -6  19   72.52   10.22
  11  -5  19   74.10    7.62
   6 -11 -22  229.30   15.16
  11  -5  22  236.27   12.61
  -5  -6  22  219.89   16.18
  11  -5  25  169.77   11.16
  -5  -6  25  169.90   15.04
   6 -11 -25  186.01   14.06
  11  -5  28  310.47   15.39
  -5  -6  28  294.24   19.81
  11  -5  31   95.92    9.73
  -5  -6  31  103.09   13.45
  11  -5  34    7.48    5.61
  -5  -6  34    8.86    8.64
  11  -5  37    8.51    5.87
  -5  -6  37    8.51    8.44
  -5  -6  40   26.38   10.77
   7 -11  39    3.95    8.83
   7 -11  36   -5.95    9.28
   7 -11  33  102.05   13.91
   7 -11  30  205.08   17.43
  -4  -7 -30  194.24   10.26
  -4  -7 -27   66.76    5.78
   7 -11  27   66.68   11.32
  -4  -7 -24    6.29    2.84
   7 -11  24    4.21    6.61
  -4  -7 -21  166.90    7.10
   7 -11  21  145.85   13.81
   7 -11  18  919.10   31.78
  11  -4 -18  957.67   30.69
  -4  -7 -18  901.57   16.72
   7 -11  15 1144.94   34.15
  -4  -7 -15 1108.44   18.60
  11  -4 -15 1169.62   33.01
   7 -11  12  350.77   18.96
  11  -4 -12  368.24   17.15
  -4  -7 -12  327.91    9.32
  -4  -7  -9   30.03    3.44
   7 -11   9   26.67    7.79
  11  -4  -9   28.87    6.05
   7 -11   6   24.13    8.00
  -4  -7  -6   27.96    3.76
  11  -4  -6   26.37    5.62
  -4  -7  -3  281.92   10.38
   4   7   0  852.83   22.06
  -4  -7   0  814.17   19.90
  -4  -7   3 1013.54   23.85
   4   7  -3  999.01   25.13
  -4  -7   6  427.03   15.89
   4   7  -6  407.55   16.22
  -4  -7   9   49.92    7.11
   4   7  -9   46.23    6.49
   4   7 -12  411.32   18.26
  -4  -7  12  447.72   18.50
  11  -4  12  423.55   15.38
  -4  -7  15  878.42   27.64
  11  -4  15  903.27   22.55
   4   7 -15  935.69   29.19
  -4  -7  18  266.79   16.29
   4   7 -18  273.21   16.54
  11  -4  18  278.48   12.23
  11  -4  21  301.51   13.01
  -4  -7  21  278.73   17.27
  11  -4  24   29.59    5.21
  -4  -7  24   26.55    8.47
  -4  -7  27  194.11   16.72
  11  -4  27  196.91   11.58
  -4  -7  30   63.76   11.25
  11  -4  30   71.82    8.21
  11  -4  33  168.42   12.19
  -4  -7  33  179.54   17.41
  -4  -7  36   20.37   10.89
  11  -4  36   30.62    6.75
  -4  -7  39   -0.55    8.74
   8 -11  40   46.35   11.91
   8 -11  37   42.63   10.88
   8 -11  34   12.95    9.16
  -3  -8 -31  160.88   10.06
   8 -11  31  189.15   17.13
  -3  -8 -28  440.80   15.35
   8 -11  28  415.11   23.16
  -3  -8 -25  366.17   13.04
   8 -11  25  357.27   20.84
   8 -11  22  107.20   12.55
  -3  -8 -22   92.03    6.37
  11  -3 -19   73.13    9.33
   8 -11  19   65.24   10.46
  -3  -8 -19   64.34    5.15
   8 -11  16  142.77   13.25
  -3  -8 -16  128.25    6.59
  11  -3 -16  132.02   11.24
   8 -11  13  325.55   18.21
  11  -3 -13  287.85   15.68
  -3  -8 -10  413.03   12.69
   8 -11  10  366.14   19.46
  11  -3 -10  396.32   17.33
   8 -11   7  721.57   27.59
  -3  -8  -7  781.83   18.21
  11  -3  -7  796.91   23.89
  -3  -8  -4   94.02    6.72
  11  -3  -4  104.92    8.39
  -3  -8  -1  503.12   15.80
   3   8  -2  817.35   23.43
  -3  -8   2  813.50   21.69
  -3  -8   5 1720.22   35.59
   3   8  -5 1867.83   38.59
   3   8  -8 1029.26   28.63
  -3  -8   8 1096.67   28.03
  -3  -8  11  183.94   12.16
   3   8 -11  186.62   12.47
  11  -3  11  168.78    9.13
  11  -3  14    5.17    3.35
  -3  -8  14    6.22    6.03
   3   8 -14    5.42    4.79
  -3  -8  17  288.62   17.20
   3   8 -17  308.14   17.59
  11  -3  17  295.82   11.27
  -3  -8  20  716.67   27.05
  11  -3  20  724.10   18.60
  -3  -8  23  785.01   29.76
  11  -3  23  775.79   20.09
  11  -3  26   81.20    7.42
  -3  -8  26   74.82   12.00
  11  -3  29   -2.55    3.99
  -3  -8  29  -10.96    8.12
  -3  -8  32  105.85   14.34
  11  -3  32  105.98    9.34
  11  -3  35  175.31   12.09
  -3  -8  35  141.34   16.18
  -3  -8  38   88.25   14.89
  -3  -8  41    7.51    9.12
   9 -11  38  120.76   15.52
   9 -11  35  123.87   14.81
   9 -11  32   34.44   10.03
   9 -11  29   13.19    8.30
  -2  -9 -26    5.07    3.61
   9 -11  26   17.31    8.07
  -2  -9 -23  581.13   17.23
   9 -11  23  577.95   25.78
   9 -11  20  390.45   21.37
  -2  -9 -20  440.24   14.27
  11  -2 -17   19.37    5.76
   9 -11  17   30.13    8.42
  11  -2 -14    2.55    4.30
   9 -11  14   -0.97    6.88
  -2  -9 -11   49.30    5.80
   9 -11  11   51.82    8.91
  11  -2 -11   50.78    6.89
  -2  -9  -8  770.67   20.26
   9 -11   8  762.14   28.46
  11  -2  -8  803.77   24.36
  -2  -9  -5  788.53   20.66
  11  -2  -5  849.24   23.76
  -2  -9  -2  302.32   12.81
  11  -2  -2  292.98   12.92
  11  -2   1  262.70   11.62
  -2  -9   1  275.45   12.74
   2   9  -4   -1.11    4.54
  -2  -9   4    2.54    4.69
   2   9  -7  329.35   16.37
  -2  -9   7  319.66   15.16
  -2  -9  10  489.33   19.64
   2   9 -10  536.67   21.26
  11  -2  13  679.51   16.13
  -2  -9  13  712.24   24.45
   2   9 -13  656.62   24.62
  -2  -9  16  371.22   18.61
   2   9 -16  392.36   19.74
  11  -2  16  373.59   11.04
  -2  -9  19    4.81    7.29
  11  -2  19   14.92    3.29
  11  -2  22  151.09    7.72
  -2  -9  22  145.51   13.87
  -2  -9  25  256.04   18.69
  11  -2  25  280.22   11.21
  -2  -9  28  469.04   24.92
  11  -2  28  458.07   15.47
  11  -2  31  172.69   10.28
  -2  -9  31  165.64   16.99
  -2  -9  34  -11.16   10.12
  11  -2  34   -3.35    4.46
  -2  -9  37   15.39    9.10
  -2  -9  40   43.54   12.59
  10 -11  39   19.00    9.52
  10 -11  36   35.84    9.64
  10 -11  33   48.31   10.72
  10 -11  30   75.68   11.81
  10 -11  27  136.20   14.32
  10 -11  24    5.23    6.87
  -1 -10 -24    8.29    3.84
  10 -11  21   71.74   11.16
  -1 -10 -21   69.88    6.64
  11  -1 -18  216.17   14.84
  10 -11  18  235.50   16.48
  10 -11  15  662.42   26.41
  11  -1 -15  676.35   24.89
  10 -11  12  676.95   26.93
  11  -1 -12  681.30   23.99
  11  -1  -9   65.17    7.74
  10 -11   9   64.19    9.76
  -1 -10  -9   53.49    6.86
  -1 -10  -6   25.49    5.40
  11  -1  -6   29.18    5.41
  -1 -10  -3  407.80   15.97
  11  -1  -3  432.63   15.94
  -1 -10   0 1264.07   30.13
  11  -1   0 1264.09   27.11
  -1 -10   3  609.04   20.72
  11  -1   3  607.11   16.62
  -1 -10   6   94.98    8.95
  11  -1   6  112.01    6.36
   1  10  -6   95.42    9.53
  -1 -10   9   25.91    6.56
  11  -1   9   18.79    3.00
   1  10  -9   21.25    5.60
  -1 -10  12  365.97   17.94
  11  -1  12  355.93    9.90
   1  10 -12  384.21   19.09
  -1 -10  15  714.14   25.93
  11  -1  15  719.42   13.50
  11  -1  18  164.70    5.96
  -1 -10  18  173.12   14.00
  11  -1  21   18.73    2.70
  -1 -10  21   17.16    6.83
  -1 -10  24   55.52   10.22
  11  -1  24   60.96    4.63
  -1 -10  27  250.31   18.75
  11  -1  27  245.53    9.87
  -1 -10  30  180.91   16.84
  11  -1  30  185.12    9.49
  -1 -10  33  161.02   16.64
  11  -1  33  163.45    9.79
  -1 -10  36   13.63    9.02
  -1 -10  39    0.68    9.77
  11 -11  37   14.89    8.09
  11 -11  34    5.84    7.78
   0 -11 -31   47.29    7.17
  11 -11  31   47.04   10.11
 -11   0  31   55.38   12.32
 -11   0  28  338.94   22.33
  11 -11  28  368.16   21.83
   0 -11 -28  336.96   15.91
 -11   0  25  230.66   18.06
  11 -11  25  215.86   16.60
  11 -11  22   31.03    8.53
 -11   0  22   32.12    9.09
 -11   0  19   13.46    7.78
  11 -11  19   21.55    8.31
  11   0 -16   15.67    6.08
 -11   0  16    8.53    6.58
  11 -11  16   21.56    7.60
  11   0 -13  203.25   13.56
  11 -11  13  198.85   15.29
  11 -11  10  476.50   23.04
  11   0 -10  534.96   20.23
   0 -11  -7  395.65   16.94
  11   0  -7  444.85   17.58
  11   0  -4   18.37    4.67
   0 -11  -4    9.34    4.67
   0 -11  -1  122.52    9.91
  11   0  -1  130.01    8.23
   0 -11   2  614.41   21.70
  11   0   2  631.49   17.02
   0 -11   5 1393.15   34.70
  11   0   5 1430.73   25.35
   0  11  -8 1023.18   32.18
   0 -11   8 1019.74   29.90
  11   0   8 1025.80   18.37
   0 -11  11  257.06   15.38
  11   0  11  218.46    6.00
   0  11 -11  248.56   16.16
  11   0  11  215.49    6.28
   0  11 -14    6.27    4.84
   0 -11  14    0.76    6.74
   0 -11  17  112.90   12.00
   0 -11  20  230.17   17.00
   0 -11  23  363.04   21.40
   0 -11  26    3.29    8.40
   0 -11  29    9.70    9.25
   0 -11  32   79.30   13.56
   0 -11  35   99.34   14.94
   0 -11  38  109.63   16.15
   1 -12  37    1.15    9.96
   1 -12  34   -0.88    8.70
   1 -12  31  151.98   16.55
   1 -12  28  376.42   23.37
   1 -12  25  209.82   17.84
   1 -12  22  239.12   17.58
   1 -12  19    7.37    7.74
   1 -12  16   23.06    8.00
  -1  12 -13  314.33   18.84
   1 -12  13  278.49   17.34
  -1  12 -10  722.16   28.13
   1 -12  10  653.98   25.28
  11   1   7  108.49    5.27
   1 -12   7  119.18   11.51
  11   1   4   43.72    4.15
   1 -12   4   40.75    7.81
  11   1   1  216.19    9.89
   1 -12   1  193.22   13.21
   1 -12  -2  778.56   25.47
  11   1  -2  807.00   21.66
  11   1  -5 1028.82   26.50
   1 -12  -5 1018.00   29.72
  11   1  -8 1078.48   28.99
  11   1 -11  354.17   17.21
 -11  -1  11  364.45   17.48
  12 -11  11  334.63   20.02
  11   1 -14   23.09    6.44
 -11  -1  14   21.61    7.09
  12 -11  14   22.43    7.72
  11   1 -17  237.72   15.62
 -11  -1  17  225.82   15.74
  12 -11  17  237.80   16.78
  12 -11  20  400.02   21.58
 -11  -1  20  389.02   21.28
  12 -11  23  232.68   17.13
 -11  -1  23  222.45   17.21
   1 -12 -23  236.87   13.53
  12 -11  26   83.70   11.67
 -11  -1  26   64.88   12.27
   1 -12 -26   55.33    7.68
 -11  -1  29   -7.63    8.62
  12 -11  29   -4.91    8.45
   1 -12 -29   -4.63    4.96
 -11  -1  32   56.76   12.74
  12 -11  32   54.99   11.07
  12 -11  35   30.25   10.13
 -11  -1  35   72.37   13.68
  12 -11  38   45.76   10.25
   2 -12  38   24.23   11.46
   2 -12  35   21.21   10.77
   2 -12  32    7.38    9.10
   2 -12  29   32.04    9.75
   2 -12  26  124.26   14.51
   2 -12  23  250.92   18.07
   2 -12  20  186.05   15.67
   2 -12  17  136.62   13.11
   2 -12  14   31.36    8.16
  -2  12 -14   26.54    7.10
   2 -12  11   27.75    7.33
  -2  12 -11   28.27    8.02
   2 -12   8  161.99   12.77
  10   2   8  130.80    4.22
  10   2   5  162.24    6.65
   2 -12   5  164.47   12.53
  10   2   2  128.09    7.10
   2 -12   2  140.24   11.96
  10   2  -1   36.63    4.83
   2 -12  -1   43.36    7.66
  10   2  -4  428.97   15.59
   2 -12  -4  392.59   18.77
 -10  -2   4  399.41   15.36
 -10  -2   7  843.41   24.30
  10   2  -7  842.72   24.29
  10   2 -10 1486.03   35.23
 -10  -2  10 1526.18   35.84
  10   2 -13  909.67   28.13
  12 -10  13  845.58   30.36
 -10  -2  13  883.01   27.94
 -10  -2  16  249.69   15.81
  10   2 -16  274.71   16.31
  12 -10  16  289.44   17.90
 -10  -2  19    0.06    7.42
  12 -10  19   13.26    7.08
  12 -10  22  145.43   13.74
 -10  -2  22  171.82   14.64
   2 -12 -25  206.52   13.55
  12 -10  25  241.47   16.93
 -10  -2  25  233.90   17.96
   2 -12 -28  141.46   11.61
 -10  -2  28  148.12   16.02
  12 -10  28  125.43   13.00
 -10  -2  31    9.98    9.18
  12 -10  31   13.17    7.73
   2 -12 -31   21.56    6.04
  12 -10  34   29.46    8.39
 -10  -2  34   58.82   12.93
 -10  -2  37   88.50   15.15
  12 -10  37   84.80   13.11
   3 -12  39    7.14   10.08
   3 -12  36    7.25    9.41
   3 -12  33   57.40   11.36
   3 -12  30   33.35   10.40
   3 -12  27   88.53   13.15
   3 -12  24   26.74    9.17
   3 -12  21    6.59    6.50
   3 -12  18  199.76   15.30
  -3  12 -15  451.68   22.96
   3 -12  15  446.04   21.86
  -3  12 -12  416.10   21.67
   3 -12  12  403.39   20.21
   3 -12   9  147.91   13.00
   9   3   6  100.68    4.69
   3 -12   6  100.92   10.74
   3 -12   3  868.58   28.60
   9   3   3  922.40   18.75
  -9  -3   0 1059.53   22.88
   3 -12   0 1043.07   31.01
   9   3   0 1081.62   23.21
   9   3  -3  730.69   20.02
  -9  -3   3  716.54   19.94
  -9  -3   6   48.46    6.36
   9   3  -6   45.62    6.00
   9   3  -9  167.19   10.90
  -9  -3   9  177.62   11.52
  -9  -3  12  177.37   12.57
  12  -9  12  183.46   14.13
   9   3 -12  187.17   12.33
  12  -9  15  700.53   26.22
   9   3 -15  735.51   25.85
  -9  -3  15  693.46   25.11
   9   3 -18  413.89   20.25
  12  -9  18  432.15   20.36
  -9  -3  18  405.41   20.28
  -9  -3  21   21.42    7.77
  12  -9  21   14.67    6.70
  12  -9  24   24.13    7.24
   3 -12 -24   19.26    6.08
  -9  -3  24   31.95    9.39
   3 -12 -27   67.53    8.72
  -9  -3  27   63.48   12.00
  12  -9  27   62.19   10.73
  12  -9  30   80.32   11.18
  -9  -3  30   69.71   12.23
  12  -9  33   36.70    8.97
  -9  -3  33   35.64   10.34
  12  -9  36    6.11    7.14
  -9  -3  36    6.37    9.46
  12  -9  39   -3.45    6.99
  -9  -3  39   12.25    9.73
   4 -12  40   79.05   15.02
   4 -12  37   70.55   12.80
   4 -12  34    7.73    9.21
   4 -12  31   13.01    8.27
   4 -12  28  164.68   16.11
   4 -12  25  295.71   20.11
   4 -12  22  586.15   26.70
   4 -12  19    8.79    6.81
   4 -12  16   57.55    9.78
  12  -8 -16   53.17    8.33
  -4  12 -16   62.08   10.03
   4 -12  13  619.13   25.35
   4 -12  10 1270.80   35.83
   4 -12   7  416.56   20.26
  -8  -4  -4  527.39   12.46
   8   4   4  495.80   12.69
   4 -12   4  521.80   22.37
   4 -12   1   98.43   10.50
  -8  -4  -1  105.90    6.38
   8   4   1  117.51    6.81
   8   4  -2  695.41   18.91
  -8  -4   2  672.67   18.34
   8   4  -5 1003.78   25.08
  -8  -4   5 1030.15   25.12
   8   4  -8  489.76   17.98
  -8  -4   8  482.34   17.94
   8   4 -11   57.57    7.27
  -8  -4  11   46.25    7.29
  -8  -4  14  122.08   10.88
   8   4 -14  122.93   10.44
  12  -8  14   98.72   10.60
   8   4 -17  828.40   28.40
  12  -8  17  826.40   27.16
  -8  -4  17  809.00   27.96
  12  -8  20  728.15   25.58
  -8  -4  20  732.69   27.50
   4 -12 -23  415.25   19.68
  12  -8  23  452.85   20.42
  -8  -4  23  414.85   22.34
   4 -12 -26  152.10   12.51
  12  -8  26  128.09   12.13
  -8  -4  26  136.14   14.51
  12  -8  29   48.74    9.08
  -8  -4  29   70.50   11.79
  12  -8  32    0.85    6.62
  -8  -4  32    8.79    9.63
  12  -8  35    4.44    6.36
  -8  -4  35   19.11    8.98
  12  -8  38   41.42    9.14
  -8  -4  38   42.00   12.32
   5 -12  38   85.31   14.12
   5 -12  35   16.96   10.19
   5 -12  32    9.35    8.23
  -7  -5 -29    1.97    1.90
   5 -12  29   -7.43    8.06
   5 -12  26   99.39   12.75
   5 -12  23  145.12   14.90
   5 -12  20  327.66   19.72
  12  -7 -17  339.44   18.95
  -5  12 -17  358.51   20.75
   5 -12  17  341.59   20.03
   5 -12  14   39.25    8.85
  12  -7 -14   33.90    6.44
   5 -12  11  240.74   16.29
   5 -12   8  171.48   13.41
   5 -12   5  891.70   29.42
  -7  -5  -5  845.71   15.85
   7   5   5  844.75   17.51
   5 -12   2  528.82   22.66
   7   5   2  518.61   14.48
  -7  -5  -2  498.34   13.52
   7   5  -1  340.96   12.73
  -7  -5   1  325.91   12.05
  -7  -5   4    6.10    3.95
   7   5  -4    1.86    3.19
   7   5  -7  544.27   18.69
  -7  -5   7  530.72   18.08
   7   5 -10  499.01   19.25
  -7  -5  10  520.07   19.23
   7   5 -13  752.59   25.02
  12  -7  13  726.60   24.67
  -7  -5  13  716.20   24.11
  -7  -5  16   17.73    6.48
  12  -7  16   16.38    5.75
   7   5 -16   22.20    6.34
  12  -7  19   62.75    8.15
  -7  -5  19   61.28    9.85
  12  -7  22  118.53   10.57
  -7  -5  22  116.76   12.14
   5 -12 -25  239.20   16.24
  12  -7  25  257.37   15.02
  -7  -5  25  271.47   18.73
  12  -7  28  194.11   13.74
  -7  -5  28  183.60   16.28
  12  -7  31   86.92   10.47
  -7  -5  31   99.06   13.98
  12  -7  34   -9.57    6.20
  -7  -5  34   19.93   10.18
  12  -7  37   19.20    7.30
  -7  -5  37   26.93   10.96
  12  -7  40   38.05    8.57
  -7  -5  40   20.23   10.17
   6 -12  39   -2.77    9.13
   6 -12  36   31.23   10.95
   6 -12  33  122.02   14.96
  -6  -6 -30  182.93    8.30
   6 -12  30  203.67   17.85
  -6  -6 -27  138.55    6.13
   6 -12  27  150.50   15.46
   6 -12  24   -3.84    8.69
   6 -12  21  195.21   16.24
   6 -12  18  381.29   21.31
   6 -12  15  691.08   27.39
  12  -6 -15  708.33   26.30
   6 -12  12  684.41   26.74
  12  -6 -12  735.18   25.98
  -6  -6  -9  158.73    4.68
   6 -12   9  168.00   13.69
  -6  -6  -6   75.46    4.50
   6 -12   6   49.29    9.12
  -6  -6  -3 1342.32   24.08
   6   6   3 1359.83   26.43
   6 -12   3 1295.01   36.94
  -6  -6   0 1986.06   33.95
   6   6   0 1975.78   35.36
  -6  -6   3  519.55   16.35
   6   6  -3  528.79   17.34
  -6  -6   6    0.39    4.34
   6   6  -6    6.01    4.04
  -6  -6   9   15.68    5.28
   6   6  -9   15.85    4.92
  -6  -6  12  541.22   20.52
  12  -6  12  549.79   20.50
   6   6 -12  553.57   21.29
   6   6 -15  390.21   18.88
  -6  -6  15  387.92   18.53
  12  -6  15  392.47   17.03
  -6  -6  18   85.40   10.62
   6   6 -18   72.56    9.74
  12  -6  18   90.87    8.97
  -6  -6  21    6.89    7.35
  12  -6  21   -3.14    4.80
  -6  -6  24   -1.61    6.92
   6 -12 -24    9.09    5.12
  12  -6  24   -0.55    4.87
  12  -6  27  120.99   10.43
  -6  -6  27  113.61   13.57
  -6  -6  30  487.53   26.10
  12  -6  30  484.89   20.47
  12  -6  33  149.04   12.71
  -6  -6  33  164.44   16.97
  -6  -6  36  170.90   18.30
  12  -6  36  155.51   13.11
  12  -6  39   21.41    7.17
  -6  -6  39   30.45   11.33
   7 -12  40   71.06   13.98
   7 -12  37   26.55   10.52
   7 -12  34   -9.68   10.52
   7 -12  31   44.62   10.82
   7 -12  28  137.15   15.14
  -5  -7 -28  124.77    7.01
  -5  -7 -25  165.35    6.92
   7 -12  25  147.49   14.64
  -5  -7 -22  234.88    7.13
   7 -12  22  228.93   17.26
  -5  -7 -19    5.35    1.62
   7 -12  19    8.03    7.34
  -5  -7 -19   11.36    1.69
   7 -12  16  187.26   14.99
  12  -5 -16  176.58   13.23
   7 -12  13  541.91   23.69
  -5  -7 -13  511.54    9.72
  -5  -7 -13  541.30    9.96
   7 -12  10  187.99   14.62
  12  -5 -10  202.55   13.45
  -5  -7 -10  187.70    6.29
  12  -5  -7  721.31   24.04
  -5  -7  -7  721.53   15.13
   7 -12   7  681.74   26.97
  -5  -7  -4  124.27    6.75
  -5  -7  -1  371.95   12.73
   5   7   1  373.64   14.10
  -5  -7   2  257.06   11.49
   5   7  -2  253.03   12.25
  -5  -7   5  590.28   18.83
   5   7  -5  622.89   20.37
  -5  -7   8 1222.81   30.03
   5   7  -8 1251.56   31.58
   5   7 -11  104.78    9.66
  -5  -7  11  113.56    9.92
  -5  -7  14   33.34    7.82
  12  -5  14   29.26    5.98
   5   7 -14   33.34    6.42
  -5  -7  17   68.63    9.76
   5   7 -17   71.04    9.35
  12  -5  17   63.38    7.11
  12  -5  20  439.14   16.64
  -5  -7  20  438.28   21.45
  12  -5  23  172.14   10.93
  -5  -7  23  165.25   14.68
  -5  -7  26   15.21    7.78
  12  -5  26   12.94    4.97
  -5  -7  29    8.29    7.95
  12  -5  29    8.27    5.15
  12  -5  32   35.88    6.98
  -5  -7  32   36.92   10.73
  12  -5  35  141.95   12.05
  -5  -7  35  172.46   18.04
  -5  -7  38   84.26   14.79
   8 -12  38   17.56    9.31
   8 -12  35   43.65   11.25
   8 -12  32    5.96    7.79
   8 -12  29   21.45    9.42
  -4  -8 -29   14.34    3.93
   8 -12  26  145.66   14.76
  -4  -8 -26  154.70    7.92
  -4  -8 -23  237.78    8.99
   8 -12  23  231.24   17.26
   8 -12  20  889.87   32.73
  -4  -8 -20  875.04   17.31
  -4  -8 -17  496.40   11.95
   8 -12  17  516.86   23.94
  12  -4 -17  523.93   22.84
  -4  -8 -14  146.54    6.80
   8 -12  14  180.39   15.07
  12  -4 -14  162.50   12.68
   8 -12  11    7.87    7.00
  -4  -8 -11   13.16    3.01
  12  -4 -11    8.86    4.93
  -4  -8  -8  756.98   17.06
  12  -4  -8  759.60   24.65
   8 -12   8  732.07   27.98
  12  -4  -5  626.93   21.61
  -4  -8  -5  633.37   16.36
  -4  -8  -2  493.28   15.27
  -4  -8   1  279.21   12.15
   4   8  -1  268.81   12.95
  -4  -8   4  208.68   11.41
   4   8  -4  236.95   12.85
   4   8  -7 1529.80   35.65
  -4  -8   7 1477.02   33.73
  -4  -8  10  875.29   26.17
   4   8 -10  908.86   27.71
  -4  -8  13  466.88   19.71
   4   8 -13  532.26   21.81
  12  -4  13  483.19   16.78
   4   8 -16  116.65   11.32
  -4  -8  16   90.59   10.46
  12  -4  16  117.54    8.15
  12  -4  19   32.43    5.37
  -4  -8  19   26.88    7.76
  -4  -8  22   79.78   11.80
  12  -4  22   82.82    7.48
  12  -4  25  203.40   10.98
  -4  -8  25  183.98   15.99
  -4  -8  28   54.05   11.05
  12  -4  28   49.17    6.75
  -4  -8  31   -3.64    9.01
  12  -4  31    0.07    4.60
  12  -4  34    0.91    4.78
  -4  -8  34   11.18    9.61
  -4  -8  37   88.31   14.70
  -4  -8  40   44.58   12.77
   9 -12  39    2.08    8.70
   9 -12  36    9.33    9.42
   9 -12  33  108.15   14.13
  -3  -9 -30  238.02   11.55
   9 -12  30  244.21   19.35
  -3  -9 -27  216.86   10.44
   9 -12  27  216.82   17.86
  -3  -9 -24    2.55    3.14
   9 -12  24   -3.27    7.94
   9 -12  21  206.61   16.99
  -3  -9 -21  222.53    9.39
  -3  -9 -18  222.33    9.07
   9 -12  18  213.73   16.14
   9 -12  15  624.10   26.50
  12  -3 -15  657.46   25.11
   9 -12  12  707.75   28.26
  -3  -9 -12  751.85   18.90
  12  -3 -12  746.54   25.65
  -3  -9  -9    5.57    3.36
   9 -12   9    0.91    7.39
  12  -3  -9    1.28    4.22
  -3  -9  -6  165.67    8.88
  12  -3  -6  167.62   11.31
  12  -3  -3  809.47   23.72
  -3  -9  -3  828.73   21.33
  -3  -9   0 2008.09   37.54
  12  -3   0 1972.11   38.55
  -3  -9   3  850.88   23.66
   3   9  -3  846.06   25.57
   3   9  -6   14.06    4.98
  -3  -9   6   16.85    5.43
   3   9  -9   70.29    8.47
  -3  -9   9   62.13    8.06
  -3  -9  12  534.23   21.34
   3   9 -12  525.35   21.99
  12  -3  12  562.72   16.86
  -3  -9  15  587.55   23.41
   3   9 -15  643.43   25.32
  12  -3  15  612.80   16.70
  -3  -9  18  395.59   20.25
  12  -3  18  391.99   12.96
  -3  -9  21  424.72   21.81
  12  -3  21  466.25   14.39
  -3  -9  24    7.92    7.60
  12  -3  24   -0.79    3.33
  12  -3  27   17.10    4.29
  -3  -9  27   13.18    8.40
  12  -3  30  175.13   10.47
  -3  -9  30  180.24   17.48
  -3  -9  33   86.36   13.93
  12  -3  33   81.54    8.09
  -3  -9  36   67.51   13.81
  -3  -9  39    2.56    9.03
  10 -12  37   46.00   11.66
  10 -12  34    5.20    8.51
  10 -12  31   33.19    9.95
  10 -12  28  105.66   13.39
  -2 -10 -28   86.01    7.54
  10 -12  25  115.63   13.70
  -2 -10 -25  130.14    8.54
  10 -12  22  273.01   18.96
  -2 -10 -22  307.27   12.38
  -2 -10 -19    0.77    3.04
  10 -12  19   14.38    8.14
  10 -12  16  245.49   17.34
  12  -2 -16  251.34   15.75
  10 -12  13 1112.76   36.06
  12  -2 -13 1170.30   32.95
  -2 -10 -10 1198.00   27.46
  12  -2 -10 1256.31   33.01
  10 -12  10 1217.21   37.78
  12  -2  -7 1005.17   28.10
  -2 -10  -7 1021.09   24.94
  12  -2  -4  177.92   11.05
  -2 -10  -4  176.13   10.33
  -2 -10  -1  194.64   10.99
  12  -2  -1  196.20   10.91
  12  -2   2  310.22   13.01
  -2 -10   2  335.52   15.11
  12  -2   5  401.50   13.83
  -2 -10   5  386.99   16.77
   2  10  -5  411.95   18.78
   2  10  -8  389.34   18.92
  -2 -10   8  367.90   17.22
  -2 -10  11    5.12    5.87
   2  10 -11   10.05    5.31
  12  -2  14   36.77    4.06
   2  10 -14   31.39    7.08
  -2 -10  14   38.55    8.13
  -2 -10  17  120.27   12.50
  12  -2  17  110.20    5.90
  -2 -10  20  444.54   22.46
  12  -2  20  441.84   12.07
  12  -2  23  210.26    8.64
  -2 -10  23  209.80   16.91
  12  -2  26   41.27    4.71
  -2 -10  26   47.31   10.58
  -2 -10  29    7.98    8.95
  12  -2  29    5.42    3.32
  -2 -10  32   56.14   11.78
  12  -2  32   55.79    6.37
  -2 -10  35  128.03   16.34
  -2 -10  38   22.68   10.07
  11 -12  38   63.05   12.27
  11 -12  35  106.21   14.87
  11 -12  32   67.57   12.20
  11 -12  29    1.72    7.55
  11 -12  26    4.06    8.00
  -1 -11 -23   90.59    7.81
  11 -12  23   71.20   11.21
  11 -12  20  446.71   23.26
  11 -12  17  227.98   17.41
  12  -1 -14    5.67    5.45
  11 -12  14    5.12    7.24
  11 -12  11  127.41   13.55
  -1 -11 -11  148.14   10.55
  12  -1 -11  155.03   11.44
  -1 -11  -8  679.44   21.81
  12  -1  -8  634.06   22.43
  -1 -11  -5 1155.27   28.90
  12  -1  -5 1133.11   28.85
  -1 -11  -2  525.63   19.05
  12  -1  -2  518.90   17.75
  -1 -11   1  318.33   15.24
  12  -1   1  331.23   13.20
  12  -1   4  110.40    7.10
  -1 -11   4  115.79   10.20
   1  11  -7  533.57   22.51
  -1 -11   7  524.26   20.92
  12  -1   7  499.36   13.95
   1  11 -10  472.34   21.81
  12  -1  10  445.12   11.88
  -1 -11  10  449.76   20.34
   1  11 -13  194.92   14.74
  12  -1  13  189.90    6.76
  -1 -11  13  191.66   14.11
  12  -1  13  177.41    6.62
  -1 -11  16   33.83    8.42
  12  -1  16   32.01    2.51
  -1 -11  19  114.65   12.16
  12  -1  19  107.32    4.20
  -1 -11  22  449.19   23.61
  12  -1  22  385.66    9.19
  -1 -11  25  242.50   18.84
  12  -1  25  196.55    7.20
  -1 -11  28  213.93   18.27
  12  -1  28  176.78    7.71
  -1 -11  31    3.83    8.89
  -1 -11  34   -0.07    8.72
  -1 -11  37   41.01   11.87
  12 -12  36   33.24   10.20
  12 -12  33  187.68   17.21
  12 -12  30  111.24   13.93
  12 -12  27  199.95   17.12
   0 -12 -27  213.49   12.73
  12 -12  24   10.45    7.86
  12 -12  21  144.25   14.44
  12 -12  18  172.21   15.01
  12   0 -15  191.27   13.83
  12 -12  15  192.23   16.09
  12   0 -12   10.02    5.11
  12 -12  12   10.69    7.05
   0 -12  -9  125.91   10.47
  12   0  -9  116.73    9.91
   0 -12  -6  250.94   14.34
  12   0  -6  258.17   13.65
   0 -12  -3  679.91   23.20
  12   0  -3  717.60   21.55
  12   0   0 1164.23   26.72
   0 -12   0 1137.82   31.09
   0 -12   3  594.76   22.44
  12   0   3  608.89   16.80
   0 -12   6  337.06   17.91
  12   0   6  338.75   11.17
   0 -12   9   81.89   10.28
   0  12  -9   73.25    9.65
  12   0   9   71.46    4.39
   0 -12  12    4.43    6.85
   0  12 -12   15.85    6.99
  12   0  12    7.23    1.29
   0 -12  15   44.17    8.95
   0 -12  18   89.04   11.60
   0 -12  21    7.32    8.15
   0 -12  24    3.17    8.64
   0 -12  27  136.27   15.19
   0 -12  30  156.79   16.95
   0 -12  33   89.31   14.71
   0 -12  36   24.62   11.55
   1 -13  35  134.55   17.62
   1 -13  32   81.65   14.44
   1 -13  29    2.95    8.77
   1 -13  26   71.53   12.04
   1 -13  23  294.27   20.12
   1 -13  20  395.34   22.58
   1 -13  17  141.99   14.09
   1 -13  14   14.16    7.38
  -1  13 -11  314.76   19.48
   1 -13  11  283.12   17.47
   1 -13   8  523.73   22.82
  12   1   8  495.44   11.38
  12   1   5  333.91   10.88
   1 -13   5  319.75   17.68
  12   1   2  343.48   12.62
   1 -13   2  341.66   17.66
  12   1  -1   32.49    5.11
   1 -13  -1   30.87    7.44
  12   1  -4   40.80    5.89
   1 -13  -4   42.81    7.91
   1 -13  -7  319.36   17.40
  12   1  -7  322.17   15.73
  12   1 -10  373.16   17.87
  12   1 -13  200.80   14.12
  13 -12  13  190.60   16.46
 -12  -1  16   54.84    9.23
  13 -12  16   53.49    9.77
  13 -12  19    6.77    7.40
 -12  -1  19   10.56    7.11
  13 -12  22  213.15   16.96
 -12  -1  22  186.88   16.23
   1 -13 -25  307.98   15.88
 -12  -1  25  301.09   20.87
  13 -12  25  311.41   20.65
  13 -12  28  114.44   13.81
 -12  -1  28  117.78   15.26
   1 -13 -28  120.44   10.57
 -12  -1  31   49.69   12.36
  13 -12  31   31.87    9.44
  13 -12  34   24.43    9.51
  13 -12  37   -3.28    7.93
   2 -13  36   17.93    9.91
   2 -13  33  117.49   15.19
   2 -13  30  212.89   19.55
   2 -13  27   74.44   12.37
   2 -13  24   14.03    9.31
   2 -13  21   34.72    9.54
   2 -13  18  342.32   20.70
   2 -13  15  533.41   24.72
  -2  13 -12  211.74   16.39
   2 -13  12  181.29   14.56
   2 -13   9   53.99    9.39
  11   2   6   33.44    3.30
   2 -13   6   35.19    8.51
  11   2   3  259.02   10.12
   2 -13   3  247.44   15.38
   2 -13   0  461.83   20.75
  11   2   0  447.90   14.95
  11   2  -3  407.18   15.51
   2 -13  -3  400.70   19.59
  11   2  -6  256.32   13.33
   2 -13  -6  238.64   15.68
 -11  -2   6  235.72   12.88
  11   2  -9   41.37    6.93
 -11  -2   9   46.61    7.39
  13 -11  12  303.26   19.49
  11   2 -12  335.16   16.99
 -11  -2  12  316.15   17.04
  11   2 -15  484.59   21.72
  13 -11  15  498.49   24.12
 -11  -2  15  472.87   21.82
 -11  -2  18  330.79   19.18
  13 -11  18  329.81   19.64
 -11  -2  21   48.97   10.01
  13 -11  21   50.55    9.47
  13 -11  24   40.05    9.46
 -11  -2  24   39.65   10.03
   2 -13 -24   37.76    7.33
  13 -11  27   23.83    8.29
 -11  -2  27   27.20   10.16
   2 -13 -27   32.00    7.21
 -11  -2  30   51.88   11.89
  13 -11  30   46.04   10.05
  13 -11  33   59.62   11.03
 -11  -2  33   59.48   12.73
  13 -11  36   -1.40    7.81
 -11  -2  36   12.47   10.78
   3 -13  37   26.17   11.61
   3 -13  34   -5.03    9.15
   3 -13  31   92.59   13.39
   3 -13  28  187.51   17.88
   3 -13  25  430.54   24.31
   3 -13  22  325.52   20.73
   3 -13  19   20.56    8.21
   3 -13  16   35.54    8.89
   3 -13  13  251.33   17.18
   3 -13  10  816.40   29.03
  10   3   7  451.09    9.85
   3 -13   7  468.44   21.54
   3 -13   4    5.34    6.41
  10   3   4    0.09    2.34
  10   3   1   61.22    5.44
   3 -13   1   57.16    8.77
   3 -13  -2  521.48   22.47
  10   3  -2  507.77   16.58
 -10  -3   2  511.61   16.81
  10   3  -5 1265.06   29.77
 -10  -3   5 1229.70   29.24
 -10  -3   8  289.71   14.67
  10   3  -8  285.52   14.51
 -10  -3  11  196.97   12.88
  10   3 -11  201.35   12.99
  13 -10  14    4.18    6.39
  10   3 -14    6.70    4.81
 -10  -3  14   -1.79    6.52
 -10  -3  17  169.65   13.98
  13 -10  17  145.56   13.55
  13 -10  20  135.39   13.02
 -10  -3  20  145.08   13.83
  13 -10  23   61.55   10.06
 -10  -3  23   66.13   11.43
  13 -10  26   49.19    9.56
 -10  -3  26   48.95   10.36
   3 -13 -26   59.69    8.44
 -10  -3  29   23.46    9.58
  13 -10  29    8.76    7.02
  13 -10  32  128.80   13.62
 -10  -3  32  117.99   15.73
  13 -10  35  131.10   14.06
 -10  -3  35  121.98   17.01
  13 -10  38   74.54   11.83
 -10  -3  38   72.38   15.18
   4 -13  38   74.70   14.89
   4 -13  35  125.56   16.27
   4 -13  32   32.88   11.66
   4 -13  29    0.74    7.61
   4 -13  26   55.50   11.71
   4 -13  23  702.52   30.50
   4 -13  20  311.80   19.84
   4 -13  17  157.44   14.55
   4 -13  14   39.20    9.23
   4 -13  11  130.50   12.97
   4 -13   8  415.96   20.84
   9   4   5 1330.00   22.84
   4 -13   5 1316.08   37.09
   4 -13   2  814.74   28.87
  -9  -4  -2  843.33   18.95
   9   4   2  826.96   19.21
   4 -13  -1  170.23   13.67
  -9  -4   1  160.27    8.97
   9   4  -1  186.76    9.54
   9   4  -4   90.55    7.83
  -9  -4   4   76.12    7.33
  -9  -4   7  418.75   16.76
   9   4  -7  407.98   16.90
   9   4 -10  571.71   21.23
  -9  -4  10  557.68   20.62
  -9  -4  13  458.11   19.94
   9   4 -13  465.13   20.04
  13  -9  13  465.58   21.74
   9   4 -16   81.27    9.77
  -9  -4  16   95.66   10.70
  13  -9  16   75.81   10.35
  13  -9  19   13.36    6.32
  -9  -4  19   15.77    8.22
  13  -9  22  182.13   14.33
  -9  -4  22  193.97   15.78
   4 -13 -25  226.98   15.06
  13  -9  25  231.13   15.91
  -9  -4  25  206.85   17.08
  13  -9  28  371.97   20.00
  -9  -4  28  425.13   24.76
  13  -9  31   60.47    9.78
  -9  -4  31   41.37   11.55
  13  -9  34    0.02    6.81
  -9  -4  34  -10.64   10.14
  13  -9  37   44.09   10.01
  -9  -4  37   73.01   14.71
   5 -13  39  -16.93   11.82
   5 -13  36   22.30   10.75
   5 -13  33  103.47   14.93
   5 -13  30   76.72   13.53
   5 -13  27   20.87    9.41
   5 -13  24   48.16   10.66
   5 -13  21   39.71   10.23
   5 -13  18  334.98   20.02
   5 -13  15  693.27   28.20
   5 -13  12  258.27   17.14
   5 -13   9   48.03    9.15
   5 -13   6  118.25   12.43
  -8  -5  -6  104.87    4.97
   5 -13   3   43.97    9.10
   8   5   3   51.49    4.84
  -8  -5  -3   46.65    4.59
   8   5   0  722.00   19.27
   5 -13   0  691.80   26.77
  -8  -5   0  744.95   18.65
  -8  -5   3  617.69   18.58
   8   5  -3  641.08   19.29
   8   5  -6  125.64    9.29
  -8  -5   6  114.31    9.07
   8   5  -9   18.88    5.38
  -8  -5   9   14.20    5.37
  13  -8  12  390.00   19.69
   8   5 -12  413.52   18.53
  -8  -5  12  402.22   18.06
  13  -8  15  779.65   26.93
   8   5 -15  756.29   26.84
  -8  -5  15  760.22   26.59
  -8  -5  18  299.61   17.76
  13  -8  18  327.79   17.59
  13  -8  21  191.29   14.03
  -8  -5  21  192.15   15.40
  13  -8  24    7.43    5.95
   5 -13 -24   11.30    5.62
  -8  -5  24   17.03    8.08
  13  -8  27  205.25   14.33
  -8  -5  27  189.70   17.26
  13  -8  30  122.81   12.16
  -8  -5  30  132.27   14.82
  13  -8  33   77.62   10.39
  -8  -5  33   71.17   13.33
  13  -8  36    8.42    6.64
  -8  -5  36   13.29    8.89
  13  -8  39   -8.04    7.22
  -8  -5  39   24.51   11.60
   6 -13  37    0.62    8.90
   6 -13  34   -0.75    9.19
   6 -13  31   72.82   13.05
   6 -13  28  213.34   18.41
   6 -13  25  183.31   16.62
   6 -13  22   22.08    8.92
   6 -13  19   72.90   11.22
   6 -13  16   61.89   10.35
   6 -13  13  267.64   17.49
  13  -7 -13  287.90   16.89
   6 -13  10  502.49   23.45
   6 -13   7  562.40   24.63
  -7  -6  -7  593.19   11.98
   7   6   4  117.71    7.08
   6 -13   4  110.55   11.73
  -7  -6  -4  110.48    6.05
   7   6   1  156.56    8.82
  -7  -6  -1  149.48    8.11
   7   6  -2  340.68   13.92
  -7  -6   2  338.54   13.27
  -7  -6   5 1149.81   27.70
   7   6  -5 1161.71   28.79
   7   6  -8  570.24   20.40
  -7  -6   8  547.03   19.74
  -7  -6  11  111.37   10.25
   7   6 -11  116.05    9.98
  -7  -6  14    9.84    6.49
   7   6 -14   11.76    5.65
  13  -7  14   15.14    6.01
  -7  -6  17   57.54    9.14
   7   6 -17   58.30    8.55
  13  -7  17   59.92    8.36
  13  -7  20  219.68   13.83
  -7  -6  20  206.71   15.87
  -7  -6  23  348.79   20.62
  13  -7  23  368.82   17.56
  13  -7  26   51.71    8.11
  -7  -6  26   43.53   10.37
  13  -7  29   59.89    8.60
  -7  -6  29   61.48   11.72
  13  -7  32   98.13   10.60
  -7  -6  32  104.16   14.51
  13  -7  35  119.91   11.98
  -7  -6  35  139.72   16.83
  13  -7  38   72.59   10.19
  -7  -6  38   78.38   15.22
   7 -13  38   49.55   12.34
   7 -13  35  126.76   16.46
   7 -13  32   77.53   13.28
  -6  -7 -29    0.77    1.66
   7 -13  29    0.47    8.17
   7 -13  26   38.25    9.62
   7 -13  23  488.39   25.46
   7 -13  20  904.99   33.41
   7 -13  17  360.48   20.91
   7 -13  14   38.79    9.45
  13  -6 -14   37.39    7.41
  -6  -7 -11   11.74    1.52
   7 -13  11    5.43    7.28
  13  -6 -11   20.65    5.93
  -6  -7  -8  837.59   15.67
   7 -13   8  802.85   29.87
   7 -13   5  795.82   29.90
  -6  -7  -5  835.93   17.85
  -6  -7  -2 1382.31   26.50
   6   7   2 1391.08   29.35
  -6  -7   1  208.85   10.50
   6   7  -1  202.55   10.91
   6   7  -4  430.31   16.66
  -6  -7   4  422.21   15.69
  -6  -7   7  759.98   22.92
   6   7  -7  765.82   23.98
   6   7 -10  370.17   17.45
  -6  -7  10  362.29   16.75
  -6  -7  13  337.91   17.03
   6   7 -13  397.77   18.95
  13  -6  13  360.65   16.71
  13  -6  16  318.04   15.40
   6   7 -16  289.89   17.02
  -6  -7  16  302.06   17.15
  -6  -7  19    2.96    6.77
  13  -6  19   -0.86    4.99
  -6  -7  22  143.06   14.33
  13  -6  22  134.89   10.46
  13  -6  25  211.57   12.89
  -6  -7  25  222.53   17.59
  13  -6  28  145.83   11.13
  -6  -7  28  153.57   15.85
  13  -6  31   44.78    8.02
  -6  -7  31   57.61   12.23
  13  -6  34   -8.77    5.94
  -6  -7  34    7.81    9.56
  -6  -7  37    8.37    9.49
   8 -13  39    6.54   10.10
   8 -13  36   59.99   12.69
   8 -13  33   83.78   13.89
   8 -13  30   21.09    8.24
   8 -13  27   12.57    8.20
  -5  -8 -27   15.82    2.81
   8 -13  24    4.10    8.14
  -5  -8 -24    3.68    1.69
  -5  -8 -21  123.75    4.70
  -5  -8 -21  124.04    5.54
  -5  -8 -18  478.40    9.88
  -5  -8 -18  462.09    9.20
  -5  -8 -15  534.20   11.11
   8 -13  15  601.93   26.39
  -5  -8 -15  552.92   10.84
   8 -13  12  501.44   24.42
  13  -5 -12  567.72   23.21
  -5  -8 -12  564.01   12.06
  13  -5  -9   14.73    5.66
   8 -13   9    7.61    7.46
  -5  -8  -9   14.91    2.90
   8 -13   6   28.82    8.44
  -5  -8  -6   41.83    4.63
  13  -5  -6   45.60    6.95
  -5  -8  -3  375.09   12.88
  -5  -8   0 1536.05   30.59
   5   8   0 1507.51   33.21
  -5  -8   3   91.54    7.82
   5   8  -3  100.21    8.89
   5   8  -6   76.66    8.22
  -5  -8   6   68.46    7.80
  -5  -8   9   71.02    8.38
   5   8  -9   63.98    7.86
  -5  -8  12  248.10   14.82
   5   8 -12  268.15   15.64
  13  -5  12  255.01   13.69
  -5  -8  15  680.70   25.27
   5   8 -15  675.97   26.09
  13  -5  15  688.26   21.48
  -5  -8  18  193.40   14.69
  13  -5  18  218.65   11.89
  13  -5  21   31.36    5.89
  -5  -8  21   36.64    8.62
  -5  -8  24   72.78   11.82
  13  -5  24   63.01    7.05
  -5  -8  27   87.30   12.94
  13  -5  27   78.66    8.12
  -5  -8  30   26.70   10.05
  13  -5  30   34.61    6.55
  13  -5  33   65.81    8.28
  -5  -8  33   67.09   13.07
  -5  -8  36   30.61   10.72
  -5  -8  39    9.33    9.58
   9 -13  37    6.91    9.13
   9 -13  34    9.26    9.40
   9 -13  31   35.52   10.68
  -4  -9 -28  177.31    8.57
   9 -13  28  169.16   16.45
  -4  -9 -25  227.38    9.16
   9 -13  25  219.24   17.98
  -4  -9 -22   34.73    3.75
   9 -13  22   37.51    9.95
   9 -13  19   65.06   10.72
  -4  -9 -19   73.69    4.78
   9 -13  16   77.71   11.97
  -4  -9 -16   77.25    5.49
  -4  -9 -13  475.02   13.12
  13  -4 -13  466.27   21.08
   9 -13  13  471.51   23.41
  -4  -9 -10  314.98   11.05
   9 -13  10  292.81   19.01
  13  -4 -10  306.66   16.43
   9 -13   7  539.29   25.19
  -4  -9  -7  572.14   16.09
  13  -4  -4   77.87    8.04
  -4  -9  -4   90.01    6.94
  -4  -9  -1  401.04   14.66
  -4  -9   2  303.87   13.65
   4   9  -2  304.38   15.21
   4   9  -5  392.71   17.73
  -4  -9   5  379.33   16.30
  -4  -9   8  967.34   27.69
   4   9  -8  958.05   29.24
   4   9 -11   43.80    7.89
  -4  -9  11   44.71    7.66
  13  -4  14   12.38    4.50
  -4  -9  14    5.08    6.13
   4   9 -14   11.72    5.50
  13  -4  17   99.99    7.53
  -4  -9  17   89.94   11.03
  -4  -9  20  503.57   23.85
  13  -4  20  509.53   16.35
  -4  -9  23   67.56   10.79
  13  -4  23   85.51    7.31
  -4  -9  26   19.66    9.71
  13  -4  26   15.70    4.49
  -4  -9  29   28.68    9.74
  13  -4  29   12.99    4.82
  -4  -9  32   46.00   11.57
  13  -4  32   59.39    7.28
  -4  -9  35  103.26   15.47
  -4  -9  38   83.06   15.13
  10 -13  38   26.75   11.04
  10 -13  35   83.72   14.01
  10 -13  32  179.97   17.86
  10 -13  29   24.90    9.23
  10 -13  26   -1.17    9.01
  -3 -10 -26    6.11    3.25
  10 -13  23  126.80   14.10
  -3 -10 -23  130.35    7.59
  10 -13  20  158.53   15.30
  -3 -10 -20  175.37    8.52
  10 -13  17   28.59    9.31
  10 -13  14    3.73    7.89
  -3 -10 -14    4.30    3.55
  13  -3 -14   14.11    5.48
  13  -3 -11  148.05   11.83
  -3 -10 -11  139.28    8.44
  10 -13  11  120.62   13.63
  10 -13   8 1038.74   35.83
  -3 -10  -8 1016.11   24.07
  13  -3  -8 1051.54   30.31
  13  -3  -5  658.91   22.57
  -3 -10  -5  651.46   19.23
  13  -3  -2  449.89   17.53
  -3 -10  -2  452.52   16.52
  13  -3   1  483.97   17.63
  -3 -10   1  497.68   18.03
   3  10  -4    4.16    5.02
  -3 -10   4    3.75    4.84
   3  10  -7  162.05   12.38
  -3 -10   7  146.99   11.33
  -3 -10  10  164.47   12.36
   3  10 -10  160.85   12.85
  -3 -10  13  505.02   21.87
  13  -3  13  495.43   15.78
   3  10 -13  523.77   23.10
  13  -3  16   68.48    5.71
  -3 -10  16   54.02    9.49
  -3 -10  19   -3.78    7.69
  13  -3  19    3.76    3.21
  -3 -10  22   25.74    8.25
  13  -3  22   16.20    3.77
  -3 -10  25   35.28    9.70
  13  -3  25   42.52    5.03
  -3 -10  28   74.79   12.29
  13  -3  28   94.32    7.13
  -3 -10  31   22.36   10.25
  13  -3  31   14.94    4.45
  -3 -10  34   -4.46    9.40
  -3 -10  37   13.90   10.01
  11 -13  36   40.26   11.36
  11 -13  33  188.85   18.48
  11 -13  30  133.31   15.37
  11 -13  27  103.20   13.91
  -2 -11 -27   92.89    7.63
  11 -13  24   -4.33    8.62
  -2 -11 -24    5.11    3.54
  -2 -11 -21    8.47    3.79
  11 -13  21   -0.61    8.56
  11 -13  18   72.68   11.79
  11 -13  15  435.25   23.16
  13  -2 -15  387.32   19.97
  11 -13  12  331.25   20.62
  -2 -11 -12  326.32   14.27
  13  -2 -12  335.15   17.68
  -2 -11  -9    9.05    4.58
  13  -2  -9    5.16    5.12
  -2 -11  -6  138.48    9.56
  13  -2  -6  143.91   10.59
  -2 -11  -3  362.50   15.52
  13  -2  -3  358.31   15.81
  -2 -11   0 1400.97   32.74
  13  -2   0 1364.37   31.06
  13  -2   3  143.88    9.01
  -2 -11   3  147.84   11.25
  -2 -11   6   47.56    7.72
  13  -2   6   60.40    5.68
   2  11  -6   59.97    8.35
  -2 -11   9    5.75    5.77
   2  11  -9    9.34    5.08
   2  11 -12  337.71   19.11
  13  -2  12  340.41   11.97
  -2 -11  12  336.97   18.13
  13  -2  15  283.67    9.62
  -2 -11  15  329.84   18.69
  -2 -11  18  168.64   14.27
  13  -2  18  163.66    6.71
  13  -2  21   19.12    2.87
  -2 -11  21   14.91    7.75
  13  -2  24   11.17    2.67
  -2 -11  24   10.16    8.42
  -2 -11  27   95.65   13.91
  13  -2  27   94.98    5.96
  -2 -11  30   48.29   11.14
  -2 -11  33   63.67   12.40
  -2 -11  36    8.57    9.99
  12 -13  37   38.12   11.31
  12 -13  34   21.60   10.76
  12 -13  31   79.06   13.48
  12 -13  28  158.16   16.27
  12 -13  25  145.38   15.61
  12 -13  22  171.14   16.24
  -1 -12 -22  169.98   10.58
  12 -13  19   84.46   12.09
  12 -13  16   43.27    9.77
  12 -13  13  152.24   14.91
  -1 -12 -13  175.53   11.89
  13  -1 -13  172.24   13.37
  -1 -12 -10  135.75   10.57
  12 -13  10  113.62   13.34
  13  -1 -10  136.08   11.23
  -1 -12  -7  183.25   12.13
  13  -1  -7  201.73   12.71
  -1 -12  -4  184.63   12.05
  13  -1  -4  174.60   11.15
  -1 -12  -1  224.02   13.20
  13  -1  -1  204.00   11.24
  -1 -12   2  427.14   18.87
  13  -1   2  410.17   15.03
  13  -1   5 1049.61   23.58
  -1 -12   5 1093.23   31.15
   1  12  -8 1247.96   37.48
  13  -1   8 1175.20   23.18
  -1 -12   8 1165.47   33.26
  13  -1  11  115.58    5.81
   1  12 -11  126.48   12.45
  -1 -12  11  121.80   12.01
  13  -1  14    4.91    1.69
  13  -1  14    5.58    1.66
  -1 -12  14    0.02    6.61
  -1 -12  17   41.80    9.63
  -1 -12  20  311.89   20.05
  -1 -12  23  175.26   16.14
  -1 -12  26   47.10   10.12
  -1 -12  29    1.30    8.64
  -1 -12  32   35.48   11.63
  -1 -12  35  110.99   16.00
  13 -13  35   44.69   10.88
  13 -13  32   62.55   11.88
  13 -13  29    3.40    8.24
  13 -13  26   10.59    8.41
   0 -13 -26   17.61    5.10
  13 -13  23  131.00   14.60
  13 -13  20  397.76   23.29
  13 -13  17  132.44   14.55
  13   0 -14    4.10    5.07
  13 -13  14   -2.36    8.64
  13 -13  11   17.24    7.82
   0 -13 -11   25.19    6.24
  13   0  -8  373.98   17.56
   0 -13  -8  363.32   17.60
  13   0  -5  858.08   25.71
   0 -13  -5  857.69   27.12
  13   0  -2  473.54   17.62
   0 -13  -2  463.68   19.81
   0 -13   1  182.66   13.04
  13   0   1  168.14    9.82
  13   0   4   22.90    4.23
   0 -13   4   19.37    6.80
  13   0   7  271.62    9.86
   0 -13   7  253.69   16.18
   0  13 -10  360.19   20.74
   0 -13  10  344.84   19.03
  13   0  10  323.31    8.83
   0 -13  13  432.64   21.69
   0 -13  16  130.17   13.68
   0 -13  19   72.80   11.34
   0 -13  22  219.15   18.02
   0 -13  25  342.55   22.40
   0 -13  28  141.53   16.05
   0 -13  31   62.13   12.75
   0 -13  34  -19.44   10.23
   0 -13  37   17.96   10.28
   1 -14  36   41.69   11.81
   1 -14  33   65.12   13.45
   1 -14  30  181.26   18.40
   1 -14  27   26.49    9.49
   1 -14  24   14.55    8.55
   1 -14  21  247.58   19.00
   1 -14  18  483.15   25.09
   1 -14  15  601.57   27.14
   1 -14  12  223.49   16.22
   1 -14   9  116.82   12.26
  13   1   9   99.90    4.56
  13   1   6    3.77    2.63
   1 -14   6   -6.36    7.90
  13   1   3  719.46   18.93
   1 -14   3  694.54   26.35
  13   1   0  656.33   19.67
   1 -14   0  629.12   24.54
  13   1  -3  287.40   13.89
   1 -14  -3  265.54   16.05
  13   1  -6  139.32   10.77
   1 -14  -6  160.54   13.28
   1 -14  -9   48.48    8.34
  13   1  -9   50.97    7.44
  14 -13  12  367.31   22.76
  13   1 -12  418.71   20.08
  14 -13  15  214.62   17.83
  14 -13  18  291.41   20.54
  14 -13  21   88.57   12.87
  14 -13  24    0.33    8.41
 -13  -1  24    0.72    7.90
   1 -14 -24    6.23    4.59
  14 -13  27   99.08   13.64
  14 -13  30  230.96   18.94
  14 -13  33  137.73   16.13
  14 -13  36   35.34   10.93
   2 -14  34   13.04   10.82
   2 -14  31    3.39    9.54
   2 -14  28   17.30   10.05
   2 -14  25   38.55   10.26
   2 -14  22   31.95   10.09
   2 -14  19   -3.62    8.23
   2 -14  16  195.65   16.35
   2 -14  13  269.67   18.03
   2 -14  10  582.33   25.46
  12   2   7  930.74   17.37
   2 -14   7 1059.70   33.53
  12   2   4  175.07    8.22
   2 -14   4  167.78   13.70
  12   2   1   13.74    3.92
   2 -14   1    5.26    6.41
  12   2  -2  401.08   15.65
   2 -14  -2  396.64   20.16
  12   2  -5  962.04   26.70
   2 -14  -5  956.30   31.19
  12   2  -8  416.18   18.31
   2 -14  -8  384.82   20.07
  14 -12  11   32.61    9.81
  12   2 -11   27.59    6.38
 -12  -2  11   19.43    6.10
  14 -12  14   -0.75    7.97
  12   2 -14    9.42    5.69
 -12  -2  14   13.73    6.95
 -12  -2  17  252.63   17.34
  14 -12  17  230.96   17.79
  14 -12  20  390.81   22.34
 -12  -2  20  343.02   20.67
  14 -12  23  272.51   19.20
 -12  -2  23  244.23   18.54
  14 -12  26  110.65   13.60
   2 -14 -26  107.68   10.70
 -12  -2  26  115.39   14.42
  14 -12  29   11.48    7.90
 -12  -2  29    7.71    8.72
 -12  -2  32    3.29    8.91
  14 -12  32   18.04    8.94
 -12  -2  35   19.54   10.04
  14 -12  35   31.34    9.74
   3 -14  35   48.11   12.44
   3 -14  32   85.59   14.35
   3 -14  29   62.05   12.35
   3 -14  26   18.06    9.26
   3 -14  23   89.14   12.93
   3 -14  20  232.63   18.43
   3 -14  17  248.32   18.24
   3 -14  14  135.05   14.19
   3 -14  11   70.35   10.64
   3 -14   8  774.66   28.44
  11   3   8  580.65   10.57
  11   3   5  518.22   13.28
   3 -14   5  540.95   23.65
   3 -14   2  393.16   20.20
  11   3   2  432.51   13.77
  11   3  -1   83.16    7.11
   3 -14  -1   47.25    8.72
   3 -14  -4  168.25   14.30
  11   3  -4  189.22   11.06
 -11  -3   4  193.09   11.41
  11   3  -7  371.92   16.38
 -11  -3   7  385.39   16.94
  11   3 -10  275.21   15.36
 -11  -3  10  297.89   16.00
  14 -11  13  430.55   22.75
  11   3 -13  422.65   19.97
 -11  -3  13  424.00   20.23
  14 -11  16   22.77    8.48
 -11  -3  16   25.54    7.63
  14 -11  19   12.33    7.66
 -11  -3  19    5.23    7.04
 -11  -3  22   84.47   11.55
  14 -11  22   75.00   11.41
 -11  -3  25  287.05   20.56
   3 -14 -25  284.09   16.70
  14 -11  25  285.32   19.10
  14 -11  28   83.34   11.68
 -11  -3  28   71.84   13.08
 -11  -3  31   -0.19    9.75
  14 -11  31   10.08    8.18
  14 -11  34    2.98    6.68
 -11  -3  34    5.86    9.78
  14 -11  37    6.50    7.45
 -11  -3  37   28.75   12.16
   4 -14  36   19.45   11.52
   4 -14  33  149.99   17.45
   4 -14  30  455.17   27.07
   4 -14  27  325.48   22.43
   4 -14  24   32.79   10.49
   4 -14  21   63.80   12.12
   4 -14  18  278.69   19.55
   4 -14  15  396.38   22.05
   4 -14  12  150.22   13.95
   4 -14   9   37.21    8.64
  10   4   6  306.84    9.24
   4 -14   6  308.11   18.61
   4 -14   3 1071.30   34.37
  10   4   3 1088.07   22.65
   4 -14   0  700.64   27.73
 -10  -4   0  684.93   19.03
  10   4   0  721.32   19.55
  10   4  -3  269.83   12.68
 -10  -4   3  276.45   12.81
   4 -14  -3  267.02   17.71
  10   4  -6  139.48   10.07
 -10  -4   6  145.48   10.32
  10   4  -9    0.71    4.05
 -10  -4   9   -0.02    4.93
  14 -10  12  118.68   13.26
  10   4 -12  122.91   10.96
 -10  -4  12  116.31   11.04
  10   4 -15   90.52    9.97
 -10  -4  15   84.03   10.57
  14 -10  15   83.23   10.85
 -10  -4  18  152.23   13.88
  14 -10  18  132.36   13.00
 -10  -4  21    3.73    6.66
  14 -10  21   12.57    7.45
  14 -10  24    5.44    6.95
 -10  -4  24   14.40    8.46
  14 -10  27   63.97   10.11
 -10  -4  27   74.20   12.45
  14 -10  30  173.00   15.32
 -10  -4  30  175.32   17.87
  14 -10  33  231.81   17.25
 -10  -4  33  239.38   20.97
  14 -10  36   36.57    9.42
 -10  -4  36   21.69   10.59
   5 -14  37   12.41   10.56
   5 -14  34   -0.15    8.52
   5 -14  31   95.99   14.98
   5 -14  28  267.71   20.94
   5 -14  25  173.21   16.95
   5 -14  22  208.50   17.56
   5 -14  19   44.18   10.72
   5 -14  16  249.63   18.00
   5 -14  13  214.97   16.60
   5 -14  10  640.63   27.02
   5 -14   7  179.98   15.32
  -9  -5  -4    0.08    2.61
   9   5   4   -1.10    2.68
   5 -14   4    1.19    6.87
   9   5   1  114.55    7.43
  -9  -5  -1  101.07    7.03
   5 -14   1   99.98   11.89
  -9  -5   2  290.27   12.61
   9   5  -2  301.91   13.20
  -9  -5   5  663.63   20.87
   9   5  -5  648.77   21.12
   9   5  -8  415.26   17.91
  -9  -5   8  447.11   18.11
   9   5 -11  167.24   12.22
  -9  -5  11  143.77   11.72
  14  -9  14   40.95    8.62
   9   5 -14   34.94    7.30
  -9  -5  14   43.85    8.83
  14  -9  17   67.79    9.60
  -9  -5  17   84.90   11.15
  14  -9  20  308.33   18.11
  -9  -5  20  355.46   20.17
  14  -9  23  206.38   15.13
  -9  -5  23  186.96   15.95
  14  -9  26   52.03    8.91
  -9  -5  26   44.23   10.41
  -9  -5  29   24.37    9.89
  14  -9  29    8.35    6.51
  14  -9  32  122.04   12.75
  -9  -5  32  153.57   17.32
  14  -9  35   96.19   11.86
  -9  -5  35  100.07   15.18
  14  -9  38   62.82   10.50
  -9  -5  38   64.74   14.25
   6 -14  38   21.74   11.09
   6 -14  35   40.88   12.15
   6 -14  32   -2.85    8.51
   6 -14  29   41.15   11.37
   6 -14  26  200.14   18.27
   6 -14  23  176.99   16.39
   6 -14  20  109.30   13.49
   6 -14  17  155.99   15.13
   6 -14  14   72.46   11.27
   6 -14  11   17.49    7.78
   6 -14   8  323.51   19.45
   8   6   5   87.13    6.01
  -8  -6  -5   91.78    5.50
   6 -14   5   92.46   11.73
   8   6   2   24.85    4.12
   6 -14   2   14.10    7.18
  -8  -6  -2   27.70    4.24
   8   6  -1    1.50    3.29
  -8  -6   1    3.90    3.37
  -8  -6   4   76.20    7.27
   8   6  -4   84.58    7.73
  -8  -6   7  631.54   21.37
   8   6  -7  638.42   22.19
   8   6 -10 1264.70   33.73
  -8  -6  10 1256.10   32.48
  14  -8  13  804.92   28.13
   8   6 -13  816.60   27.88
  -8  -6  13  867.25   28.21
  14  -8  16  420.97   20.02
   8   6 -16  408.77   20.24
  -8  -6  16  396.57   19.78
  14  -8  19    3.76    5.27
  -8  -6  19   -0.46    6.98
  14  -8  22  108.63   10.62
  -8  -6  22  142.07   13.99
  -8  -6  25  322.48   20.78
  14  -8  25  352.45   18.25
  14  -8  28   94.79   10.21
  -8  -6  28   62.86   11.89
  14  -8  31   -0.39    5.61
  -8  -6  31   10.39    8.69
  14  -8  34   14.63    6.60
  -8  -6  34   15.80   10.42
  14  -8  37   56.40    9.69
  -8  -6  37   63.45   13.71
   7 -14  36    5.82    9.32
   7 -14  33   52.40   12.19
   7 -14  30  115.33   14.71
   7 -14  27   36.51   10.23
   7 -14  24   -6.17    9.29
   7 -14  21  167.17   16.43
   7 -14  18  103.97   13.56
   7 -14  15  440.39   23.51
  14  -7 -12  541.09   23.56
   7 -14  12  511.03   24.85
  -7  -7  -9    5.94    1.49
   7 -14   9   11.15    7.70
  -7  -7  -6   19.36    3.17
   7 -14   6    8.78    7.50
  -7  -7  -3   24.68    4.14
   7   7   3   23.87    4.69
   7   7   0  166.98    9.95
  -7  -7   0  169.19    9.45
  -7  -7   3  247.27   12.06
   7   7  -3  254.99   13.05
  -7  -7   6   92.75    8.47
   7   7  -6   91.52    8.62
  -7  -7   9    0.09    5.63
   7   7  -9    0.30    4.51
  -7  -7  12  258.37   15.23
   7   7 -12  234.81   14.91
  14  -7  15  549.57   21.73
   7   7 -15  547.86   23.41
  -7  -7  15  541.06   22.96
  14  -7  18  427.70   18.75
  -7  -7  18  428.78   21.54
  14  -7  21  184.58   12.76
  -7  -7  21  176.18   15.48
  14  -7  24    3.13    4.99
  -7  -7  24    4.84    7.40
  14  -7  27  103.55   10.28
  -7  -7  27  118.99   14.65
  14  -7  30  101.12   10.39
  -7  -7  30  108.79   14.91
  -7  -7  33  100.89   14.71
  14  -7  33   83.93    9.91
  -7  -7  36   11.62    9.16
   8 -14  37   14.40    9.31
   8 -14  34    0.95    8.91
   8 -14  31    4.62    8.54
   8 -14  28   63.37   12.05
   8 -14  25  109.24   14.29
   8 -14  22  301.79   20.73
   8 -14  19   13.84    7.72
   8 -14  16  162.48   15.20
  14  -6 -13  507.43   22.80
   8 -14  13  419.02   22.72
   8 -14  10  603.30   27.29
  -6  -8 -10  619.60   12.87
  14  -6  -7  704.62   25.54
  -6  -8  -7  699.56   15.92
   8 -14   7  654.63   28.30
  -6  -8  -4  326.63   11.46
   8 -14   4  262.02   18.58
  -6  -8  -1   13.02    4.15
   6   8   1   23.23    4.86
  -6  -8   2  146.67    9.62
   6   8  -2  151.85   10.30
  -6  -8   5  403.91   16.67
   6   8  -5  408.32   17.50
  -6  -8   8  309.89   15.28
   6   8  -8  329.12   16.37
  -6  -8  11   -0.92    5.98
   6   8 -11   -5.73    5.64
  -6  -8  14    7.78    6.48
  14  -6  14   18.46    5.95
   6   8 -14    9.21    5.22
  14  -6  17  144.23   10.67
  -6  -8  17  140.51   12.97
  14  -6  20  381.56   16.72
  -6  -8  20  354.62   20.40
  -6  -8  23  112.78   13.01
  14  -6  23  126.32   10.20
  -6  -8  26   15.65    7.77
  14  -6  26   23.99    5.90
  -6  -8  29   62.46   11.79
  14  -6  29   53.60    7.66
  14  -6  32   21.57    6.19
  -6  -8  32   22.38    9.51
  -6  -8  35   35.29   12.11
  -6  -8  38   20.33   10.92
   9 -14  38   47.58   12.18
   9 -14  35  139.54   17.14
   9 -14  32   43.45   12.03
   9 -14  29   -1.95    7.92
   9 -14  26   15.94    9.30
  -5  -9 -23  108.29    4.56
  -5  -9 -23   88.43    5.05
  -5  -9 -20   94.05    4.07
  -5  -9 -20  102.35    4.55
  -5  -9 -17   50.96    3.50
  -5  -9 -17   45.83    3.11
   9 -14  17   64.35   11.59
   9 -14  14   55.35   11.42
  -5  -9 -14   43.89    3.64
  -5  -9 -11   34.04    3.75
   9 -14  11   34.45    9.23
  14  -5 -11   34.25    6.98
  14  -5  -8  504.81   21.60
  -5  -9  -8  507.02   13.97
  -5  -9  -5  516.53   15.51
  14  -5  -5  507.39   21.08
   9 -14   5  541.93   26.32
  -5  -9  -2  195.59   10.21
  -5  -9   1   82.61    7.66
   5   9  -1   90.65    8.55
   5   9  -4  252.19   14.00
  -5  -9   4  273.19   13.73
  -5  -9   7  594.67   21.06
   5   9  -7  567.36   22.25
  -5  -9  10  434.58   19.11
   5   9 -10  433.97   20.00
  14  -5  13  654.97   21.87
  -5  -9  13  607.05   23.70
   5   9 -13  605.08   24.86
  -5  -9  16  106.65   11.77
  14  -5  16  120.00    9.42
  -5  -9  19  174.26   14.59
  14  -5  19  193.18   11.13
  14  -5  22  162.26   10.24
  -5  -9  22  163.23   15.19
  14  -5  25  234.65   12.23
  -5  -9  25  229.31   17.94
  14  -5  28  220.58   12.26
  -5  -9  28  217.18   18.26
  -5  -9  31   20.44   10.43
  14  -5  31   13.22    4.84
  -5  -9  34   -1.57    9.44
  -5  -9  37   34.14   12.54
  10 -14  36   56.63   12.38
  10 -14  33  111.08   15.48
  10 -14  30  224.94   19.88
  10 -14  27  310.51   22.23
  -4 -10 -24   99.12    5.97
  10 -14  24  108.34   13.65
  -4 -10 -21   34.22    4.50
  10 -14  21   46.38   10.51
  -4 -10 -21   48.06    4.25
  -4 -10 -18   11.56    3.34
  -4 -10 -18    9.28    2.64
  10 -14  18    3.79    7.86
  -4 -10 -15  296.92   10.85
  10 -14  15  295.06   20.25
  10 -14  12  266.81   19.46
  -4 -10 -12  247.86   10.16
  14  -4 -12  262.29   16.00
  -4 -10  -9   24.75    4.17
  10 -14   9   12.05    7.60
  14  -4  -9   22.89    6.04
  -4 -10  -6   16.76    4.26
  14  -4  -6   20.85    5.87
  10 -14   6   12.73    7.77
  14  -4  -3  327.38   16.17
  -4 -10  -3  339.92   13.89
  14  -4   0 1368.50   33.56
  -4 -10   0 1467.51   31.94
   4  10  -3 1010.84   29.96
  -4 -10   3  954.22   26.54
   4  10  -6  376.91   18.75
  -4 -10   6  364.37   16.93
  -4 -10   9   27.60    6.88
   4  10  -9   24.84    6.64
  -4 -10  12  635.57   24.51
   4  10 -12  677.76   26.36
  -4 -10  15  537.57   23.12
  14  -4  15  520.44   17.20
  -4 -10  18   70.10   10.59
  14  -4  18   78.86    6.84
  -4 -10  21   -0.95    7.62
  14  -4  21    8.99    3.96
  -4 -10  24    5.47    7.18
  14  -4  24   -3.01    3.75
  14  -4  27  250.76   11.68
  -4 -10  27  239.20   19.15
  -4 -10  30  162.58   16.91
  14  -4  30  163.94    9.92
  -4 -10  33   76.05   13.21
  -4 -10  36   30.49   11.45
  11 -14  37    4.42    9.06
  11 -14  34   -2.37    8.68
  11 -14  31   45.92   12.17
  11 -14  28  283.44   20.75
  -3 -11 -25  311.37   11.90
  11 -14  25  323.49   22.07
  -3 -11 -22  134.50    7.81
  11 -14  22  113.35   13.68
  -3 -11 -19   93.57    6.71
  11 -14  19   68.84   11.95
  11 -14  16  136.17   14.70
  -3 -11 -16  139.42    8.99
  11 -14  13  609.09   28.72
  14  -3 -13  589.45   24.36
  -3 -11 -13  600.32   18.08
  -3 -11 -10  511.63   16.84
  14  -3 -10  514.37   21.74
  11 -14  10  481.12   25.12
  -3 -11  -7  585.11   18.53
  14  -3  -7  568.91   22.24
  -3 -11  -4   40.26    5.98
  14  -3  -4   37.74    6.09
  -3 -11  -1  229.53   12.69
  14  -3  -1  234.56   13.01
  -3 -11   2  368.65   16.56
  14  -3   2  368.03   15.73
   3  11  -5  694.07   25.84
  14  -3   5  686.58   20.74
  -3 -11   5  672.46   23.36
   3  11  -8  658.66   26.11
  -3 -11   8  684.04   24.28
   3  11 -11   19.66    6.73
  -3 -11  11   22.43    7.28
  -3 -11  14   16.72    6.81
  14  -3  14   10.79    3.89
  14  -3  17   54.28    5.16
  -3 -11  17   52.08    9.65
  -3 -11  20  160.94   15.29
  14  -3  20  143.91    7.35
  -3 -11  23  185.80   16.66
  14  -3  23  196.34    8.66
  14  -3  26    2.61    2.70
  -3 -11  26   -0.95    8.71
  -3 -11  29   -6.67    9.61
  -3 -11  32   33.39   11.18
  -3 -11  35   91.01   15.53
  12 -14  35   87.25   14.35
  12 -14  32   41.76   11.30
  12 -14  29    2.94    8.56
  12 -14  26  111.42   14.67
  -2 -12 -26  110.91    8.11
  12 -14  23  223.20   19.08
  -2 -12 -23  254.27   11.87
  12 -14  20  334.44   22.20
  -2 -12 -17  168.51   11.22
  12 -14  17  180.27   16.92
  -2 -12 -14   14.52    5.23
  12 -14  14   11.15    7.76
  14  -2 -11    3.41    4.79
  12 -14  11    5.31    7.69
  -2 -12 -11    5.01    4.25
  12 -14   8  503.18   26.35
  -2 -12  -8  554.94   19.42
  14  -2  -8  539.25   21.77
  -2 -12  -5  672.43   22.09
  14  -2  -5  658.98   23.09
  -2 -12  -2  251.10   13.72
  14  -2  -2  243.11   13.34
  14  -2   1  247.14   12.57
  -2 -12   1  239.04   14.09
  14  -2   4  273.91   12.64
  -2 -12   4  261.97   15.15
   2  12  -7 1164.04   36.17
  14  -2   7 1131.05   25.63
  -2 -12   7 1124.15   32.42
  -2 -12  10  578.73   23.99
   2  12 -10  616.38   26.42
  14  -2  10  581.26   16.26
  14  -2  13  266.45   10.11
  -2 -12  13  282.18   17.23
  14  -2  13  243.39    9.51
  -2 -12  16   98.89   12.00
  14  -2  16  105.30    5.59
  -2 -12  19    4.48    7.80
  14  -2  19   11.22    2.21
  -2 -12  22   40.17   10.26
  14  -2  22   49.55    3.37
  -2 -12  25  177.63   16.44
  14  -2  25  146.76    5.76
  -2 -12  28  124.29   15.33
  -2 -12  31   -4.23    9.89
  -2 -12  34   -6.48    9.51
  13 -14  36    9.52    9.22
  13 -14  33   72.49   12.82
  13 -14  30   85.38   13.70
  13 -14  27   22.87   10.01
  13 -14  24   10.87    8.69
  13 -14  21   50.11   11.06
  13 -14  18  111.19   14.14
  13 -14  15  272.54   20.09
  -1 -13 -15  308.96   16.09
  -1 -13 -12  338.30   16.62
  13 -14  12  315.98   22.34
  14  -1 -12  328.22   18.19
  -1 -13  -9    0.30    5.19
  14  -1  -9    2.01    4.76
  13 -14   9    2.72    8.83
  14  -1  -6   87.00    8.81
  -1 -13  -6  109.40    9.88
  -1 -13  -3  408.04   18.55
  14  -1  -3  381.89   16.75
  -1 -13   0  788.85   26.19
  14  -1   0  775.70   22.85
  14  -1   3  438.15   15.67
  -1 -13   3  438.05   19.78
  -1 -13   6   70.43    9.65
  14  -1   6   78.34    6.25
  -1 -13   9    9.00    6.86
   1  13  -9   -3.32    7.36
  14  -1   9    3.91    2.82
  14  -1  12  269.87    9.21
  -1 -13  12  254.56   16.73
  14  -1  12  285.36    8.76
  -1 -13  15  372.33   20.76
  14  -1  15  301.82    6.66
  -1 -13  18   83.30   12.16
  -1 -13  21   21.29    9.38
  -1 -13  24   54.31   11.54
  -1 -13  27   50.75   11.83
  -1 -13  30  104.11   14.65
  -1 -13  33   60.57   12.76
  -1 -13  36   -8.29   10.59
  14 -14  34    6.61    8.51
  14 -14  31   22.77    9.76
  14 -14  28  103.68   14.07
  14 -14  25   79.88   13.44
   0 -14 -25  119.11   10.06
  14 -14  22   13.17    8.62
  14 -14  19   -2.13    7.95
  14 -14  16   48.97   10.90
   0 -14 -13  347.28   18.20
  14 -14  13  350.19   22.89
  14   0 -10  235.69   15.16
  14 -14  10  232.99   19.13
   0 -14 -10  251.47   15.35
   0 -14  -7   78.26    9.62
  14   0  -7   86.66    9.38
  14   0  -4   59.97    7.54
   0 -14  -4   52.38    8.71
   0 -14  -1  104.14   10.77
  14   0  -1  104.66    8.63
   0 -14   2  378.56   19.29
  14   0   2  411.07   15.28
   0 -14   5  167.37   13.95
  14   0   5  175.31    9.26
  14   0   8  140.01    7.05
   0 -14   8  139.09   13.00
   0 -14  11   10.45    7.26
  14   0  11   10.89    2.00
  14   0  11   10.32    2.18
   0 -14  14   32.50    8.95
   0 -14  17  342.71   21.20
   0 -14  20  520.57   26.53
   0 -14  23  377.50   23.32
   0 -14  26   51.88   10.86
   0 -14  29   -0.02    8.69
   0 -14  32   20.05   10.85
   0 -14  35   37.90   12.26
   1 -15  34  -13.42   10.96
   1 -15  31   20.71    9.48
   1 -15  28  140.73   16.81
   1 -15  25   79.45   13.51
   1 -15  22   27.97    9.90
   1 -15  19   19.19    9.25
   1 -15  16   79.49   11.89
   1 -15  13  177.81   15.57
  14   1  10  409.19    8.74
   1 -15  10  530.80   24.60
   1 -15   7  369.36   20.68
  14   1   7  375.02   11.59
  14   1   4    4.00    3.20
   1 -15   4   -3.27    7.62
  14   1   1  144.72    9.45
   1 -15   1  147.11   13.08
  14   1  -2  117.15    9.26
   1 -15  -2  119.67   11.98
   1 -15  -5  433.87   21.34
  14   1  -5  461.08   19.22
  14   1  -8  132.79   11.30
   1 -15  -8  116.87   11.87
   1 -15 -11   73.00    9.69
  14   1 -11   90.21   10.26
  15 -14  11   65.63   12.26
  15 -14  14   15.42    9.59
  15 -14  17  385.48   24.05
  15 -14  20  213.56   18.32
  15 -14  23   93.27   13.14
  15 -14  26   29.93   10.32
  15 -14  29    9.52    8.52
  15 -14  32   67.57   12.14
   2 -15  35   65.85   14.13
   2 -15  32   35.22   11.30
   2 -15  29   35.66   11.13
   2 -15  26    3.08    8.67
   2 -15  23  115.07   14.86
   2 -15  20  125.29   14.40
   2 -15  17   87.57   13.42
   2 -15  14  139.27   14.77
   2 -15  11   41.12    9.38
   2 -15   8  440.85   22.24
  13   2   8  366.48    9.52
   2 -15   5  635.93   26.46
  13   2   5  647.05   16.34
  13   2   2  622.64   18.25
   2 -15   2  584.73   25.28
  13   2  -1   60.03    6.79
   2 -15  -1   56.67    9.43
  13   2  -4   70.47    7.77
   2 -15  -4   59.34   10.43
  13   2  -7  228.69   13.76
   2 -15  -7  206.37   15.42
  13   2 -10  677.23   25.10
   2 -15 -10  639.58   26.78
  15 -13  13  352.61   22.45
  13   2 -13  357.06   18.88
 -13  -2  16   11.45    7.92
  15 -13  16   -0.02    8.09
  15 -13  19   45.77   10.85
 -13  -2  19   26.03    8.98
  15 -13  22  156.25   15.66
 -13  -2  22  148.47   15.21
  15 -13  25  291.00   21.16
 -13  -2  25  228.42   19.44
   2 -15 -25  244.93   15.88
 -13  -2  28  198.20   19.04
  15 -13  28  202.32   17.74
 -13  -2  31   76.78   13.51
  15 -13  31   83.41   12.95
  15 -13  34    8.01    8.36
   3 -15  33    3.42   10.09
   3 -15  30   33.65   11.55
   3 -15  27    3.34    7.87
   3 -15  24   -4.56    9.22
   3 -15  21   15.29    9.11
   3 -15  18  214.75   17.28
   3 -15  15  613.50   28.05
   3 -15  12  163.52   15.07
   3 -15   9   12.83    7.18
   3 -15   6   47.71    9.80
  12   3   6   56.26    4.47
  12   3   3  489.42   14.81
   3 -15   3  445.63   22.57
   3 -15   0  367.54   20.20
  12   3   0  376.89   14.56
  12   3  -3  344.39   14.93
   3 -15  -3  344.40   19.88
  12   3  -6   92.12    8.80
 -12  -3   6   97.94    9.32
   3 -15  -6   79.67   11.35
  12   3  -9   36.30    6.96
 -12  -3   9   43.90    7.92
  12   3 -12  397.48   19.73
 -12  -3  12  399.64   19.90
  15 -12  12  411.52   23.53
 -12  -3  15  172.61   14.43
  15 -12  15  138.51   14.88
 -12  -3  18  259.42   17.97
  15 -12  18  243.88   18.36
  15 -12  21   74.60   11.54
 -12  -3  21   73.63   11.83
  15 -12  24    9.19    8.17
 -12  -3  24   16.67    9.39
  15 -12  27   63.05   10.70
 -12  -3  27   48.03   11.20
 -12  -3  30  104.68   15.04
  15 -12  30   99.56   13.02
 -12  -3  33   47.66   12.73
  15 -12  33   52.04   11.19
   4 -15  34   -3.67    8.81
   4 -15  31    2.37    9.48
   4 -15  28   44.94   11.44
   4 -15  25  122.49   15.41
   4 -15  22  111.64   13.82
   4 -15  19   40.37    9.58
   4 -15  16    6.24    7.49
   4 -15  13  121.73   13.79
   4 -15  10  568.73   26.18
  11   4   7  158.55    6.15
   4 -15   7  179.63   15.42
  11   4   4   13.15    3.25
   4 -15   4   16.76    8.03
  11   4   1   53.47    5.71
   4 -15   1   65.81   10.13
 -11  -4   2  337.32   14.39
  11   4  -2  334.87   14.29
   4 -15  -2  311.67   19.06
   4 -15  -5  680.97   28.16
  11   4  -5  693.05   22.44
 -11  -4   5  692.37   22.65
  11   4  -8  332.31   16.61
 -11  -4   8  323.49   16.55
 -11  -4  11  124.35   11.65
  11   4 -11  115.16   10.61
  15 -11  14    4.11    7.52
  11   4 -14   12.43    6.18
 -11  -4  14   14.30    6.96
  15 -11  17  189.32   16.05
 -11  -4  17  204.69   15.75
  15 -11  20  135.96   13.69
 -11  -4  20  167.98   15.27
  15 -11  23  133.78   13.67
 -11  -4  23  160.60   15.76
  15 -11  26   42.99    9.54
 -11  -4  26   54.20   11.59
 -11  -4  29   39.17   11.51
  15 -11  29   26.04    8.29
 -11  -4  32   45.99   12.18
  15 -11  32   44.92   10.04
  15 -11  35   47.48   10.33
 -11  -4  35   65.08   14.35
   5 -15  35   62.78   13.63
   5 -15  32   87.74   14.98
   5 -15  29   37.60   11.86
   5 -15  26   -5.47    8.53
   5 -15  23  176.07   16.90
   5 -15  20  343.76   21.91
   5 -15  17   75.70   11.67
   5 -15  14  -11.62    9.71
   5 -15  11  144.37   14.17
   5 -15   8  479.67   24.09
  10   5   5  389.49   12.04
   5 -15   5  392.42   21.96
  10   5   2  643.62   17.78
   5 -15   2  614.10   27.25
 -10  -5  -2  604.45   17.07
   5 -15  -1   83.47   11.12
 -10  -5   1   79.54    7.01
  10   5  -1   84.32    7.43
  10   5  -4   90.13    8.17
 -10  -5   4   86.24    8.01
 -10  -5   7  117.54   10.02
  10   5  -7  109.57    9.43
  10   5 -10  426.94   19.59
 -10  -5  10  440.89   19.17
  15 -10  13  359.96   20.83
 -10  -5  13  365.42   18.73
  10   5 -13  369.25   18.91
  15 -10  16   33.66    8.42
 -10  -5  16   25.37    7.75
  15 -10  19   -1.05    6.36
 -10  -5  19    0.72    7.39
  15 -10  22   24.24    7.80
 -10  -5  22   24.27    8.53
  15 -10  25  100.59   11.81
 -10  -5  25  108.20   13.91
  15 -10  28   36.80    8.65
 -10  -5  28   12.26    9.42
  15 -10  31   50.06    9.50
 -10  -5  31   43.03   11.07
  15 -10  34   12.27    7.67
 -10  -5  34   28.49   12.26
   6 -15  36    2.19    9.86
   6 -15  33   56.67   12.89
   6 -15  30  108.22   15.48
   6 -15  27   41.96   11.59
   6 -15  24   -6.43    9.72
   6 -15  21   24.31    9.87
   6 -15  18  409.84   23.66
   6 -15  15  390.57   22.78
   6 -15  12  110.85   13.09
   6 -15   9   -7.66    7.58
   6 -15   6    0.81    7.06
  -9  -6  -6   -1.39    2.49
   6 -15   3  570.66   26.53
  -9  -6  -3  628.37   16.48
   9   6   3  622.37   17.54
   9   6   0  544.03   17.61
   6 -15   0  525.98   25.52
  -9  -6   0  554.09   17.00
   9   6  -3  180.09   11.15
  -9  -6   3  178.95   10.55
   9   6  -6    6.56    4.51
  -9  -6   6    9.74    5.11
  -9  -6   9  337.73   16.52
   9   6  -9  350.37   17.13
   9   6 -12  795.35   27.62
  -9  -6  12  785.77   27.06
  15  -9  15  600.50   25.48
  -9  -6  15  622.13   25.18
  -9  -6  18  246.45   16.76
  15  -9  18  246.08   16.44
  15  -9  21   32.72    7.78
  -9  -6  21   45.58   10.07
  15  -9  24   84.34   10.45
  -9  -6  24   93.24   12.70
  15  -9  27   56.17    9.37
  -9  -6  27   59.65   11.25
  15  -9  30   91.18   10.86
  -9  -6  30   80.11   13.76
  15  -9  33   68.74   10.03
  -9  -6  33   61.44   12.68
  15  -9  36   11.43    6.69
  -9  -6  36   20.78   10.92
   7 -15  37   37.86   12.34
   7 -15  34    9.87   10.09
   7 -15  31   13.65    9.18
   7 -15  28  104.44   14.08
   7 -15  25  266.14   20.27
   7 -15  22  153.63   16.43
   7 -15  19   74.20   12.87
   7 -15  16   -6.26    9.59
   7 -15  13  115.62   13.30
   7 -15  10  353.82   21.30
   7 -15   7  854.07   32.61
  -8  -7  -7  870.53   16.67
   8   7   4   15.55    3.64
  -8  -7  -4   18.89    3.55
   7 -15   1  194.00   16.83
  -8  -7  -1  229.66   10.75
   8   7   1  214.19   11.15
   8   7  -2  469.00   17.62
  -8  -7   2  459.40   16.60
   8   7  -5 1073.82   29.21
  -8  -7   5 1046.98   27.65
   8   7  -8  470.14   20.12
  -8  -7   8  461.35   19.11
  -8  -7  11   47.56    8.09
   8   7 -11   58.91    8.37
  -8  -7  14   10.38    6.86
   8   7 -14   23.80    7.10
  15  -8  14   19.06    6.73
  -8  -7  17  317.00   18.80
  15  -8  17  294.50   16.99
  15  -8  20  327.32   17.36
  -8  -7  20  299.97   19.32
  15  -8  23   94.05   10.37
  -8  -7  23   80.37   11.72
  15  -8  26   26.91    7.46
  -8  -7  26   30.51   10.18
  15  -8  29    1.01    5.53
  -8  -7  29   15.20    8.67
  15  -8  32   57.22    8.86
  -8  -7  32   59.53   12.81
  -8  -7  35   61.15   13.46
   8 -15  35   55.37   12.48
   8 -15  32   64.17   12.92
   8 -15  29    0.52    8.56
   8 -15  26   85.17   13.42
   8 -15  23  682.08   31.56
   8 -15  20 1085.79   39.30
   8 -15  17  310.10   21.45
   8 -15  14   62.48   11.58
  15  -7 -11  134.75   12.81
  -7  -8 -11  118.81    3.97
   8 -15   8  961.04   35.74
  -7  -8  -8  969.99   18.43
  -7  -8  -5  691.05   16.96
   8 -15   5  614.13   28.27
   7   8   2   77.63    7.54
  -7  -8  -2   91.35    6.94
   7   8  -1   81.73    7.89
  -7  -8   1   75.53    7.16
   7   8  -4   25.13    5.70
  -7  -8   4   19.45    5.12
  -7  -8   7  224.47   13.35
   7   8  -7  239.33   14.43
   7   8 -10  216.69   14.41
  -7  -8  10  206.40   13.52
   7   8 -13  367.47   19.36
  15  -7  13  347.66   17.99
  -7  -8  13  339.70   18.19
  -7  -8  16   26.83    8.13
  15  -7  16   21.05    6.65
  15  -7  19    9.95    5.61
  -7  -8  19   16.86    8.41
  -7  -8  22    6.49    7.32
  15  -7  22    4.90    5.23
  -7  -8  25   71.03   12.37
  15  -7  25   97.32    9.56
  15  -7  28  290.26   15.67
  -7  -8  28  275.48   20.85
  15  -7  31  108.25   10.34
  -7  -8  31  101.13   14.70
  -7  -8  34   11.46    8.92
  -7  -8  37   11.53    9.29
   9 -15  36    8.42    8.67
   9 -15  33   72.23   13.54
   9 -15  30   75.98   13.43
   9 -15  27  104.97   14.73
   9 -15  24   44.60   11.57
   9 -15  21  115.03   15.13
   9 -15  18  320.09   21.38
   9 -15  15  373.31   22.48
  -6  -9 -12  329.10    8.84
   9 -15  12  335.58   21.42
  -6  -9  -9   -3.15    2.98
  15  -6  -9   -0.86    5.05
   9 -15   9   -8.96    8.98
  -6  -9  -6  154.91    8.17
  15  -6  -6  178.84   13.23
  -6  -9  -3  203.35   10.28
  -6  -9   0  844.64   22.73
   6   9   0  880.84   25.76
   6   9  -3  252.30   14.36
  -6  -9   3  221.31   12.32
  -6  -9   6   11.33    5.62
   6   9  -6   11.01    5.14
   6   9  -9   -0.31    4.70
  -6  -9   9    1.81    5.43
  -6  -9  12  255.23   15.67
   6   9 -12  284.33   17.29
  -6  -9  15  326.32   18.54
  15  -6  15  337.72   16.45
  15  -6  18  144.69   10.74
  -6  -9  18  157.42   14.38
  -6  -9  21  214.94   17.23
  15  -6  21  221.99   12.76
  -6  -9  24   15.05    9.24
  15  -6  24   20.90    5.54
  -6  -9  27   67.08   12.68
  15  -6  27   91.30    8.63
  -6  -9  30  125.89   16.00
  15  -6  30  128.19   10.14
  -6  -9  33  138.11   17.14
  -6  -9  36   12.20   10.37
  10 -15  34   19.18   10.69
  10 -15  31   69.78   13.07
  10 -15  28  300.70   22.06
  -5 -10 -25  123.59    5.36
  -5 -10 -25  121.36    4.68
  -5 -10 -22   19.49    2.26
  -5 -10 -22   19.84    2.21
  10 -15  22   24.56   10.56
  -5 -10 -19    0.56    1.68
  10 -15  19    7.95    9.47
  -5 -10 -19   -0.27    1.41
  10 -15  16  177.86   16.44
  -5 -10 -16  177.14    6.96
  -5 -10 -13  262.17    9.18
  10 -15  13  259.68   19.60
  -5 -10 -10   88.50    6.10
  15  -5 -10   85.67   10.07
  10 -15  10   69.08   11.91
  10 -15   7  173.70   16.79
  -5 -10  -7  190.47    9.48
  15  -5  -7  165.58   13.11
  15  -5  -4   -4.17    5.15
  -5 -10  -4    1.78    3.68
  15  -5  -1  316.59   16.23
  -5 -10  -1  307.76   13.67
   5  10  -2  362.10   17.44
  -5 -10   2  367.50   16.00
   5  10  -5 1006.15   30.94
  -5 -10   5 1046.60   28.76
  -5 -10   8  965.11   28.76
   5  10  -8  929.37   30.32
   5  10 -11   31.86    7.61
  -5 -10  11   33.87    7.61
  15  -5  14   21.57    6.10
  -5 -10  14   20.11    7.80
  15  -5  17   39.05    5.99
  -5 -10  17   33.45    8.71
  -5 -10  20  251.18   18.13
  15  -5  20  259.08   12.73
  -5 -10  23  320.90   20.80
  15  -5  23  326.67   13.74
  -5 -10  26   32.62   10.15
  15  -5  26   35.90    5.91
  -5 -10  29  -16.13   10.11
  15  -5  29    1.55    3.96
  -5 -10  32  104.31   15.03
  -5 -10  35   78.22   14.03
  11 -15  35   64.86   13.75
  11 -15  32   20.40   10.46
  11 -15  29    8.13    8.80
  11 -15  26   16.77   10.35
  -4 -11 -23   26.15    3.55
  -4 -11 -23   27.20    4.33
  11 -15  23   25.26    9.36
  -4 -11 -20  278.88   10.85
  11 -15  20  257.54   19.94
  -4 -11 -20  266.83    9.73
  11 -15  17   17.17    9.22
  -4 -11 -17   12.44    3.58
  11 -15  14   13.19    8.71
  -4 -11 -14   15.33    4.15
  -4 -11 -11   53.11    5.86
  11 -15  11   40.95   10.08
  15  -4 -11   51.44    8.20
  11 -15   8  546.72   28.00
  15  -4  -8  585.81   23.65
  -4 -11  -8  549.41   17.40
  15  -4  -5  241.24   14.58
  -4 -11  -5  271.89   12.78
  15  -4  -2  262.23   14.70
  -4 -11  -2  290.84   13.64
  15  -4   1   71.99    8.03
  -4 -11   1   90.01    8.78
   4  11  -4   28.14    6.07
  -4 -11   4   42.65    7.33
  -4 -11   7  287.52   16.12
   4  11  -7  292.96   17.36
   4  11 -10  239.67   16.19
  -4 -11  10  253.74   15.66
  15  -4  13  475.28   17.54
  -4 -11  13  510.00   22.77
  -4 -11  16  171.87   14.60
  15  -4  16  189.38   10.24
  15  -4  19   13.09    3.82
  -4 -11  19    1.97    7.72
  -4 -11  22  264.51   19.06
  15  -4  22  256.61   10.99
  -4 -11  25  342.36   22.40
  15  -4  25  314.86   12.09
  -4 -11  28  235.35   19.94
  -4 -11  31   13.26    9.84
  -4 -11  34    4.82    9.82
  12 -15  33   28.56   10.95
  12 -15  30   68.24   13.22
  12 -15  27   91.00   13.98
  12 -15  24    2.85    8.67
  -3 -12 -24    8.32    3.51
  -3 -12 -21  163.35   10.04
  -3 -12 -21  151.78    8.53
  12 -15  21  135.14   15.61
  -3 -12 -18  371.45   14.77
  12 -15  18  362.95   23.10
  -3 -12 -15  411.35   15.30
  12 -15  15  380.24   23.68
  -3 -12 -12  431.41   15.91
  15  -3 -12  403.60   20.80
  12 -15   9    0.61    9.20
  -3 -12  -9   14.11    4.64
  15  -3  -9   11.29    5.83
  -3 -12  -6   26.46    6.15
  15  -3  -6   21.02    5.72
  15  -3  -3  427.91   18.78
  -3 -12  -3  426.11   17.40
  15  -3   0 1046.67   28.70
  -3 -12   0 1012.64   28.51
  15  -3   3  551.79   19.52
  -3 -12   3  509.88   20.71
  15  -3   6    8.52    4.07
   3  12  -6    9.35    5.63
  -3 -12   6   18.01    7.02
   3  12  -9   -1.50    5.91
  15  -3   9   -1.55    3.99
  -3 -12   9    6.77    6.49
  -3 -12  12  106.81   11.78
  -3 -12  15  203.06   15.83
  15  -3  15  241.93   10.47
  -3 -12  18  205.96   16.31
  15  -3  18  177.56    8.20
  -3 -12  21  196.17   16.93
  15  -3  21  178.95    7.65
  15  -3  24   10.76    2.72
  -3 -12  24   -9.86    9.29
  -3 -12  27   45.58   10.75
  -3 -12  30   58.14   13.03
  -3 -12  33   35.18   11.24
  13 -15  34   17.75   10.00
  13 -15  31    3.17    8.84
  13 -15  28  136.02   16.37
  13 -15  25  302.93   22.34
  -2 -13 -22  133.13    9.06
  13 -15  22  109.04   14.33
  13 -15  19   24.90   10.17
  -2 -13 -19   12.66    5.31
  -2 -13 -16   10.28    5.06
  13 -15  16    7.20    8.59
  -2 -13 -13  416.72   17.39
  13 -15  13  394.08   24.41
  13 -15  10  483.34   26.87
  -2 -13 -10  512.05   19.34
  15  -2 -10  535.80   23.34
  -2 -13  -7  618.46   21.84
  15  -2  -7  664.10   24.68
  -2 -13  -4   18.93    5.33
  15  -2  -4   14.01    4.98
  15  -2  -1  212.31   12.62
  -2 -13  -1  218.01   13.58
  15  -2   2  507.79   18.64
  -2 -13   2  524.64   21.65
  15  -2   5  551.73   18.31
  -2 -13   5  549.71   22.54
  15  -2   8  754.50   20.13
   2  13  -8  753.82   30.46
  -2 -13   8  727.94   27.11
  15  -2  11  142.58    7.84
  -2 -13  11  131.37   12.81
  15  -2  14   19.66    3.27
  -2 -13  14   21.43    8.01
  15  -2  14   24.18    3.43
  -2 -13  17   57.44    9.97
  15  -2  17   49.71    3.72
  15  -2  17   51.71    3.50
  15  -2  20  213.57    5.41
  -2 -13  20  255.50   18.93
  -2 -13  23   61.28   11.61
  -2 -13  26   14.30    9.79
  -2 -13  29   16.26   10.54
  -2 -13  32   23.53   10.00
  -2 -13  35   17.33   11.17
  14 -15  32   45.41   11.51
  14 -15  29    3.45    8.60
  14 -15  26   72.93   12.67
  14 -15  23   60.55   12.20
  14 -15  20  103.81   14.29
  -1 -14 -17   38.62    7.18
  14 -15  17   33.58   10.47
  -1 -14 -14   17.97    6.04
  14 -15  14    7.07    8.73
  14 -15  11   12.20    8.07
  -1 -14 -11   25.13    7.04
  15  -1 -11   21.69    6.41
  -1 -14  -8  309.74   16.37
  15  -1  -8  301.25   16.92
  -1 -14  -5  198.71   13.67
  15  -1  -5  183.18   12.79
  -1 -14  -2  254.96   15.64
  15  -1  -2  249.49   13.89
  15  -1   1    2.13    4.04
  -1 -14   1    5.13    5.98
  15  -1   4   27.11    4.90
  -1 -14   4   20.30    6.95
  -1 -14   7   78.19   10.63
  15  -1   7   74.11    6.47
  -1 -14  10  187.93   15.17
  15  -1  10  183.91    8.12
  -1 -14  13  211.59   16.05
  15  -1  13  182.26    6.73
  15  -1  13  184.92    6.51
  -1 -14  16   16.33    8.20
  -1 -14  19   93.54   13.04
  -1 -14  22  209.56   18.11
  -1 -14  25  136.14   15.43
  -1 -14  28  122.22   15.18
  -1 -14  31   27.00   11.00
  -1 -14  34   -5.88   10.26
  15 -15  33   51.63   12.45
  15 -15  30   79.03   13.95
  15 -15  27   38.68   10.72
  15 -15  24  -12.08    9.82
  15 -15  21   73.32   13.08
  15 -15  18  268.89   20.63
   0 -15 -15  431.19   20.80
  15 -15  15  396.11   25.29
   0 -15 -12  145.58   12.64
  15 -15  12  158.22   16.97
   0 -15  -9   -2.18    6.14
  15   0  -9    7.88    5.38
  15   0  -6   68.30    8.62
   0 -15  -6   65.57    9.24
  15   0  -3  237.42   13.58
   0 -15  -3  279.48   16.73
  15   0   0  435.24   17.15
   0 -15   0  429.96   21.02
  15   0   3  230.39   11.62
   0 -15   3  216.01   15.89
  15   0   6   16.09    3.88
   0 -15   6   11.00    7.46
  15   0   9   58.28    4.56
   0 -15   9   63.84   10.32
   0 -15  12  199.21   16.72
   0 -15  15  383.02   22.35
   0 -15  18  344.10   22.10
   0 -15  21   57.09   11.71
   0 -15  24    4.22    8.47
   0 -15  27   31.16   10.64
   0 -15  30   79.39   14.46
   0 -15  33   24.74   11.94
   1 -16  32   20.41   11.57
   1 -16  29   -7.18    9.79
   1 -16  26   14.22   10.14
   1 -16  23   72.38   13.24
   1 -16  20   43.34   11.25
   1 -16  17   41.56   10.74
   1 -16  14    8.47    7.48
   1 -16  11  121.89   13.83
  15   1   8  417.81   11.69
   1 -16   8  465.32   23.85
   1 -16   5  446.39   23.64
  15   1   5  465.72   14.90
  15   1   2  241.56   12.07
   1 -16   2  231.42   16.69
  15   1  -1  190.80   11.72
   1 -16  -1  181.79   14.69
  15   1  -4    4.46    4.22
   1 -16  -4   11.92    6.47
   1 -16  -7   44.84    8.98
  15   1  -7   42.42    7.22
  15   1 -10  203.81   15.00
   1 -16 -10  219.60   15.88
   1 -16 -13  195.37   15.83
  16 -15  13  204.42   18.98
  16 -15  16    7.22    8.90
  16 -15  19    2.40    8.88
  16 -15  22   65.47   12.14
  16 -15  25  157.43   17.18
  16 -15  28   73.30   13.46
  16 -15  31   28.83   10.70
   2 -16  33   61.03   13.31
   2 -16  30  133.59   17.39
   2 -16  27   87.41   14.45
   2 -16  24    2.45    9.05
   2 -16  21    9.21    8.49
   2 -16  18  124.02   14.20
   2 -16  15  223.01   18.26
   2 -16  12  152.62   15.17
   2 -16   9   17.35    8.12
   2 -16   6  152.99   14.47
  14   2   6  117.01    6.63
  14   2   3  445.98   15.21
   2 -16   3  436.78   22.68
  14   2   0  641.61   20.30
   2 -16   0  667.36   27.80
  14   2  -3  312.02   15.24
   2 -16  -3  303.62   18.90
  14   2  -6   99.66    9.83
   2 -16  -6  100.25   12.11
  14   2  -9  145.53   12.22
   2 -16  -9  126.14   12.64
  16 -14  12  247.58   20.20
   2 -16 -12  187.35   15.68
  16 -14  15  357.40   23.68
  16 -14  18  219.51   18.98
  16 -14  21    8.62    8.25
  16 -14  24    3.19    8.36
  16 -14  27   55.35   11.62
  16 -14  30  110.31   14.68
  16 -14  33  131.75   16.17
   3 -16  34    2.57    9.48
   3 -16  31   55.60   11.92
   3 -16  28   73.63   13.32
   3 -16  25   97.37   14.83
   3 -16  22  226.46   18.81
   3 -16  19   -1.36    8.69
   3 -16  16  123.81   14.29
   3 -16  13  152.64   15.49
   3 -16  10  277.29   19.87
  13   3   7   88.85    5.00
   3 -16   7   99.15   12.82
  13   3   4    8.40    3.17
   3 -16   4    8.64    7.67
   3 -16   1   -0.17    7.24
  13   3   1    1.67    3.40
   3 -16  -2  324.70   19.59
  13   3  -2  329.88   14.93
  13   3  -5  430.47   18.49
   3 -16  -5  398.41   22.40
  13   3  -8   82.89    9.28
   3 -16  -8   73.24   10.90
  13   3 -11    3.24    4.85
 -13  -3  11   -0.15    6.27
  16 -13  14   15.02    8.71
 -13  -3  14   13.08    7.26
  16 -13  17  227.59   18.78
 -13  -3  17  247.91   17.86
 -13  -3  20  167.15   15.95
  16 -13  20  179.55   16.94
 -13  -3  23   62.15   12.22
  16 -13  23   57.10   10.87
  16 -13  26   20.20    8.36
 -13  -3  26   27.05    9.69
  16 -13  29    6.77    7.91
 -13  -3  29  -16.80   10.97
 -13  -3  32   37.76   11.89
  16 -13  32   54.32   11.26
   4 -16  32    9.93   10.99
   4 -16  29   42.96   12.12
   4 -16  26   95.31   14.43
   4 -16  23  342.68   23.07
   4 -16  20  162.91   16.76
   4 -16  17  203.29   17.79
   4 -16  14   51.10   11.05
   4 -16  11  184.66   16.13
   4 -16   8  108.74   13.32
  12   4   5  161.54    7.79
   4 -16   5  158.31   14.69
  12   4   2  494.36   15.94
   4 -16   2  463.06   23.67
   4 -16  -1   67.77   10.82
  12   4  -1   68.75    7.21
 -12  -4   4   60.14    7.85
  12   4  -4   69.02    7.78
   4 -16  -4   63.27   10.81
  12   4  -7  257.21   14.63
 -12  -4   7  214.39   13.84
  12   4 -10  413.22   19.81
 -12  -4  10  448.51   20.58
  16 -12  13  385.83   22.88
  12   4 -13  435.01   21.14
 -12  -4  13  418.23   20.81
 -12  -4  16   20.63    7.88
  16 -12  16   36.46    9.67
  16 -12  19    4.51    7.80
 -12  -4  19   13.04    8.43
 -12  -4  22   33.23   10.35
  16 -12  22   26.72    9.12
  16 -12  25  203.42   17.10
 -12  -4  25  203.75   18.02
  16 -12  28   92.48   12.67
 -12  -4  28   74.65   13.28
 -12  -4  31   -2.50    9.23
  16 -12  31   -4.42    7.29
 -12  -4  34   -5.50    9.60
  16 -12  34   -0.70    6.74
   5 -16  33    2.44    9.83
   5 -16  30  122.93   16.50
   5 -16  27   44.50   11.05
   5 -16  24    9.00    9.88
   5 -16  21  102.30   14.41
   5 -16  18  277.24   20.51
   5 -16  15  326.29   21.62
   5 -16  12   28.50    9.60
   5 -16   9   48.08   10.08
   5 -16   6   24.27    9.32
  11   5   6    6.85    2.40
   5 -16   3  718.06   30.30
  11   5   3  757.46   19.44
   5 -16   0  609.08   27.68
 -11  -5   0  604.06   18.81
  11   5   0  643.75   19.72
   5 -16  -3  392.66   22.92
 -11  -5   3  398.43   16.37
  11   5  -3  418.17   16.92
 -11  -5   6  332.66   16.08
  11   5  -6  314.90   15.75
 -11  -5   9   12.10    6.12
  11   5  -9   11.13    5.42
 -11  -5  12   77.54   10.15
  11   5 -12   77.73    9.47
  16 -11  15  228.65   17.88
 -11  -5  15  249.06   16.94
 -11  -5  18  387.14   21.66
  16 -11  18  374.24   21.69
  16 -11  21  204.70   16.74
 -11  -5  21  154.56   15.23
  16 -11  24   11.32    7.13
 -11  -5  24   14.32    9.10
  16 -11  27   17.09    7.85
 -11  -5  27   -3.64    9.47
 -11  -5  30  143.63   17.27
  16 -11  30  110.48   12.70
  16 -11  33   70.73   11.46
 -11  -5  33   65.11   14.22
   6 -16  34    2.67    9.67
   6 -16  31   31.10   11.50
   6 -16  28   50.15   12.61
   6 -16  25   85.90   13.67
   6 -16  22  100.39   13.98
   6 -16  19    2.82    7.99
   6 -16  16  260.80   19.71
   6 -16  13  432.60   24.24
   6 -16  10  487.04   24.97
   6 -16   7  607.82   28.26
  10   6   4   28.22    4.43
   6 -16   4   25.35    9.11
 -10  -6  -4   32.06    4.23
  10   6   1   -7.18    4.59
   6 -16   1  -12.23    9.55
 -10  -6  -1   -2.69    3.99
  10   6  -2  112.67    9.01
 -10  -6   2  115.80    9.08
   6 -16  -2   84.73   12.59
 -10  -6   5  335.10   15.47
  10   6  -5  322.72   15.79
  10   6  -8   39.11    6.91
 -10  -6   8   30.37    6.97
  10   6 -11   15.43    5.96
 -10  -6  11   17.86    7.19
 -10  -6  14   11.35    6.68
  16 -10  14    6.29    6.85
  16 -10  17  137.15   13.71
 -10  -6  17  148.73   14.01
  16 -10  20  126.19   12.55
 -10  -6  20  122.45   13.70
  16 -10  23   31.99    8.13
 -10  -6  23   36.08    9.92
  16 -10  26   19.25    7.29
 -10  -6  26    8.29    8.51
 -10  -6  29   10.30    9.05
  16 -10  29   -4.00    6.63
  16 -10  32    9.14    6.65
 -10  -6  32   -4.89    8.69
  16 -10  35   20.42    7.39
 -10  -6  35   19.26   11.32
   7 -16  35   35.62   12.49
   7 -16  32   19.16   10.20
   7 -16  29    8.37    8.78
   7 -16  26   22.32   10.25
   7 -16  23   97.82   14.48
   7 -16  20  133.16   15.41
   7 -16  17   95.36   13.29
   7 -16  14   20.37    9.65
   7 -16  11   11.13    7.52
   7 -16   8  329.74   21.17
   7 -16   5  834.41   33.24
  -9  -7  -5  847.04   18.61
   7 -16   2  797.02   32.85
   9   7   2  780.05   21.74
  -9  -7  -2  806.50   20.26
   9   7  -1  106.62    8.77
  -9  -7   1  134.03    9.15
   9   7  -4  283.53   14.67
  -9  -7   4  288.88   14.34
   9   7  -7  678.93   24.29
  -9  -7   7  649.71   22.75
  -9  -7  10  449.28   20.13
   9   7 -10  484.41   21.73
  16  -9  13  407.20   21.76
  -9  -7  13  424.49   20.56
   9   7 -13  445.57   21.45
  16  -9  16   24.35    7.30
  -9  -7  16   36.32    8.67
  16  -9  19   -1.23    6.00
  -9  -7  19   -0.72    7.26
  16  -9  22   84.67   10.31
  -9  -7  22   71.86   11.64
  16  -9  25  178.18   13.82
  -9  -7  25  162.10   16.11
  -9  -7  28   81.98   13.60
  16  -9  28   83.94   10.53
  16  -9  31   20.64    6.88
  -9  -7  31   33.71   11.22
  -9  -7  34   -6.43   10.20
   8 -16  33   49.02   11.94
   8 -16  30   84.31   14.38
   8 -16  27  112.16   15.62
   8 -16  24   19.58    9.23
   8 -16  21   57.63   12.15
   8 -16  18  111.86   14.99
   8 -16  15  345.10   22.17
   8 -16  12  129.00   14.21
  -8  -8  -9    7.41    1.90
   8 -16   9    7.79    8.25
   8 -16   6  255.04   19.75
  -8  -8  -6  252.78    9.45
   8 -16   3 1058.47   38.66
   8   8   3 1046.76   26.71
  -8  -8  -3 1111.95   24.54
   8   8   0 1934.29   39.59
  -8  -8   0 1881.02   36.70
   8   8  -3  488.91   19.44
  -8  -8   3  492.30   18.46
   8   8  -6  132.72   10.97
  -8  -8   6  131.03   10.47
  -8  -8   9    0.14    6.17
   8   8  -9   12.75    5.74
   8   8 -12  322.46   18.35
  -8  -8  12  337.85   18.35
  16  -8  15  333.85   18.65
  -8  -8  15  314.41   18.57
  16  -8  18  220.12   14.76
  -8  -8  18  209.35   16.34
  -8  -8  21   54.11   10.37
  16  -8  21   55.45    8.56
  16  -8  24    8.80    5.51
  -8  -8  24    1.74    7.86
  16  -8  27   73.38    9.19
  -8  -8  27   94.79   13.64
  16  -8  30  141.02   11.94
  -8  -8  30  192.03   18.88
  -8  -8  33   91.03   13.93
   9 -16  34    5.04    9.14
   9 -16  31   51.15   12.55
   9 -16  28  282.84   22.41
   9 -16  25  254.97   20.63
   9 -16  22  261.23   21.07
   9 -16  19   76.64   12.58
   9 -16  16   52.10   11.94
   9 -16  13  241.28   19.46
   9 -16  10  549.02   27.75
  -7  -9 -10  530.55   12.22
  -7  -9  -7  266.70   10.10
  16  -7  -7  265.25   16.82
   9 -16   7  261.03   20.06
  -7  -9  -4   23.09    4.56
   9 -16   4   11.25    8.71
  -7  -9  -1  657.19   19.70
   7   9   1  633.16   21.86
  -7  -9   2  561.01   19.37
   7   9  -2  553.94   21.34
  -7  -9   5  639.91   22.11
   7   9  -5  636.42   23.70
  -7  -9   8  554.03   21.42
   7   9  -8  568.22   23.49
  -7  -9  11  157.01   12.93
   7   9 -11  165.71   13.51
  -7  -9  14    3.51    6.58
  16  -7  14    2.17    5.89
  16  -7  17  169.09   12.57
  -7  -9  17  177.48   14.93
  16  -7  20  316.26   16.14
  -7  -9  20  306.21   19.93
  16  -7  23  282.24   15.30
  -7  -9  23  321.99   21.48
  -7  -9  26   75.54   12.64
  16  -7  26   66.02    8.30
  16  -7  29   -2.79    5.05
  -7  -9  29   -9.51    8.92
  -7  -9  32   11.21    9.81
  -7  -9  35   57.77   12.87
  10 -16  35   14.01    9.62
  10 -16  32    4.36    8.92
  10 -16  29   29.52   10.54
  10 -16  26   89.00   14.65
  10 -16  23  309.83   23.13
  10 -16  20  326.43   22.57
  10 -16  17  281.51   20.88
  -6 -10 -14   30.57    2.91
  10 -16  14   38.65   10.61
  10 -16  11    3.32    8.04
  -6 -10 -11    6.50    2.41
  10 -16   8   89.21   13.51
  -6 -10  -8   91.29    6.35
  16  -6  -8   87.56   10.31
  -6 -10  -5  220.75   10.53
  10 -16   5  183.98   17.14
  16  -6  -5  215.97   14.96
  -6 -10  -2   30.13    5.29
   6  10  -1  142.45   11.27
  -6 -10   1  135.62    9.86
  -6 -10   4  104.56    9.46
   6  10  -4   88.53    9.68
  -6 -10   7  604.59   22.86
   6  10  -7  597.71   24.18
  -6 -10  10  654.09   25.04
   6  10 -10  718.72   27.26
  -6 -10  13  533.42   23.22
  16  -6  13  513.26   21.11
  16  -6  16  151.89   11.23
  -6 -10  16  152.13   13.74
  -6 -10  19   10.89    8.20
  16  -6  19   31.05    6.32
  -6 -10  22   11.06    8.64
  16  -6  22   27.21    5.63
  -6 -10  25  120.37   14.95
  16  -6  25  106.61    8.99
  -6 -10  28   42.00   11.41
  16  -6  28   52.15    6.98
  -6 -10  31    7.18    9.04
  -6 -10  34    0.24    9.71
  11 -16  33   93.28   15.36
  11 -16  30   77.05   13.91
  11 -16  27   24.88    9.44
  11 -16  24    9.21    9.74
  -5 -11 -24    4.33    1.34
  -5 -11 -21   32.73    3.02
  11 -16  21   43.52   11.34
  -5 -11 -21   39.27    2.97
  11 -16  18  131.33   15.43
  -5 -11 -18  129.49    5.91
  -5 -11 -18  139.74    6.27
  11 -16  15  393.80   24.19
  -5 -11 -15  429.02   12.23
  11 -16  12  502.84   27.36
  -5 -11 -12  539.32   14.93
  11 -16   9   76.85   13.03
  -5 -11  -9   76.05    6.59
  16  -5  -9  103.95   11.20
  11 -16   6   -5.63    9.49
  16  -5  -6    4.54    5.12
  -5 -11  -6    2.45    3.96
  -5 -11  -3   85.85    7.97
  16  -5  -3   76.79    9.32
  -5 -11   0  691.55   22.23
  16  -5   0  690.53   24.69
   5  11  -3  119.93   11.67
  -5 -11   3  126.85   10.18
  -5 -11   6   39.09    7.50
   5  11  -6   35.88    7.29
   5  11  -9    5.78    5.36
  -5 -11   9   11.61    6.48
  -5 -11  12  250.55   16.56
  -5 -11  15  344.76   19.79
  16  -5  15  325.15   14.97
  -5 -11  18  166.60   15.22
  16  -5  18  180.37   10.77
  16  -5  21   63.65    6.61
  -5 -11  21   68.46   11.65
  -5 -11  24   34.39   10.29
  16  -5  24   35.95    5.55
  -5 -11  27   36.15   10.44
  -5 -11  30   17.34    9.29
  -5 -11  33   28.75   11.47
  12 -16  34    9.96    9.81
  12 -16  31   12.65    9.75
  12 -16  28   41.23   11.47
  12 -16  25   56.90   12.77
  -4 -12 -25   47.35    5.08
  -4 -12 -22   18.39    3.66
  -4 -12 -22   21.04    3.43
  -4 -12 -19    6.09    3.54
  -4 -12 -19    0.72    2.69
  12 -16  19   -3.58    8.21
  -4 -12 -16  410.84   13.81
  12 -16  16  361.80   23.85
  -4 -12 -13  532.10   16.66
  12 -16  13  492.93   27.28
  12 -16  10  347.61   23.59
  16  -4 -10  369.40   19.81
  -4 -12 -10  372.63   14.70
  12 -16   7  248.98   20.75
  16  -4  -7  296.41   17.32
  -4 -12  -7  272.86   13.05
  -4 -12  -4   47.66    6.79
  16  -4  -4   38.10    6.71
  16  -4  -1  138.02   11.26
  -4 -12  -1  129.76   10.22
  -4 -12   2  237.82   13.86
  16  -4   2  258.48   14.45
   4  12  -5  212.72   15.56
  -4 -12   5  225.96   14.36
  16  -4   5  209.69   12.44
  -4 -12   8  217.06   14.63
   4  12  -8  219.07   16.13
  -4 -12  11    7.21    6.76
  -4 -12  14   -2.04    7.14
  16  -4  14    2.38    3.91
  -4 -12  17  203.06   16.61
  16  -4  17  219.12   10.58
  -4 -12  20  714.91   30.64
  16  -4  20  693.00   18.18
  -4 -12  23  206.74   17.83
  16  -4  23  209.87    9.33
  -4 -12  26  101.17   14.61
  -4 -12  29   17.47    9.56
  -4 -12  32   17.70    9.67
  13 -16  32   24.88   10.27
  13 -16  29   -8.75   10.38
  13 -16  26   -2.00   10.39
  13 -16  23  237.83   20.36
  -3 -13 -23  248.04   12.45
  -3 -13 -20  235.18   12.05
  13 -16  20  231.21   20.09
  13 -16  17  148.57   16.86
  -3 -13 -17  115.63    9.06
  13 -16  14   23.16    8.96
  -3 -13 -14   41.66    6.20
  -3 -13 -11  211.11   11.87
  13 -16  11  187.89   18.35
  -3 -13  -8  702.30   22.25
  13 -16   8  669.44   32.47
  16  -3  -8  673.61   26.17
  16  -3  -5  520.11   21.90
  -3 -13  -5  561.83   20.66
  16  -3  -2  106.16   10.01
  -3 -13  -2  121.22   10.28
  -3 -13   1   26.84    6.44
  16  -3   1   23.11    5.28
  16  -3   4   25.35    5.35
  -3 -13   4   26.25    7.14
   3  13  -7  310.77   19.26
  -3 -13   7  312.39   17.75
  16  -3   7  324.99   14.30
  -3 -13  10  206.85   15.28
  16  -3  10  189.75   10.34
  16  -3  13  105.69    7.35
  -3 -13  13   94.07   11.87
  16  -3  13  107.75    7.99
  -3 -13  16   17.48    7.64
  16  -3  16   25.15    3.97
  -3 -13  19   67.23   11.18
  16  -3  19   62.32    4.65
  -3 -13  22   38.07   10.89
  16  -3  22   24.65    2.91
  -3 -13  25   92.11   13.24
  -3 -13  28  172.39   18.14
  -3 -13  31   36.06   11.59
  -3 -13  34   -8.70   11.62
  14 -16  33   69.85   13.97
  14 -16  30  112.71   16.00
  14 -16  27  148.13   17.29
  14 -16  24  -10.05   10.54
  -2 -14 -21    4.23    4.98
  14 -16  21    9.69    9.46
  14 -16  18   42.34   11.94
  -2 -14 -18   39.28    6.92
  14 -16  15   69.54   12.90
  -2 -14 -15   81.34    8.86
  14 -16  12  117.74   14.77
  -2 -14 -12  148.92   11.13
  -2 -14  -9   83.57    8.83
  16  -2  -9   80.71   10.49
  14 -16   9   66.39   12.22
  16  -2  -6    2.56    4.86
  -2 -14  -6   -1.47    5.53
  -2 -14  -3  136.97   11.45
  16  -2  -3  150.06   11.38
  16  -2   0  340.20   16.08
  -2 -14   0  319.54   17.18
  16  -2   3  266.10   13.37
  -2 -14   3  245.13   15.96
  -2 -14   6  393.00   20.42
  16  -2   6  396.29   15.49
  -2 -14   9   49.86    9.30
  16  -2   9   52.69    5.60
  16  -2  12  114.19    7.60
  16  -2  12  132.53    7.30
  -2 -14  12  123.08   13.28
  16  -2  15  230.14    8.09
  16  -2  15  233.69    8.18
  -2 -14  18  105.37   13.20
  -2 -14  21   31.00    9.60
  -2 -14  24   -6.99    8.97
  -2 -14  27   56.59   12.31
  -2 -14  30   93.09   15.05
  -2 -14  33   88.47   15.34
  15 -16  31   29.40   11.90
  15 -16  28  130.48   16.75
  15 -16  25  194.58   19.52
  15 -16  22  107.75   14.82
  15 -16  19   75.07   13.69
  -1 -15 -19   63.27    8.70
  15 -16  16   27.19    9.71
  -1 -15 -16   42.41    7.76
  -1 -15 -13  135.00   11.68
  15 -16  13  104.03   15.07
  15 -16  10  394.85   25.88
  -1 -15 -10  423.83   19.71
  -1 -15  -7  447.48   20.12
  16  -1  -7  409.77   19.91
  -1 -15  -4  160.61   12.61
  16  -1  -4  105.82    9.98
  16  -1  -1   -3.74    4.60
  -1 -15  -1   -3.33    6.73
  16  -1   2  407.61   16.69
  -1 -15   2  407.98   20.55
  -1 -15   5  483.23   22.94
  16  -1   5  509.62   17.19
  -1 -15   8  238.34   17.18
  16  -1   8  263.83   10.91
  16  -1  11   12.64    2.78
  -1 -15  11    8.75    7.59
  -1 -15  14   39.17   10.06
  -1 -15  17  217.10   18.02
  -1 -15  20  212.37   18.42
  -1 -15  23  192.47   18.15
  -1 -15  26   60.85   12.75
  -1 -15  29   -1.09    9.35
  -1 -15  32   40.15   12.73
  16 -16  29    4.16    9.07
  16 -16  26   43.32   11.52
  16 -16  23  220.29   19.96
   0 -16 -20  371.13   20.27
  16 -16  20  356.20   24.46
   0 -16 -17  350.25   19.47
  16 -16  17  358.13   24.66
  16 -16  14   67.94   13.53
   0 -16 -14   89.46   10.79
   0 -16 -11   23.69    7.58
  16 -16  11   -2.88    9.58
  16   0  -8  191.12   14.02
   0 -16  -8  227.90   15.84
  16   0  -5  214.52   14.16
   0 -16  -5  216.19   15.80
  16   0  -2  233.45   13.67
   0 -16  -2  244.32   16.42
  16   0   1   12.74    4.38
   0 -16   1    9.95    6.52
  16   0   4   98.79    7.72
   0 -16   4   88.30   11.67
  16   0   7  451.47   14.27
   0 -16   7  510.37   24.56
   0 -16  10  438.79   23.36
   0 -16  13  223.68   17.86
   0 -16  16  122.14   14.11
   0 -16  19   -3.51    8.14
   0 -16  22   43.77   10.62
   0 -16  25   95.52   13.47
   0 -16  28   11.83   10.52
   0 -16  31    0.03   10.01
   1 -17  30   57.09   13.82
   1 -17  27   14.08   10.26
   1 -17  24   13.01    8.86
   1 -17  21   35.23   10.97
   1 -17  18  112.95   14.98
   1 -17  15  366.11   22.85
   1 -17  12  259.23   19.63
   1 -17   9   62.77   11.44
   1 -17   6    8.88    7.65
  16   1   6    6.71    3.14
   1 -17   3  180.99   15.65
  16   1   3  166.94   10.10
  16   1   0  359.10   16.10
   1 -17   0  364.57   21.05
  16   1  -3  464.13   19.55
   1 -17  -3  406.59   22.02
  16   1  -6   92.61   10.05
   1 -17  -6   86.03   11.56
  16   1  -9   46.64    8.03
   1 -17  -9   45.48    9.03
  17 -16  12  276.92   22.49
   1 -17 -12  267.50   18.19
  17 -16  15  203.18   19.62
   1 -17 -15  218.45   16.63
   1 -17 -18  300.34   19.69
  17 -16  18  266.66   22.03
  17 -16  21   74.98   13.61
  17 -16  24   -5.58    8.77
  17 -16  27    7.77    9.13
  17 -16  30   48.24   12.50
   2 -17  31   12.54   11.35
   2 -17  28  159.49   18.54
   2 -17  25  119.01   16.18
   2 -17  22   36.10   11.42
   2 -17  19   -5.77    9.17
   2 -17  16   94.15   13.54
   2 -17  13  371.93   22.98
   2 -17  10  559.77   27.39
   2 -17   7  267.34   19.09
  15   2   7  211.89    8.53
   2 -17   4    1.36    7.24
  15   2   4    3.94    3.20
   2 -17   1    8.59    7.33
  15   2   1   15.94    4.73
  15   2  -2   94.00    8.92
   2 -17  -2  120.57   12.94
  15   2  -5  322.57   16.63
   2 -17  -5  311.45   19.54
  15   2  -8   54.20    8.57
   2 -17  -8   49.92    9.57
  17 -15  11  -31.29   12.50
   2 -17 -11   -1.43    6.77
   2 -17 -14    2.09    7.93
  17 -15  14    6.69    8.84
  17 -15  17   73.70   13.10
  17 -15  20  123.09   15.67
  17 -15  23  127.09   16.09
  17 -15  26   47.14   12.00
  17 -15  29   -5.11    8.57
   3 -17  32   22.06   11.11
   3 -17  29   -4.54    8.81
   3 -17  26   20.03   10.91
   3 -17  23  155.29   17.37
   3 -17  20  144.57   16.41
   3 -17  17   50.37   11.53
   3 -17  14   -4.58    8.45
   3 -17  11   92.31   13.21
   3 -17   8  146.60   14.75
  14   3   8  111.57    4.81
   3 -17   5  236.16   18.01
  14   3   5  241.87   10.14
   3 -17   2  555.67   26.40
  14   3   2  529.73   17.45
  14   3  -1  130.25    9.78
   3 -17  -1  137.93   13.80
   3 -17  -4   13.21    7.75
  14   3  -4   11.18    4.78
   3 -17  -7    8.01    7.87
  14   3  -7   12.81    5.03
  14   3 -10   84.48    9.99
   3 -17 -10   73.02   11.45
  17 -14  13   85.19   13.47
 -14  -3  16   83.88   11.72
  17 -14  16   75.45   13.00
 -14  -3  19    3.24    7.88
  17 -14  19   -1.05    8.37
  17 -14  22   49.78   11.20
 -14  -3  22   41.58   10.91
  17 -14  25   65.79   12.91
 -14  -3  25   61.53   12.61
  17 -14  28   42.43   10.91
 -14  -3  28   51.91   11.84
  17 -14  31   13.69    9.23
 -14  -3  31    4.07    9.82
   4 -17  33   62.62   14.12
   4 -17  30  107.91   16.07
   4 -17  27   28.93   10.45
   4 -17  24   19.93   10.51
   4 -17  21   15.44    8.53
   4 -17  18  260.83   20.59
   4 -17  15  396.27   24.08
   4 -17  12   41.44    9.82
   4 -17   9   40.69    9.80
   4 -17   6    5.37    7.96
  13   4   6    5.65    2.49
   4 -17   3  402.65   23.18
  13   4   3  439.04   14.94
   4 -17   0  337.63   21.22
  13   4   0  341.89   14.70
   4 -17  -3  299.68   20.23
  13   4  -3  301.09   15.03
   4 -17  -6   73.74   11.77
  13   4  -6   68.99    8.57
 -13  -4   9   -2.72    6.72
  13   4  -9    6.06    5.11
  17 -13  12  105.12   14.05
 -13  -4  12  140.01   13.09
 -13  -4  15  274.55   18.51
  17 -13  15  251.40   20.31
 -13  -4  18  333.22   20.82
  17 -13  18  311.43   21.60
  17 -13  21   66.36   11.77
 -13  -4  21   69.33   12.35
 -13  -4  24   12.00    8.67
  17 -13  24    7.50    7.53
  17 -13  27   -1.21    7.77
 -13  -4  27   19.10   10.25
  17 -13  30   32.99    9.28
 -13  -4  30   43.00   11.99
   5 -17  31   68.98   14.64
   5 -17  28  255.48   21.94
   5 -17  25  179.26   18.55
   5 -17  22   51.41   11.83
   5 -17  19    7.32    9.39
   5 -17  16   61.76   12.46
   5 -17  13   64.42   11.96
   5 -17  10  255.47   19.49
   5 -17   7  470.96   25.32
  12   5   4    6.95    3.16
   5 -17   4    2.84    7.40
   5 -17   1   36.25   10.04
  12   5   1   39.89    5.62
 -12  -5   2  397.00   16.47
   5 -17  -2  372.63   23.20
  12   5  -2  386.83   16.50
   5 -17  -5 1019.30   37.49
 -12  -5   5 1029.44   29.20
  12   5  -5  966.87   28.61
 -12  -5   8  661.82   24.55
  12   5  -8  663.07   24.62
 -12  -5  11  308.59   17.89
  12   5 -11  288.38   17.13
 -12  -5  14    1.16    6.86
  17 -12  14   -0.55    8.03
  17 -12  17  329.20   21.66
 -12  -5  17  282.39   19.25
 -12  -5  20  441.11   24.50
  17 -12  20  437.69   24.00
  17 -12  23  306.41   20.37
 -12  -5  23  316.78   21.80
 -12  -5  26  154.42   16.67
  17 -12  26  156.32   15.50
  17 -12  29   23.80    8.62
 -12  -5  29    6.02    8.49
 -12  -5  32   55.08   13.17
  17 -12  32   90.70   12.47
   6 -17  32    6.88    9.84
   6 -17  29   22.92   10.91
   6 -17  26   15.57    9.08
   6 -17  23  154.31   17.45
   6 -17  20  157.31   16.97
   6 -17  17   96.73   14.44
   6 -17  14   34.08   10.66
   6 -17  11  158.18   16.21
   6 -17   8  943.40   35.93
  11   6   5  647.44   17.53
   6 -17   5  679.34   30.17
   6 -17   2  623.15   29.07
 -11  -6  -2  615.27   17.88
  11   6   2  588.53   18.44
  11   6  -1  101.35    8.62
   6 -17  -1   81.73   12.02
  11   6  -4   49.39    7.04
   6 -17  -4   40.37    9.91
 -11  -6   4   49.20    7.18
  11   6  -7  167.19   12.39
 -11  -6   7  167.16   12.48
 -11  -6  10  694.84   25.61
  11   6 -10  661.62   25.66
  17 -11  13  393.62   23.10
 -11  -6  13  398.15   20.42
 -11  -6  16   51.34    9.66
  17 -11  16   60.06   10.40
  17 -11  19    2.66    7.36
 -11  -6  19    0.63    7.37
 -11  -6  22  125.25   14.45
  17 -11  22  127.98   13.45
  17 -11  25  201.36   16.25
 -11  -6  25  226.97   19.19
  17 -11  28  111.33   12.50
 -11  -6  28  131.95   16.31
 -11  -6  31   20.45   10.66
  17 -11  31   13.05    7.20
   7 -17  33   46.10   12.42
   7 -17  30   71.60   14.28
   7 -17  27   19.88   11.07
   7 -17  24    4.52    8.58
   7 -17  21   -1.62    7.99
   7 -17  18   79.13   12.72
   7 -17  15  416.94   24.86
   7 -17  12  208.02   18.19
   7 -17   9   48.12   11.43
   7 -17   6   51.52   11.78
  10   7   3  257.20   12.14
   7 -17   3  254.50   19.39
 -10  -7  -3  260.26   11.08
   7 -17   0  147.00   15.69
  10   7   0  166.50   10.77
 -10  -7   0  162.26   10.10
  10   7  -3  208.08   12.66
 -10  -7   3  220.18   12.69
  10   7  -6    5.03    4.54
 -10  -7   6   -0.61    5.36
  10   7  -9   77.45    9.36
 -10  -7   9   98.70   10.20
 -10  -7  12  249.94   16.32
  10   7 -12  259.45   16.80
 -10  -7  15  239.02   16.92
  17 -10  15  196.21   15.92
 -10  -7  18  184.49   15.42
  17 -10  18  177.20   14.80
  17 -10  21   27.60    8.17
 -10  -7  21   29.74    9.94
  17 -10  24   13.57    7.09
 -10  -7  24   14.22    8.65
  17 -10  27   57.01    9.53
 -10  -7  27   91.89   13.81
 -10  -7  30   44.30   11.85
  17 -10  30   41.44    8.63
 -10  -7  33   69.26   14.05
   8 -17  34    2.47    8.73
   8 -17  31   27.26    9.70
   8 -17  28  110.33   15.68
   8 -17  25  166.33   18.11
   8 -17  22  166.32   17.91
   8 -17  19  103.18   14.99
   8 -17  16    3.19    7.85
   8 -17  13  101.03   13.90
   8 -17  10  220.83   18.35
   8 -17   7   80.29   13.31
  -9  -8  -7   82.00    5.19
   8 -17   4   79.61   12.02
  -9  -8  -4   85.94    6.38
   8 -17   1   17.61    8.98
   9   8   1   31.15    5.70
  -9  -8  -1   22.88    4.97
   9   8  -2  247.75   13.89
  -9  -8   2  282.52   14.02
   9   8  -5  588.63   22.54
  -9  -8   5  592.43   21.71
   9   8  -8  639.26   24.84
  -9  -8   8  577.28   22.72
   9   8 -11  165.95   13.64
  -9  -8  11  141.69   12.42
  17  -9  14   10.07    6.86
  -9  -8  14   15.14    7.58
  17  -9  17   45.05    9.22
  -9  -8  17   52.35    9.86
  17  -9  20   55.63    9.10
  -9  -8  20   46.74    9.98
  17  -9  23   49.76    8.64
  -9  -8  23   59.69   10.41
  17  -9  26   21.36    6.81
  -9  -8  26  -18.38   10.02
  17  -9  29   -2.20    5.87
  -9  -8  29   16.98    9.32
  -9  -8  32   13.50   10.69
   9 -17  32   13.29    9.20
   9 -17  29    6.41    9.33
   9 -17  26   76.51   14.05
   9 -17  23  133.50   16.21
   9 -17  20  380.56   24.83
   9 -17  17   95.95   14.80
   9 -17  14   15.26    9.35
  -8  -9 -11   40.48    2.28
   9 -17  11   53.69   11.93
   9 -17   8  332.10   22.87
  -8  -9  -8  324.71   10.23
   9 -17   5  242.03   19.26
  -8  -9  -5  249.89   10.76
   9 -17   2  315.80   22.23
  -8  -9  -2  372.39   14.46
  -8  -9   1    3.67    4.57
   8   9  -1    0.57    5.49
   8   9  -4  274.91   15.60
  -8  -9   4  272.40   14.61
   8   9  -7  354.10   18.42
  -8  -9   7  354.82   17.46
   8   9 -10  427.51   21.05
  -8  -9  10  408.59   19.85
  -8  -9  13  384.90   20.29
  -8  -9  16   89.72   11.92
  17  -8  16   96.10   10.85
  -8  -9  19    9.52    7.65
  17  -8  19   19.63    6.58
  17  -8  22  167.15   12.77
  -8  -9  22  163.61   16.19
  17  -8  25  156.07   12.31
  -8  -9  25  167.32   17.02
  17  -8  28   52.46    8.13
  -8  -9  28   97.95   14.75
  -8  -9  31   22.73   10.13
  -8  -9  34   -3.86    9.52
  10 -17  33   62.69   13.92
  10 -17  30   94.12   15.03
  10 -17  27   30.85   11.26
  10 -17  24   11.26    8.84
  10 -17  21   63.46   13.22
  10 -17  18  162.87   17.48
  10 -17  15  286.08   21.37
  10 -17  12  143.27   15.51
  -7 -10 -12  132.72    5.34
  -7 -10  -9   17.66    3.50
  10 -17   9    5.04    8.81
  -7 -10  -6   19.50    4.26
  17  -7  -6   11.37    5.83
  10 -17   6    8.98    9.26
  -7 -10  -3  265.60   12.36
  10 -17   3  230.38   19.64
  -7 -10   0  385.42   16.10
   7  10   0  390.93   18.12
  -7 -10   3   97.70    9.36
   7  10  -3   74.73    8.94
  -7 -10   6   -4.78    6.74
   7  10  -6   -1.13    5.40
  -7 -10   9  150.88   12.39
   7  10  -9  139.27   12.44
  -7 -10  12  345.91   18.83
  17  -7  15  396.17   19.22
  -7 -10  15  404.87   21.75
  17  -7  18  330.39   16.94
  -7 -10  18  322.01   20.51
  -7 -10  21   89.67   12.93
  17  -7  21   76.85    8.77
  -7 -10  24    1.24    7.91
  17  -7  24    1.28    4.71
  -7 -10  27    7.24    7.95
  17  -7  27    8.94    4.92
  -7 -10  30   22.45   10.01
  -7 -10  33   32.06   11.85
  11 -17  31   23.17   11.47
  11 -17  28  103.62   15.36
  11 -17  25  152.22   17.36
  11 -17  22  232.52   20.81
  11 -17  19  144.76   16.00
  -6 -11 -16    6.38    1.59
  -6 -11 -16    6.06    1.59
  -6 -11 -13  130.80    6.51
  11 -17  13  143.75   16.24
  -6 -11 -10  217.49    9.45
  11 -17  10  217.35   19.03
  -6 -11  -7  607.11   17.88
  17  -6  -7  636.77   26.59
  11 -17   7  581.40   30.16
  -6 -11  -4  348.05   14.42
  17  -6  -4  327.76   18.72
  11 -17   4  333.02   23.54
  -6 -11  -1    1.68    4.50
  17  -6  -1    0.96    4.94
   6  11  -2   54.42    8.06
  -6 -11   2   74.10    8.59
  -6 -11   5  524.19   20.94
   6  11  -5  528.72   23.31
   6  11  -8  695.00   27.80
  -6 -11   8  671.66   25.31
  -6 -11  11   69.28    9.88
  -6 -11  14   35.60    8.76
  17  -6  14   47.37    7.41
  -6 -11  17  104.21   12.66
  17  -6  17   94.73    9.19
  17  -6  20  146.20   10.64
  -6 -11  20  147.74   15.31
  17  -6  23   22.56    5.01
  -6 -11  23    1.44    8.29
  -6 -11  26   -2.95    8.93
  -6 -11  29   -1.23    9.35
  -6 -11  32   27.53   11.33
  12 -17  32  113.30   16.55
  12 -17  29   19.24   11.15
  12 -17  26   10.11    8.73
  12 -17  23  104.40   15.64
  12 -17  20  313.97   22.83
  -5 -12 -20  272.23    8.33
  -5 -12 -20  292.13    8.94
  12 -17  17  187.07   18.84
  -5 -12 -17  182.39    7.93
  -5 -12 -14   59.78    5.57
  12 -17  14   46.44   12.09
  12 -17  11    3.35    9.21
  -5 -12 -11    7.18    3.71
  12 -17   8  201.26   19.02
  -5 -12  -8  247.76   11.80
  17  -5  -8  244.43   16.53
  -5 -12  -5  549.98   18.92
  17  -5  -5  572.52   24.33
  -5 -12  -2  412.90   17.20
  17  -5  -2  425.36   20.37
  -5 -12   1   72.08    8.25
  17  -5   1   80.72    9.13
   5  12  -4   89.98   10.50
  -5 -12   4   98.03   10.19
  17  -5   4   86.77    9.40
  -5 -12   7  272.96   16.19
   5  12  -7  243.03   16.87
  -5 -12  10  278.03   17.06
  -5 -12  13  251.91   17.26
  17  -5  13  255.65   14.31
  -5 -12  16   21.26    8.56
  17  -5  16   20.46    5.36
  -5 -12  19   63.74   11.12
  17  -5  19   87.27    7.58
  -5 -12  22   89.65   12.91
  17  -5  22   78.94    6.88
  -5 -12  25  108.55   14.04
  -5 -12  28   71.02   12.97
  -5 -12  31   43.66   13.01
  13 -17  30   74.15   14.24
  13 -17  27   18.87   10.67
  13 -17  24   -0.79    9.67
  -4 -13 -21  124.45    7.58
  13 -17  21  123.51   15.84
  -4 -13 -18  379.04   13.50
  13 -17  18  374.75   25.25
  -4 -13 -15  565.07   17.54
  13 -17  15  519.97   29.16
  13 -17  12  254.08   21.20
  -4 -13 -12  267.79   12.73
  -4 -13  -9    5.96    4.67
  13 -17   9  -11.47   10.42
  -4 -13  -6   38.89    6.28
  17  -4  -6   43.27    7.40
  -4 -13  -3  148.05   11.06
  17  -4  -3  134.91   11.57
  -4 -13   0  398.90   18.01
  17  -4   0  367.89   18.12
  -4 -13   3  109.66   10.67
  17  -4   3   94.31    9.31
  -4 -13   6   10.07    6.91
  17  -4   6    1.00    4.15
   4  13  -6   -5.11    7.31
  -4 -13   9   55.07    9.32
  17  -4   9   61.75    7.24
  -4 -13  12  176.21   14.62
  -4 -13  15  143.94   14.44
  17  -4  15  157.56    9.64
  17  -4  18  122.17    7.75
  -4 -13  18  111.16   13.69
  -4 -13  21   76.67   11.87
  17  -4  21   62.32    5.29
  -4 -13  24   26.32   10.62
  -4 -13  27   72.61   13.16
  -4 -13  30  103.51   14.78
  -4 -13  33  145.26   18.17
  14 -17  31   24.71   11.79
  14 -17  28   66.86   13.40
  14 -17  25   77.78   14.14
  14 -17  22  107.17   15.52
  -3 -14 -22  132.55    9.41
  14 -17  19   -2.58    8.38
  -3 -14 -19   -2.58    4.27
  -3 -14 -16   86.22    8.39
  14 -17  16   66.82   13.17
  -3 -14 -13  479.65   18.18
  14 -17  13  433.22   26.99
  -3 -14 -10  570.85   20.60
  14 -17  10  517.34   29.36
  17  -3  -7  307.75   17.89
  -3 -14  -7  325.40   16.07
  -3 -14  -4  102.37    9.84
  17  -3  -4  110.80   10.69
  -3 -14  -1   43.88    7.74
  17  -3  -1   46.12    7.38
  17  -3   2   38.39    6.61
  -3 -14   2   40.99    7.85
  -3 -14   5  434.91   20.86
  17  -3   5  426.45   17.46
  -3 -14   8  231.64   16.50
  17  -3   8  255.66   12.59
  -3 -14  11   -2.90    6.54
  17  -3  11    1.20    3.11
  17  -3  14   60.46    5.88
  -3 -14  14   48.30   10.29
  17  -3  14   56.84    5.39
  17  -3  17  148.93    7.19
  -3 -14  17  180.66   16.34
  -3 -14  20  123.19   14.96
  -3 -14  23  224.39   19.42
  -3 -14  26   35.59   11.36
  -3 -14  29   -8.47    8.74
  -3 -14  32   77.28   14.64
  15 -17  29  -17.60   10.81
  15 -17  26   26.34   10.71
  -2 -15 -23  102.75    9.64
  15 -17  23   90.98   14.47
  15 -17  20  132.55   16.27
  -2 -15 -20  133.57   10.87
  15 -17  17   29.26   10.67
  -2 -15 -17   25.49    6.38
  -2 -15 -14   24.73    6.27
  15 -17  14   32.16   10.89
  -2 -15 -11  180.09   12.53
  15 -17  11  150.74   17.72
  15 -17   8  246.93   21.71
  17  -2  -8  283.98   17.41
  -2 -15  -5  738.26   26.18
  17  -2  -5  777.47   27.75
  17  -2  -2  347.48   17.53
  -2 -15  -2  383.94   19.16
  -2 -15   1   97.92   10.60
  17  -2   1   99.45    9.61
  -2 -15   4   29.15    7.59
  17  -2   4   33.77    5.72
  17  -2   7  125.21    9.01
  -2 -15   7  129.47   12.95
  -2 -15  10  160.14   14.61
  17  -2  10  151.66    8.56
  17  -2  13  130.89    7.29
  -2 -15  13  139.34   14.44
  17  -2  13  134.24    6.87
  17  -2  16   19.13    2.13
  -2 -15  16   21.89    9.13
  -2 -15  19   -8.02    8.31
  -2 -15  22   71.17   13.10
  -2 -15  25  165.36   17.56
  -2 -15  28   70.77   13.66
  -2 -15  31   17.25   11.39
  16 -17  30   67.26   13.66
  16 -17  27   20.93   10.78
  -1 -16 -24   -9.06    6.31
  16 -17  24  -14.11   11.78
  16 -17  21   50.28   12.12
  -1 -16 -21   34.79    7.34
  -1 -16 -18  202.41   14.31
  16 -17  18  203.71   19.81
  16 -17  15  308.12   24.28
  -1 -16 -15  322.92   17.37
  -1 -16 -12   96.97   10.40
  16 -17  12   83.15   14.86
  16 -17   9   65.72   12.96
  -1 -16  -9   71.67    9.76
  17  -1  -6   -0.21    4.33
  -1 -16  -6    8.75    6.30
  -1 -16  -3  124.43   12.03
  17  -1  -3  115.19   10.48
  17  -1   0  257.64   14.42
  -1 -16   0  271.15   17.32
  -1 -16   3  272.49   17.63
  17  -1   3  260.62   13.22
  -1 -16   6   15.09    7.38
  17  -1   6    6.42    3.53
  17  -1   9   33.00    4.38
  -1 -16   9   30.89    9.26
  17  -1  12  115.28    6.16
  -1 -16  12  138.26   14.70
  -1 -16  15  226.01   18.06
  -1 -16  18  357.01   22.91
  -1 -16  21  103.79   14.40
  -1 -16  24   13.58    9.19
  -1 -16  27   15.86    8.81
  -1 -16  30   31.37   12.15
  17 -17  28   15.10   10.55
  17 -17  25   57.06   13.33
  17 -17  22  108.79   15.69
   0 -17 -22  118.99   12.49
   0 -17 -19   -1.62    6.51
  17 -17  19    6.57    9.16
  17 -17  16   11.50    9.89
   0 -17 -16    0.86    5.75
  17 -17  13   82.80   14.91
   0 -17 -13   99.68   11.72
  17 -17  10  211.97   21.18
   0 -17 -10  226.90   16.17
   0 -17  -7   76.49   10.84
  17   0  -7   70.46    9.30
  17   0  -4    0.97    4.41
   0 -17  -4   11.21    7.16
  17   0  -1   49.30    7.01
   0 -17  -1   44.27    8.96
   0 -17   2  238.60   17.59
  17   0   2  231.45   12.71
  17   0   5  194.26   10.53
   0 -17   5  208.23   16.60
   0 -17   8   61.11   10.72
  17   0   8   52.16    4.95
  17   0  11   10.97    2.09
   0 -17  11   17.32    8.51
   0 -17  14   18.14    9.73
   0 -17  17   29.46   10.32
   0 -17  20  169.35   17.50
   0 -17  23   73.67   13.16
   0 -17  26   21.65   10.27
   0 -17  29   -6.68   10.63
   1 -18  28   36.21   12.44
   1 -18  25   70.06   13.39
   1 -18  22   70.26   13.38
   1 -18  19   23.46   10.17
   1 -18  16   21.15    9.92
   1 -18  13  102.44   14.03
   1 -18  10  215.72   18.37
   1 -18   7   73.85   12.31
   1 -18   4   26.54    8.79
  17   1   4   33.36    5.28
  17   1   1    9.13    4.72
   1 -18   1    3.16    7.24
  17   1  -2  238.85   14.34
   1 -18  -2  257.07   18.40
  17   1  -5  288.84   16.83
   1 -18  -5  290.42   19.04
   1 -18  -8  244.58   17.79
  18 -17  11   30.90   11.05
   1 -18 -11   41.72    9.38
  18 -17  14   -9.10   11.31
   1 -18 -14   13.17    7.17
  18 -17  17   59.99   13.02
   1 -18 -17   67.09   10.41
   1 -18 -20   59.60   10.45
  18 -17  20   70.36   14.00
   1 -18 -23   54.07    9.94
  18 -17  23   97.55   15.24
  18 -17  26   10.67    9.51
   2 -18  29    1.31    9.06
   2 -18  26   48.25   12.50
   2 -18  23  107.58   15.02
   2 -18  20  154.70   17.02
   2 -18  17  217.10   19.54
   2 -18  14   76.92   12.99
   2 -18  11   31.35    8.98
  16   2   8  149.12    6.55
   2 -18   8  166.90   16.17
   2 -18   5  322.44   21.12
  16   2   5  289.75   11.65
   2 -18   2  262.07   19.07
  16   2   2  239.24   12.41
   2 -18  -1   10.37    7.71
  16   2  -1    8.01    4.24
   2 -18  -4   49.57   10.11
  16   2  -4   71.37    8.82
  16   2  -7  383.46   20.01
   2 -18  -7  417.78   22.80
   2 -18 -10  495.35   25.29
  18 -16  13  295.72   23.61
   2 -18 -13  326.44   21.26
   2 -18 -16   76.55   12.34
  18 -16  16   67.18   12.71
  18 -16  19    5.08    8.66
  18 -16  22   40.46   10.95
  18 -16  25  115.27   16.05
  18 -16  28   53.60   11.80
   3 -18  30   44.61   12.51
   3 -18  27   82.24   14.70
   3 -18  24    3.02    8.52
   3 -18  21   99.88   14.94
   3 -18  18  365.77   24.46
   3 -18  15  354.27   23.39
   3 -18  12  159.57   16.33
   3 -18   9    3.82    8.44
  15   3   6   25.10    3.68
   3 -18   6   19.05    8.97
   3 -18   3  315.73   20.93
  15   3   3  306.73   13.03
  15   3   0  310.96   14.50
   3 -18   0  275.62   19.61
  15   3  -3   64.41    7.89
   3 -18  -3   52.03   10.30
   3 -18  -6   -1.89    7.17
  15   3  -6    6.53    4.85
   3 -18  -9  120.26   14.10
  15   3  -9  124.61   11.93
   3 -18 -12  212.98   17.73
  18 -15  12  208.63   19.41
  18 -15  15  270.51   22.15
  18 -15  18  212.90   19.61
  18 -15  21   76.23   13.31
  18 -15  24   16.94    9.12
  18 -15  27    5.30    8.92
  18 -15  30   69.74   12.83
   4 -18  28   38.06   12.83
   4 -18  25   48.36   11.77
   4 -18  22   85.61   13.94
   4 -18  19    8.07    9.26
   4 -18  16  151.50   16.73
   4 -18  13  288.82   21.23
   4 -18  10  388.90   23.94
   4 -18   7  412.05   24.19
   4 -18   4   33.04   10.00
  14   4   4   18.31    4.17
  14   4   1   25.57    5.20
   4 -18   1   34.22    9.99
  14   4  -2   69.49    7.96
   4 -18  -2   80.92   12.65
   4 -18  -5  203.17   17.80
  14   4  -5  190.75   12.93
  14   4  -8   32.12    7.44
   4 -18  -8   23.98    9.26
   4 -18 -11   -0.40    8.31
 -14  -4  14   55.85   10.37
  18 -14  14   39.21   10.84
  18 -14  17  180.70   18.47
 -14  -4  17  230.99   18.20
 -14  -4  20  204.09   17.71
  18 -14  20  195.36   18.01
 -14  -4  23  127.40   15.53
  18 -14  23  143.65   15.87
 -14  -4  26   17.61   10.20
  18 -14  26   -0.34    8.61
  18 -14  29    2.57    8.51
 -14  -4  29    4.85    8.37
   5 -18  29   30.97   12.34
   5 -18  26   24.20   10.65
   5 -18  23  117.50   16.08
   5 -18  20   78.62   13.16
   5 -18  17   91.19   14.54
   5 -18  14   35.31   10.03
   5 -18  11   37.97    9.95
   5 -18   8  273.04   20.22
   5 -18   5  314.01   21.55
  13   5   5  292.57   11.09
  13   5   2  204.65   10.93
   5 -18   2  199.49   17.45
  13   5  -1   23.33    5.39
   5 -18  -1   15.56    8.06
  13   5  -4   25.93    6.35
   5 -18  -4   27.51    9.32
   5 -18  -7  131.87   14.63
 -13  -5   7  170.72   12.88
  13   5  -7  153.99   12.17
 -13  -5  10  301.56   17.81
  13   5 -10  290.45   17.61
  18 -13  13  115.55   14.90
 -13  -5  13  123.66   12.75
 -13  -5  16   11.82    7.76
  18 -13  16   -6.11    8.46
  18 -13  19   23.60    8.79
 -13  -5  19   43.88   10.47
  18 -13  22  133.61   15.11
 -13  -5  22  145.16   16.16
  18 -13  25  193.42   17.44
 -13  -5  25  198.73   18.66
  18 -13  28   24.93    8.75
 -13  -5  28   16.40    9.74
 -13  -5  31   23.96   11.24
  18 -13  31   20.06    8.70
   6 -18  30  141.83   17.36
   6 -18  27  120.35   16.62
   6 -18  24  -10.98   10.33
   6 -18  21    7.23   10.07
   6 -18  18  170.44   17.90
   6 -18  15  161.16   16.82
   6 -18  12   91.91   13.20
   6 -18   9   14.95    9.24
   6 -18   6  167.02   16.81
   6 -18   3  356.75   22.96
  12   6   3  330.24   13.49
  12   6   0  412.10   16.61
   6 -18   0  400.53   24.45
   6 -18  -3  286.35   21.07
  12   6  -3  280.50   14.93
 -12  -6   3  283.25   14.73
 -12  -6   6  249.07   14.82
   6 -18  -6  247.27   19.60
  12   6  -6  255.06   15.34
  12   6  -9   14.73    5.75
 -12  -6   9   12.90    6.07
 -12  -6  12  148.79   13.83
  18 -12  15   82.19   11.99
 -12  -6  15   93.08   11.66
  18 -12  18   93.23   12.66
 -12  -6  18  115.44   13.75
  18 -12  21   15.76    8.40
 -12  -6  21   -3.67    7.53
  18 -12  24   -0.87    7.78
 -12  -6  24    5.61    8.95
  18 -12  27   49.73   10.07
 -12  -6  27   50.70   12.28
  18 -12  30  119.24   13.51
 -12  -6  30  128.93   17.10
   7 -18  31   25.75   11.36
   7 -18  28   98.32   15.28
   7 -18  25  132.33   17.52
   7 -18  22  162.15   17.71
   7 -18  19    5.71    8.70
   7 -18  16   52.88   11.49
   7 -18  13  175.57   17.28
   7 -18  10  423.10   25.48
   7 -18   7  120.35   15.37
   7 -18   4   -2.93    8.51
  11   7   4    1.13    3.50
   7 -18   1   71.20   12.34
 -11  -7  -1   67.48    6.95
  11   7   1   80.79    8.09
   7 -18  -2  208.03   18.61
  11   7  -2  203.96   12.62
 -11  -7   2  201.53   12.10
  11   7  -5  412.89   19.11
 -11  -7   5  435.40   18.72
  11   7  -8  131.75   11.89
 -11  -7   8  136.80   12.10
  11   7 -11   41.13    8.35
 -11  -7  11   34.03    7.97
  18 -11  14    4.47    8.46
 -11  -7  14    8.41    7.12
  18 -11  17   52.90   10.25
 -11  -7  17   45.09    9.65
  18 -11  20  103.47   12.43
 -11  -7  20  109.11   13.60
  18 -11  23  129.55   13.72
 -11  -7  23  122.08   14.98
  18 -11  26   45.36    9.50
 -11  -7  26   58.84   13.21
  18 -11  29   -2.55    6.72
 -11  -7  29   18.79    9.25
 -11  -7  32   77.17   14.47
   8 -18  32   63.79   14.25
   8 -18  29    2.72    9.54
   8 -18  26   66.48   12.66
   8 -18  23  303.09   23.35
   8 -18  20  307.64   23.61
   8 -18  17  210.68   19.58
   8 -18  14  101.00   14.25
   8 -18  11   30.47   10.46
   8 -18   8   30.06   10.91
   8 -18   5   48.59   11.47
 -10  -8  -5   80.73    6.18
  10   8   2   48.42    6.64
   8 -18   2   37.44   11.17
 -10  -8  -2   45.01    6.04
  10   8  -1   11.36    5.08
 -10  -8   1   17.16    5.12
  10   8  -4    7.79    5.02
 -10  -8   4    1.11    5.30
  10   8  -7  361.89   18.58
 -10  -8   7  335.87   17.64
  10   8 -10  486.82   22.71
 -10  -8  10  509.97   22.49
 -10  -8  13  427.37   21.89
  18 -10  16  157.58   14.55
 -10  -8  16  177.30   15.45
  18 -10  19   53.41    9.87
 -10  -8  19   65.43   11.30
  18 -10  22    8.99    6.61
 -10  -8  22   12.67    8.91
  18 -10  25  123.83   12.69
 -10  -8  25  115.74   15.07
  18 -10  28   72.24   10.31
 -10  -8  28   90.03   14.60
 -10  -8  31   22.67   10.23
   9 -18  30   60.78   14.08
   9 -18  27   37.84   11.48
   9 -18  24   -7.60   10.02
   9 -18  21   34.31   11.77
   9 -18  18  206.95   19.51
   9 -18  15  327.76   23.36
   9 -18  12  221.25   19.32
  -9  -9  -9   92.47    4.76
   9 -18   9  108.93   14.96
  -9  -9  -6   68.19    5.67
   9 -18   6   54.97   12.16
   9 -18   3   -4.96    9.07
  -9  -9  -3   16.78    4.22
   9 -18   0  134.72   16.02
   9   9   0  128.70   10.32
  -9  -9   0  130.97    9.46
  -9  -9   3  283.08   14.75
   9   9  -3  282.98   15.68
   9   9  -6   98.29   10.25
  -9  -9   6  120.99   10.66
  -9  -9   9    2.06    6.26
   9   9  -9    7.28    5.49
  -9  -9  12  174.43   14.37
  -9  -9  15  286.12   18.56
  18  -9  15  267.80   17.67
  -9  -9  18  167.46   15.42
  18  -9  18  154.56   13.70
  18  -9  21   23.75    7.13
  -9  -9  21   33.10   10.28
  18  -9  24    5.27    5.53
  -9  -9  24    9.80    8.10
  18  -9  27   46.33    8.20
  -9  -9  27   46.97   11.30
  -9  -9  30  108.26   15.87
  10 -18  31   36.94   12.94
  10 -18  28   80.55   14.88
  10 -18  25  112.26   16.18
  10 -18  22   13.96   10.35
  10 -18  19   -2.18   10.12
  10 -18  16  216.92   19.36
  10 -18  13  320.41   23.12
  10 -18  10  176.65   18.37
  -8 -10 -10  169.77    6.78
  10 -18   7  197.84   19.18
  -8 -10  -7  200.03    9.26
  10 -18   4   24.01    8.89
  -8 -10  -4   35.22    5.35
  -8 -10  -1    3.03    4.91
   8  10  -2  338.05   17.59
  -8 -10   2  343.19   16.04
   8  10  -5  221.62   14.93
  -8 -10   5  255.43   14.83
  -8 -10   8   40.90    7.93
   8  10  -8   16.74    6.39
  -8 -10  11   -0.89    6.50
  -8 -10  14   21.43    7.68
  18  -8  14   24.91    8.30
  -8 -10  17  129.86   13.97
  18  -8  17  129.06   12.04
  18  -8  20  334.92   17.68
  -8 -10  20  334.31   21.72
  -8 -10  23  279.90   20.90
  18  -8  23  277.40   15.95
  18  -8  26   61.56    8.40
  -8 -10  26   65.99   13.06
  -8 -10  29    4.11    8.85
  -8 -10  32   20.40   10.24
  11 -18  32   40.19   13.04
  11 -18  29    8.68   10.01
  11 -18  26   18.15   10.98
  11 -18  23   88.14   14.95
  11 -18  20  132.12   16.18
  11 -18  17   73.60   13.56
  -7 -11 -14    2.16    1.10
  11 -18  14    9.34    9.74
  -7 -11 -11   60.71    4.73
  11 -18  11   58.61   12.97
  -7 -11  -8  472.00   14.68
  11 -18   8  406.91   26.67
  -7 -11  -5  600.76   18.36
  11 -18   5  563.60   30.56
  -7 -11  -2  323.76   14.76
  18  -7  -2  323.78   19.06
   7  11  -1   15.46    5.80
  -7 -11   1   10.63    5.06
   7  11  -4   38.88    7.93
  -7 -11   4   37.38    6.95
  -7 -11   7  466.77   20.81
   7  11  -7  470.29   22.80
  -7 -11  10  277.47   17.39
  -7 -11  13   90.83   11.58
  -7 -11  16   69.11   10.64
  18  -7  16   43.64    7.63
  18  -7  19    7.96    5.36
  -7 -11  19    5.40    8.44
  -7 -11  22   22.92    9.60
  18  -7  22   27.59    6.22
  -7 -11  25   93.91   14.04
  -7 -11  28   62.09   12.21
  -7 -11  31    6.83    8.79
  12 -18  30  126.90   17.58
  12 -18  27   53.07   13.67
  12 -18  24   -2.47   10.53
  12 -18  21   39.51   11.50
  12 -18  18  110.63   15.72
  -6 -12 -15  159.54    6.83
  12 -18  15  170.43   18.05
  12 -18  12  206.33   19.82
  -6 -12 -12  242.91    9.88
  12 -18   9   16.00    9.79
  -6 -12  -9   22.91    4.51
  12 -18   6   83.24   13.98
  -6 -12  -6   78.20    7.37
  -6 -12  -3  504.54   18.51
  18  -6  -3  448.94   21.95
  -6 -12   0  476.86   19.02
  18  -6   0  419.73   20.73
  -6 -12   3  276.36   15.62
   6  12  -3  260.64   17.36
   6  12  -6   39.00    7.73
  -6 -12   6   38.56    7.65
  -6 -12   9    3.60    6.42
  -6 -12  12  142.26   13.51
  -6 -12  15  295.99   19.63
  18  -6  15  293.94   15.70
  18  -6  18   72.95    7.97
  -6 -12  18   51.45   10.67
  -6 -12  21    5.63    8.21
  18  -6  21    7.63    4.39
  -6 -12  24    0.30    8.65
  -6 -12  27   36.87   11.42
  -6 -12  30   93.71   15.13
  13 -18  31   19.03   11.17
  13 -18  28  136.69   17.15
  13 -18  25  130.79   17.72
  13 -18  22  -11.16   10.88
  13 -18  19    4.97    9.83
  -5 -13 -19    0.63    2.06
  13 -18  16  103.64   15.03
  -5 -13 -16  109.91    6.86
  13 -18  13  243.73   21.43
  -5 -13 -13  214.64   10.27
  -5 -13 -10  276.65   12.73
  13 -18  10  252.58   21.89
  13 -18   7  253.71   21.55
  -5 -13  -7  293.10   14.10
  -5 -13  -4   53.65    7.26
  18  -5  -4   59.36    8.92
  -5 -13  -1   13.47    5.40
  18  -5  -1   18.02    5.90
  -5 -13   2  380.45   18.18
  18  -5   2  363.25   18.42
  -5 -13   5  425.59   20.11
  18  -5   5  388.91   18.63
   5  13  -5  436.21   22.89
  -5 -13   8  232.10   15.73
  18  -5   8  260.86   14.68
  -5 -13  11   64.23   10.16
  18  -5  14    3.74    4.86
  -5 -13  14    0.39    7.45
  -5 -13  17   91.69   12.33
  18  -5  17  101.83    8.36
  -5 -13  20  165.70   16.19
  18  -5  20  156.39    9.21
  -5 -13  23  209.35   18.32
  -5 -13  26   38.92   11.19
  -5 -13  29    9.79    9.94
  14 -18  29   13.55   11.10
  14 -18  26   55.21   12.69
  14 -18  23   94.46   15.73
  -4 -14 -20   94.82    7.00
  14 -18  20  114.16   15.82
  -4 -14 -17  133.95    8.86
  14 -18  17  122.70   16.56
  14 -18  14   30.69   11.21
  -4 -14 -14   55.70    6.96
  14 -18  11   34.20   10.57
  -4 -14 -11   44.81    6.45
  14 -18   8  145.98   17.61
  -4 -14  -8  176.24   11.49
  -4 -14  -5  121.69   10.38
  18  -4  -5  105.69   11.34
  18  -4  -2   71.54    9.28
  -4 -14  -2   69.62    9.12
  -4 -14   1   37.75    7.58
  18  -4   1   34.77    6.84
  -4 -14   4   25.46    7.10
  18  -4   4   25.51    5.49
  -4 -14   7  184.78   14.58
  18  -4   7  185.37   11.90
  -4 -14  10  314.36   19.29
  18  -4  10  304.75   14.43
  -4 -14  13  171.08   15.28
  18  -4  13  173.68   10.46
  18  -4  16   47.77    5.79
  -4 -14  16   35.66    9.13
  -4 -14  19   -4.89    8.70
  -4 -14  22  138.77   15.80
  -4 -14  25  138.30   15.82
  -4 -14  28   84.34   14.48
  15 -18  30   34.37   11.53
  15 -18  27    2.07   10.13
  15 -18  24   -9.52   10.93
  -3 -15 -21    7.36    4.25
  15 -18  21   -5.89   10.01
  15 -18  18  145.20   17.77
  -3 -15 -18  136.32    9.89
  15 -18  15  179.00   19.01
  -3 -15 -15  176.32   11.36
  15 -18  12  138.10   17.03
  -3 -15 -12  158.58   11.33
  15 -18   9   26.13   11.20
  -3 -15  -9   34.02    6.82
  18  -3  -6   -3.82    5.56
  -3 -15  -6    5.93    5.36
  -3 -15  -3  142.71   11.95
  18  -3  -3  138.24   12.04
  -3 -15   0  238.31   15.36
  18  -3   0  238.03   14.78
  -3 -15   3   64.98    9.49
  18  -3   3   59.80    7.78
  -3 -15   6   18.26    7.47
  18  -3   6   16.42    4.99
  18  -3   9   90.43    7.78
  -3 -15   9   97.97   11.88
  -3 -15  12  328.30   20.48
  18  -3  12  314.61   12.63
  -3 -15  15  265.39   19.41
  18  -3  15  248.11   10.09
  -3 -15  18  249.53   19.56
  -3 -15  21   47.04   11.08
  -3 -15  24   27.87   10.48
  -3 -15  27   51.26   12.46
  -3 -15  30   63.78   14.12
  16 -18  28   19.72    9.91
  16 -18  25   13.71   10.96
  16 -18  22   34.29   12.30
  16 -18  19    6.40    9.11
  -2 -16 -19    0.07    4.83
  -2 -16 -16  128.46   10.95
  16 -18  16  114.36   16.25
  -2 -16 -13  255.54   14.95
  16 -18  13  186.31   20.22
  16 -18  10  397.11   27.11
  -2 -16 -10  437.81   19.83
  -2 -16  -7  529.32   22.59
  18  -2  -4  235.72   15.66
  -2 -16  -4  238.69   15.79
  18  -2  -1   19.66    5.83
  -2 -16  -1   15.59    6.51
  -2 -16   2   47.09    9.09
  18  -2   2   34.35    6.39
  -2 -16   5  175.18   14.58
  18  -2   5  159.60   10.68
  -2 -16   8  130.76   13.67
  18  -2   8  112.83    8.23
  -2 -16  11   15.50    7.47
  -2 -16  14   28.00    9.29
  -2 -16  17  296.85   21.27
  -2 -16  20  316.69   22.70
  -2 -16  23   68.49   13.25
  -2 -16  26   10.75    8.99
  -2 -16  29    1.36    9.70
  17 -18  26  -12.63   11.09
  17 -18  23  116.65   16.61
  -1 -17 -20  112.49   11.31
  17 -18  20  101.60   15.53
  -1 -17 -17   67.94    9.33
  17 -18  17   70.49   13.24
  -1 -17 -14    8.43    6.08
  17 -18  14   13.53   10.20
  -1 -17 -11   85.23   10.15
  17 -18  11   66.16   13.14
  -1 -17  -8  216.21   15.35
  18  -1  -5  284.99   17.67
  -1 -17  -5  305.57   18.31
  -1 -17  -2  247.52   17.02
  18  -1  -2  275.89   15.93
  18  -1   1   48.63    7.14
  -1 -17   1   49.49    9.97
  -1 -17   4    6.45    7.01
  18  -1   4    8.95    4.19
  -1 -17   7  112.49   13.09
  -1 -17  10  266.83   19.37
  -1 -17  13  310.67   21.10
  -1 -17  16   44.76   11.31
  -1 -17  19    9.60    9.39
  -1 -17  22   96.06   15.10
  -1 -17  25   88.73   14.52
  -1 -17  28  102.48   15.17
  18 -18  24   -3.60    9.65
  18 -18  21    6.34    9.67
   0 -18 -21    1.09    6.01
   0 -18 -18  102.74   11.62
  18 -18  18   72.64   13.51
  18 -18  15   72.37   14.14
   0 -18 -15   75.49   10.82
   0 -18 -12   19.25    7.59
  18 -18  12    9.57   10.15
   0 -18  -9   25.94    8.59
  18 -18   9   -4.79   11.21
  18   0  -6  168.66   13.56
   0 -18  -6  179.00   15.54
  18   0  -3  300.21   16.93
   0 -18  -3  308.01   19.73
   0 -18   0  333.87   20.49
  18   0   0  320.70   16.13
  18   0   3  229.10   12.61
   0 -18   3  242.36   18.26
   0 -18   6  103.52   13.46
   0 -18   9    3.95    7.71
   0 -18  12   79.18   12.63
   0 -18  15   39.62   10.75
   0 -18  18   28.89    9.94
   0 -18  21  -11.80   10.64
   0 -18  24    0.05    9.79
   1 -19  23   97.29   15.85
   1 -19  20  122.70   16.34
   1 -19  17   52.08   11.96
   1 -19  14    5.65    8.29
   1 -19  11   64.67   11.60
   1 -19   8  205.94   18.34
   1 -19   5  335.64   22.27
   1 -19   2  106.50   13.37
   1 -19  -1   10.03    7.87
  18   1  -4   12.85    5.37
   1 -19  -4    9.63    8.19
   1 -19  -7   90.97   12.33
   1 -19 -10   82.29   11.68
  19 -18  10   64.15   13.98
  19 -18  13   47.75   12.76
   1 -19 -13   29.18    8.83
   1 -19 -16   12.14    6.93
  19 -18  16    3.47    9.33
  19 -18  19   -1.68   10.09
   1 -19 -19    3.03    7.26
  19 -18  22   22.99   10.73
   1 -19 -22   39.73    9.45
  19 -18  25   63.88   14.11
   2 -19  24    7.56   10.49
   2 -19  21   26.08   11.09
   2 -19  18  119.58   16.09
   2 -19  15  278.01   21.93
   2 -19  12   96.09   13.45
   2 -19   9   -7.63    9.05
   2 -19   6   55.33   11.11
   2 -19   3  176.62   16.40
   2 -19   0  178.89   16.39
  17   2   0  176.82   11.60
   2 -19  -3  148.51   14.95
  17   2  -3  138.82   11.39
   2 -19  -6    0.99    7.11
  17   2  -6    8.46    5.53
   2 -19  -9   29.71    8.77
   2 -19 -12  104.73   12.89
  19 -17  12  114.48   16.40
  19 -17  15  180.63   19.08
   2 -19 -15  201.75   16.99
   2 -19 -18   62.38   11.22
  19 -17  18   67.39   13.85
  19 -17  21    5.43    9.30
   2 -19 -21   -5.11    8.24
  19 -17  24    0.08    9.43
   3 -19  25   97.29   15.97
   3 -19  22   42.30   12.14
   3 -19  19   -0.47    8.94
   3 -19  16   37.67   11.10
   3 -19  13   66.73   12.29
   3 -19  10   92.62   14.21
   3 -19   7   38.52   10.23
  16   3   4    2.17    3.29
   3 -19   4   -7.18    8.23
   3 -19   1   19.88    9.11
  16   3   1   21.21    5.06
  16   3  -2  172.21   11.91
   3 -19  -2  175.93   16.38
  16   3  -5  143.79   11.87
   3 -19  -5  161.29   15.76
   3 -19  -8  215.69   17.93
  16   3  -8  199.41   15.02
  19 -16  11   54.98   12.42
   3 -19 -11   94.73   12.74
   3 -19 -14    3.97    8.35
  19 -16  14    0.71    9.26
   3 -19 -17  104.37   13.51
  19 -16  17   80.24   14.02
  19 -16  20  127.05   16.11
  19 -16  23  202.03   19.81
  19 -16  26   94.68   14.86
   4 -19  26   31.42   11.83
   4 -19  23  148.96   17.78
   4 -19  20  194.26   19.16
   4 -19  17  110.02   15.22
   4 -19  14   11.01    9.29
   4 -19  11    5.32    8.79
   4 -19   8  148.05   15.91
  15   4   5  166.53    8.57
   4 -19   5  185.46   17.04
   4 -19   2  172.77   16.80
  15   4   2  170.11   10.45
  15   4  -1    5.42    3.98
   4 -19  -1   10.97    8.27
   4 -19  -4   17.85    9.22
  15   4  -4   11.34    5.35
   4 -19  -7   61.88   11.67
  15   4  -7   64.17    8.82
   4 -19 -10  309.06   21.98
  19 -15  13  149.75   17.17
   4 -19 -13  173.64   17.23
  19 -15  16   10.45    8.69
  19 -15  19  -11.93    9.49
  19 -15  22   55.71   11.69
 -15  -4  22   35.54   10.91
 -15  -4  25  118.90   16.36
  19 -15  25   99.73   14.23
  19 -15  28   62.59   12.38
   5 -19  27   13.73   10.59
   5 -19  24   -2.03    9.22
   5 -19  21   29.31   11.17
   5 -19  18   80.23   14.46
   5 -19  15  288.23   21.85
   5 -19  12  228.55   20.13
   5 -19   9   76.84   12.44
   5 -19   6    6.39    7.30
  14   5   6    2.61    2.24
  14   5   3  186.96   10.33
   5 -19   3  208.92   18.29
  14   5   0  232.06   12.68
   5 -19   0  212.58   18.66
   5 -19  -3  238.36   19.45
  14   5  -3  252.49   14.62
  14   5  -6   88.67    9.95
   5 -19  -6   67.48   12.15
  14   5  -9   89.22   10.06
 -14  -5   9   74.48    9.78
   5 -19  -9   64.39   12.19
  19 -14  12  175.24   17.98
 -14  -5  12  208.73   15.92
 -14  -5  15  227.52   17.45
  19 -14  15  195.81   19.00
  19 -14  18  188.77   18.13
 -14  -5  18  199.64   17.78
  19 -14  21   75.28   13.32
 -14  -5  21   82.19   13.14
 -14  -5  24    1.81    8.37
  19 -14  24   12.51    7.56
  19 -14  27   11.80    8.54
 -14  -5  27   18.97   10.48
   6 -19  28   41.64   12.02
   6 -19  25   95.95   15.72
   6 -19  22   92.42   14.66
   6 -19  19    3.49    9.69
   6 -19  16   15.99    9.60
   6 -19  13  125.95   15.39
   6 -19  10  307.51   22.51
   6 -19   7  223.91   19.20
  13   6   4   41.08    5.14
   6 -19   4   47.70   11.83
  13   6   1    1.82    3.88
   6 -19   1    7.03    7.77
  13   6  -2  247.14   14.01
   6 -19  -2  229.33   19.41
   6 -19  -5  428.54   26.42
 -13  -6   5  415.87   19.20
  13   6  -5  408.71   19.33
 -13  -6   8  252.14   16.08
   6 -19  -8  214.26   19.30
  13   6  -8  230.30   15.67
 -13  -6  11   12.34    7.07
  19 -13  14   20.92    9.28
 -13  -6  14   22.72    8.28
  19 -13  17  123.80   15.55
 -13  -6  17  148.97   15.26
  19 -13  20  110.71   13.97
 -13  -6  20   89.14   13.00
 -13  -6  23   94.35   13.59
  19 -13  23   94.95   12.83
  19 -13  26   -5.39    8.77
 -13  -6  26    9.45    8.55
  19 -13  29   -6.02    7.34
 -13  -6  29    0.68    9.31
   7 -19  29  -13.31   11.24
   7 -19  26    5.25    9.34
   7 -19  23   93.05   15.35
   7 -19  20  138.78   17.20
   7 -19  17   92.65   14.56
   7 -19  14  -10.69   10.06
   7 -19  11  131.88   16.06
   7 -19   8  174.66   17.92
   7 -19   5  262.27   20.85
   7 -19   2  224.36   19.58
  12   7   2  211.46   11.71
  12   7  -1   19.35    5.49
   7 -19  -1    9.42    9.96
 -12  -7   1   17.15    5.32
 -12  -7   4  111.79   10.55
  12   7  -4   89.68    9.66
   7 -19  -4   99.20   14.75
  12   7  -7   59.66    8.71
 -12  -7   7   72.05    9.22
 -12  -7  10   96.20   11.31
  19 -12  13   58.71   11.31
 -12  -7  13   66.21   10.47
  19 -12  16   10.94    8.10
 -12  -7  16    9.52    7.69
  19 -12  19    0.32    7.33
 -12  -7  19    9.45    8.28
  19 -12  22  126.32   14.36
 -12  -7  22  146.91   16.13
  19 -12  25  113.94   13.05
 -12  -7  25  104.80   14.74
  19 -12  28   70.59   11.00
 -12  -7  28   80.01   14.59
   8 -19  30   45.40   13.08
   8 -19  27   36.81   12.64
   8 -19  24   14.28    9.74
   8 -19  21  144.30   17.23
   8 -19  18  299.73   23.24
   8 -19  15  250.01   21.32
   8 -19  12   95.09   14.82
   8 -19   9   15.46   10.68
   8 -19   6   22.06    9.73
  11   8   3  368.67   15.51
   8 -19   3  362.92   24.53
 -11  -8  -3  381.82   14.31
  11   8   0  415.45   17.98
 -11  -8   0  414.43   16.77
   8 -19   0  385.16   25.18
  11   8  -3  113.80   10.24
 -11  -8   3   97.79    9.32
 -11  -8   6    4.41    5.09
  11   8  -6    9.26    5.12
  11   8  -9   74.63   10.05
 -11  -8   9   83.95   10.48
 -11  -8  12   48.62    9.30
  19 -11  15  154.54   15.22
 -11  -8  15  159.06   14.63
  19 -11  18  185.26   16.13
 -11  -8  18  172.25   15.84
  19 -11  21   44.78    9.84
 -11  -8  21   64.68   12.15
  19 -11  24   -1.23    6.97
 -11  -8  24   -0.35    8.76
  19 -11  27   24.97    7.76
 -11  -8  27   44.57   11.74
 -11  -8  30   84.90   15.29
   9 -19  28  119.80   17.14
   9 -19  25  144.35   17.96
   9 -19  22   51.18   13.39
   9 -19  19   -8.39   11.54
   9 -19  16   20.02   11.13
   9 -19  13  127.07   16.39
   9 -19  10  290.67   22.69
   9 -19   7  411.64   26.21
 -10  -9  -7  348.15   11.16
   9 -19   4   20.92    9.76
 -10  -9  -4   10.68    3.70
 -10  -9  -1  188.67   11.03
  10   9   1  178.14   11.87
  10   9  -2  199.61   13.60
 -10  -9   2  213.58   12.89
  10   9  -5  351.01   18.57
 -10  -9   5  349.71   17.44
  10   9  -8  457.77   22.26
 -10  -9   8  519.52   22.28
 -10  -9  11  212.16   15.56
  19 -10  14    2.11    6.77
 -10  -9  14   15.23    7.38
  19 -10  17  123.90   13.07
 -10  -9  17  127.10   13.91
  19 -10  20  108.06   12.51
 -10  -9  20  111.97   13.87
  19 -10  23   79.96   10.51
 -10  -9  23  102.37   13.90
  19 -10  26   41.80    8.62
 -10  -9  26   38.31   11.18
 -10  -9  29    3.83    9.44
  10 -19  29   18.45   11.57
  10 -19  26   33.91   12.65
  10 -19  23   49.61   12.80
  10 -19  20   42.16   12.98
  10 -19  17   99.25   15.13
  10 -19  14    9.66    9.53
  10 -19  11   14.42    9.97
  10 -19   8  253.96   21.94
  -9 -10  -8  217.37    8.70
  10 -19   5  370.51   25.40
  -9 -10  -5  418.52   14.58
  10 -19   2   98.99   14.64
  -9 -10  -2  110.50    8.83
  -9 -10   1   32.12    6.61
   9  10  -1   26.82    6.38
  -9 -10   4   -0.15    5.91
   9  10  -4    6.40    5.57
  -9 -10   7  108.61   11.12
   9  10  -7  107.49   11.20
  -9 -10  10  385.83   20.29
  -9 -10  13  287.33   18.51
  -9 -10  16   79.91   11.75
  19  -9  16   64.82   10.32
  19  -9  19   17.39    7.13
  -9 -10  19  -11.04    8.86
  19  -9  22  170.41   13.33
  -9 -10  22  182.42   17.36
  19  -9  25  180.47   13.59
  -9 -10  25  176.99   18.23
  -9 -10  28   98.71   15.02
  11 -19  30  124.43   17.38
  11 -19  27   59.72   13.55
  11 -19  24   -6.39    9.78
  11 -19  21   36.88   11.65
  11 -19  18  179.39   18.28
  11 -19  15  254.16   21.59
  -8 -11 -12  138.54    5.03
  11 -19  12  192.64   19.66
  -8 -11  -9   -4.18    3.00
  11 -19   9   10.51    9.79
  11 -19   6  194.16   19.48
  -8 -11  -6  240.04   11.14
  11 -19   3  142.91   17.71
  -8 -11  -3  164.58   10.59
  -8 -11   0  334.31   15.73
  -8 -11   3  340.75   17.00
   8  11  -3  298.58   18.08
  -8 -11   6   -4.39    6.07
   8  11  -6    3.60    5.73
  -8 -11   9  141.88   12.96
  -8 -11  12  157.87   14.15
  19  -8  15  254.69   16.53
  -8 -11  15  261.77   18.05
  19  -8  18  222.29   15.10
  -8 -11  18  214.67   18.11
  -8 -11  21  121.00   15.10
  19  -8  21  114.74   10.81
  -8 -11  24    9.50    8.51
  -8 -11  27   20.37    9.55
  -8 -11  30   70.09   13.88
  12 -19  28   88.59   15.75
  12 -19  25   62.78   13.76
  12 -19  22   42.31   12.17
  12 -19  19  -10.89    9.53
  12 -19  16   33.02   12.16
  -7 -12 -13  165.75    6.85
  12 -19  13  184.55   19.32
  -7 -12 -10  329.25   11.79
  12 -19  10  275.63   22.28
  -7 -12  -7   53.42    6.14
  12 -19   7   28.63   10.21
  12 -19   4   -5.81   10.61
  -7 -12  -4   -0.55    4.39
  -7 -12  -1   60.27    7.54
  19  -7  -1   53.30    8.78
  -7 -12   2  141.50   11.33
  -7 -12   5  137.31   12.01
   7  12  -5  141.62   13.13
  -7 -12   8  212.31   15.17
  -7 -12  11   44.25    8.58
  19  -7  14    2.93    5.47
  -7 -12  14   -3.00    7.80
  -7 -12  17   64.61   11.02
  19  -7  17   89.32    9.81
  19  -7  20  189.97   12.50
  -7 -12  20  203.86   18.13
  -7 -12  23  140.74   16.35
  -7 -12  26   36.30   10.79
  -7 -12  29  -11.13    9.44
  13 -19  29    1.47   10.71
  13 -19  26    8.83   10.03
  13 -19  23   57.69   13.11
  13 -19  20  125.36   16.72
  13 -19  17   78.26   14.70
  -6 -13 -14    2.23    2.61
  13 -19  14    0.49    8.79
  -6 -13 -11   85.27    6.93
  13 -19  11   50.72   12.93
  -6 -13  -8  233.48   12.03
  13 -19   8  228.84   21.43
  -6 -13  -5  425.40   17.24
  13 -19   5  372.75   25.72
  -6 -13  -2  350.27   16.44
  19  -6  -2  315.73   18.95
  -6 -13   1   62.98    8.44
  19  -6   1   53.81    8.84
  -6 -13   4    2.71    5.59
  19  -6   4   11.93    5.66
  -6 -13   7  152.81   13.47
  -6 -13  10  318.88   19.03
  -6 -13  13  299.95   19.55
  19  -6  16    7.68    4.80
  -6 -13  16    5.90    7.82
  -6 -13  19   10.35    8.13
  19  -6  19   25.29    5.47
  -6 -13  22  167.01   17.28
  -6 -13  25  167.52   17.16
  -6 -13  28  104.10   15.44
  14 -19  27   36.00   13.00
  14 -19  24   -7.83   10.83
  14 -19  21   71.83   14.20
  14 -19  18  191.25   19.91
  -5 -14 -15  356.08   13.08
  14 -19  15  356.56   25.94
  14 -19  12  119.00   17.24
  -5 -14 -12  141.79    9.32
  14 -19   9   18.43    9.96
  -5 -14  -9   22.22    5.47
  14 -19   6    8.99    9.88
  -5 -14  -6    4.12    5.17
  -5 -14  -3  178.87   12.31
  19  -5  -3  144.73   13.37
  -5 -14   0  265.83   15.69
  19  -5   0  272.27   16.94
  -5 -14   3  281.74   16.68
  19  -5   3  282.86   16.53
  -5 -14   6   42.91    8.29
  19  -5   6   49.82    7.27
  -5 -14   9   28.76    8.18
  19  -5   9   31.62    6.30
  -5 -14  12  171.64   15.38
  19  -5  12  161.01   11.37
  -5 -14  15  255.53   19.01
  19  -5  15  224.44   12.56
  -5 -14  18  173.45   16.84
  -5 -14  21   -0.70    9.07
  -5 -14  24    7.54    9.18
  -5 -14  27   20.18   10.16
  15 -19  28   61.14   13.91
  15 -19  25  100.73   15.87
  15 -19  22   93.55   15.66
  15 -19  19   -2.92    8.69
  -4 -15 -16   24.90    5.20
  15 -19  16   21.05   10.65
  15 -19  13  106.36   16.09
  -4 -15 -13  107.05    8.94
  -4 -15 -10  226.51   12.95
  15 -19  10  224.05   22.47
  15 -19   7  149.59   18.10
  -4 -15  -7  167.00   11.83
  -4 -15  -4   -1.89    5.45
  19  -4  -4    4.12    5.15
  -4 -15  -1   -4.01    5.83
  19  -4  -1    4.72    4.84
  -4 -15   2  101.26   11.02
  19  -4   2   92.49   10.12
  -4 -15   5  137.89   13.27
  19  -4   5  137.98   11.20
  -4 -15   8   52.67    9.38
  19  -4   8   26.94    5.45
  -4 -15  11  -15.66    8.64
  -4 -15  14   17.61    8.90
  19  -4  14   23.07    4.98
  -4 -15  17   91.70   12.96
  -4 -15  20  148.49   15.95
  -4 -15  23   36.58   12.00
  -4 -15  26   69.80   13.03
  16 -19  26   17.80   10.72
  16 -19  23   86.33   15.24
  16 -19  20  123.72   17.21
  -3 -16 -17  106.05    9.36
  16 -19  17  113.93   16.47
  16 -19  14    4.39    9.38
  -3 -16 -14   21.02    5.75
  16 -19  11   71.14   14.91
  -3 -16 -11   46.32    7.33
  16 -19   8  340.69   26.14
  -3 -16  -8  333.28   17.19
  -3 -16  -5  421.85   19.88
  -3 -16  -2  470.97   21.60
  19  -3  -2  456.99   21.65
  -3 -16   1   77.99   10.37
  19  -3   1   71.13    8.65
  -3 -16   4   -1.30    6.27
  19  -3   4    3.04    4.33
  -3 -16   7  102.66   12.09
  19  -3   7  113.28    9.26
  -3 -16  10  299.40   19.54
  -3 -16  13  137.57   15.08
  19  -3  13  139.13    8.71
  -3 -16  16   19.27    9.97
  -3 -16  19   35.59    9.80
  -3 -16  22   48.03   11.35
  -3 -16  25  123.37   16.67
  17 -19  24  -11.48   11.21
  17 -19  21   89.22   15.17
  -2 -17 -18  172.90   12.42
  17 -19  18  160.84   19.14
  17 -19  15  283.33   24.41
  -2 -17 -15  284.67   16.01
  17 -19  12   40.38   11.99
  -2 -17 -12   62.84    8.77
  -2 -17  -9    1.41    5.94
  17 -19   9  -15.85   11.83
  -2 -17  -6    8.63    6.34
  -2 -17  -3  282.71   17.54
  19  -2  -3  266.33   16.47
  -2 -17   0  161.79   14.10
  19  -2   0  127.14   11.17
  19  -2   3   56.17    7.42
  -2 -17   3   62.49   10.05
  -2 -17   6    9.41    7.54
  -2 -17   9   30.98    8.63
  -2 -17  12  169.23   16.28
  -2 -17  15  147.38   15.80
  -2 -17  18   78.16   13.74
  -2 -17  21    2.30    8.83
  -2 -17  24   -0.16    9.50
  18 -19  25   50.57   12.80
  18 -19  22   63.47   14.14
  18 -19  19   -1.02    8.53
  -1 -18 -19    6.13    6.04
  18 -19  16   35.35   11.72
  -1 -18 -16   45.09    8.61
  18 -19  13   84.35   15.70
  -1 -18 -13   71.42    9.72
  -1 -18 -10  163.57   13.77
  18 -19  10  121.93   17.38
  -1 -18  -7   66.53   10.11
  -1 -18  -4    5.70    7.00
  -1 -18  -1    0.79    6.83
  19  -1  -1   16.30    5.85
  -1 -18   2  121.54   13.43
  -1 -18   5  332.76   21.13
  -1 -18   8  212.32   17.53
  -1 -18  11   94.16   13.47
  -1 -18  14    3.05    8.05
  -1 -18  17   38.04   11.47
  -1 -18  20   20.98   10.35
  -1 -18  23   62.06   12.92
  19 -19  23   84.67   15.47
  19 -19  20   77.54   15.57
   0 -19 -17   82.10   10.75
  19 -19  17  101.12   16.10
   0 -19 -14   13.21    7.49
  19 -19  14    6.30   10.78
   0 -19 -11   41.88    9.19
  19 -19  11    7.88   10.82
   0 -19  -8  234.28   17.22
   0 -19  -5  281.13   19.01
   0 -19  -2  301.28   20.54
   0 -19   1  142.15   15.13
   0 -19   4   -5.11    7.99
   0 -19   7  110.77   14.07
   0 -19  10  205.63   18.33
   0 -19  13  105.33   14.50
   0 -19  16   26.18   10.51
   0 -19  19    7.27   10.01
   0 -19  22   62.92   13.03
   1 -20  21   79.18   14.54
   1 -20  18  151.11   17.87
   1 -20  15   59.01   12.46
   1 -20  12   48.07   11.45
   1 -20   9   -5.54    8.91
   1 -20   6   37.06   10.13
   1 -20   3  158.71   15.95
   1 -20   0  300.70   20.91
   1 -20  -3  205.46   18.14
   1 -20  -6   55.34   10.61
  20 -19   9  -23.40   13.15
   1 -20  -9    6.33    7.31
   1 -20 -12   55.55   10.24
  20 -19  12   58.55   14.00
  20 -19  15  135.62   18.73
   1 -20 -15  184.35   16.01
  20 -19  18   83.70   15.64
   1 -20 -18  109.44   12.93
  20 -19  21   43.53   12.11
   2 -20  22   32.34   10.68
   2 -20  19    3.94    8.59
   2 -20  16   31.90   10.18
   2 -20  13  168.83   17.79
   2 -20  10  236.19   20.17
   2 -20   7  192.25   17.98
   2 -20   4   46.37   10.73
   2 -20   1  -11.07    8.98
   2 -20  -2   72.19   11.90
   2 -20  -5   93.40   12.84
   2 -20  -8   50.60   10.46
  20 -18  11   -4.96   11.14
   2 -20 -11    6.21    7.46
  20 -18  14   23.80   11.17
   2 -20 -14   27.76    9.08
  20 -18  17   73.21   14.53
   2 -20 -17   55.25   10.60
   2 -20 -20  116.51   14.38
  20 -18  20  119.48   17.17
  20 -18  23  102.36   15.84
   3 -20  23   68.66   14.03
   3 -20  20   59.31   13.64
   3 -20  17   75.15   13.46
   3 -20  14   10.86   10.32
   3 -20  11   37.59   11.16
   3 -20   8  135.39   16.49
   3 -20   5  318.83   22.28
   3 -20   2  258.77   19.94
   3 -20  -1   65.68   12.03
   3 -20  -4    9.10    8.28
   3 -20  -7  215.05   18.39
   3 -20 -10  215.83   18.25
  20 -17  13  122.32   17.28
   3 -20 -13  161.55   16.49
   3 -20 -16    7.07    8.10
  20 -17  16   15.39   10.69
   3 -20 -19    0.35    7.88
  20 -17  19   25.50   10.72
  20 -17  22   98.25   15.71
   4 -20  24    0.06    9.66
   4 -20  21   35.99   11.73
   4 -20  18   84.83   15.07
   4 -20  15  106.18   15.26
   4 -20  12   45.37   11.18
   4 -20   9    3.09    9.24
   4 -20   6   14.64    9.64
   4 -20   3  107.09   14.50
   4 -20   0  259.78   20.22
   4 -20  -3  152.30   16.27
  16   4  -3  155.16   11.91
   4 -20  -6   67.18   12.17
  16   4  -6   52.24    8.52
   4 -20  -9   -0.12    8.30
   4 -20 -12   45.65   10.83
  20 -16  12   51.57   13.06
  20 -16  15  153.00   18.01
   4 -20 -15  158.70   16.67
  20 -16  18   82.39   14.24
  20 -16  21   15.89   10.03
  20 -16  24    4.73    8.75
   5 -20  25   38.51   11.21
   5 -20  22   57.09   12.72
   5 -20  19    3.55    9.50
   5 -20  16   30.09   10.78
   5 -20  13  100.63   15.03
   5 -20  10  227.24   20.15
   5 -20   7  195.54   19.02
   5 -20   4   22.88    9.25
   5 -20   1   52.72   11.96
   5 -20  -2  245.80   20.10
  15   5  -2  249.64   14.47
   5 -20  -5  385.99   24.85
  15   5  -5  365.46   18.60
   5 -20  -8  190.98   18.78
   5 -20 -11   49.82   11.78
  20 -15  14   -5.73   10.14
  20 -15  17   83.37   13.91
 -15  -5  17   92.48   12.86
  20 -15  20  111.50   15.51
 -15  -5  20  107.74   14.51
 -15  -5  23   79.07   14.07
  20 -15  23   73.76   13.04
  20 -15  26   27.49    9.99
 -15  -5  26   38.53   11.98
   6 -20  26   36.24   12.19
   6 -20  23   74.07   14.44
   6 -20  20  130.33   16.72
   6 -20  17   64.87   12.77
   6 -20  14   35.32   12.15
   6 -20  11   30.41   10.79
   6 -20   8  117.31   15.70
   6 -20   5  258.55   20.83
  14   6   2  185.08   10.90
   6 -20   2  210.99   19.16
   6 -20  -1   15.67    9.34
  14   6  -1    4.73    4.38
   6 -20  -4   37.44   10.36
  14   6  -4   27.49    6.29
   6 -20  -7  382.98   25.90
 -14  -6   7  440.03   21.17
  14   6  -7  415.62   20.66
 -14  -6  10  377.20   20.81
   6 -20 -10  342.45   24.75
  20 -14  13  198.71   19.17
 -14  -6  13  225.79   17.46
  20 -14  16   68.07   12.44
 -14  -6  16   66.89   11.81
 -14  -6  19   31.01    9.49
  20 -14  19   24.54    8.81
  20 -14  22   19.35   10.06
 -14  -6  22   19.96    9.62
  20 -14  25   24.40    9.23
 -14  -6  25   39.91   11.77
   7 -20  27   34.98   12.97
   7 -20  24   -0.03    9.19
   7 -20  21   14.50   10.15
   7 -20  18   48.61   11.65
   7 -20  15  279.62   23.21
   7 -20  12  114.55   15.43
   7 -20   9   65.69   12.78
   7 -20   6    1.36    9.31
  13   7   3  129.77    9.15
   7 -20   3  158.31   17.29
   7 -20   0  216.91   19.83
  13   7   0  199.99   12.33
  13   7  -3  148.16   11.70
   7 -20  -3  145.84   16.69
 -13  -7   3  143.20   11.12
  13   7  -6   -0.34    4.83
 -13  -7   6   -1.09    5.86
 -13  -7   9    3.67    6.47
 -13  -7  12  199.56   15.99
 -13  -7  15  375.89   22.24
  20 -13  15  361.10   23.82
  20 -13  18  202.09   18.14
 -13  -7  18  232.99   18.63
  20 -13  21   36.42   10.72
 -13  -7  21    4.51    8.30
 -13  -7  24  -10.09    9.17
  20 -13  24    3.68    7.54
  20 -13  27   51.85   10.84
 -13  -7  27   41.04   12.32
   8 -20  28   52.26   12.87
   8 -20  25   34.65   12.48
   8 -20  22   20.13   10.54
   8 -20  19   -6.40   10.93
   8 -20  16  153.92   17.50
   8 -20  13  328.53   23.89
   8 -20  10  297.08   22.69
   8 -20   7  203.51   19.98
   8 -20   4   20.00   10.48
  12   8   1    3.91    4.50
 -12  -8  -1   -4.73    4.81
   8 -20   1    0.30    9.28
 -12  -8   2  174.72   11.96
  12   8  -2  133.13   11.04
   8 -20  -2  151.51   17.52
  12   8  -5   95.18   10.19
   8 -20  -5   84.14   14.27
 -12  -8   5  104.94   10.71
  12   8  -8   17.98    6.76
 -12  -8   8   15.38    6.59
 -12  -8  11   15.75    7.18
  20 -12  14   45.87   10.34
 -12  -8  14   36.24    9.12
  20 -12  17  179.22   16.43
 -12  -8  17  190.11   16.86
 -12  -8  20  300.28   21.47
  20 -12  20  269.38   19.38
  20 -12  23  254.29   18.47
 -12  -8  23  217.29   19.55
  20 -12  26   52.50   10.42
 -12  -8  26   73.30   13.13
   9 -20  26   50.44   13.06
   9 -20  23   78.94   15.20
   9 -20  20  158.37   18.58
   9 -20  17   54.36   12.20
   9 -20  14   19.93   10.40
   9 -20  11   47.31   12.11
   9 -20   8  308.42   23.70
   9 -20   5  518.57   30.10
 -11  -9  -5  458.59   14.72
  11   9   2  334.49   15.95
   9 -20   2  309.68   23.84
 -11  -9  -2  322.84   14.32
  11   9  -1   39.31    7.15
 -11  -9   1   40.07    6.61
  11   9  -4    1.60    4.78
 -11  -9   4   -0.29    5.45
  11   9  -7  127.70   12.17
 -11  -9   7  127.16   11.72
 -11  -9  10  428.64   21.37
 -11  -9  13   74.44   10.93
  20 -11  16  -15.94    8.48
 -11  -9  16   -3.09    7.49
  20 -11  19   21.67    7.95
 -11  -9  19   17.55    8.51
 -11  -9  22   96.16   14.05
  20 -11  22  114.55   12.80
  20 -11  25  116.62   12.90
 -11  -9  25  121.62   15.45
 -11  -9  28   86.44   14.68
  10 -20  27   37.74   12.39
  10 -20  24   29.96   11.87
  10 -20  21   -9.12   10.92
  10 -20  18   49.48   13.11
  10 -20  15  128.98   17.07
  10 -20  12  214.19   20.81
  10 -20   9   12.06    9.84
  10 -20   6  244.47   21.69
 -10 -10  -6  226.14   10.01
 -10 -10  -3  750.58   21.55
  10 -20   3  717.17   35.98
  10  10   0  731.69   25.80
  10 -20   0  710.41   35.46
 -10 -10   0  748.65   23.36
  10  10  -3  355.32   19.00
 -10 -10   3  368.71   17.66
  10  10  -6   53.69    8.82
 -10 -10   6   62.91    9.57
 -10 -10   9    7.43    6.45
 -10 -10  12  197.73   16.11
 -10 -10  15  262.73   18.57
  20 -10  15  234.33   17.68
  20 -10  18   85.74   11.19
 -10 -10  18   86.28   12.68
  20 -10  21    8.47    6.79
 -10 -10  21   -0.42    8.30
  20 -10  24   27.50    7.41
 -10 -10  24   27.76   10.55
 -10 -10  27   68.97   13.60
  11 -20  28  117.22   17.42
  11 -20  25  165.36   19.48
  11 -20  22  109.54   16.20
  11 -20  19    9.33    9.67
  11 -20  16    7.20    9.08
  11 -20  13  252.63   21.74
  -9 -11 -10  210.67    7.43
  11 -20  10  242.80   21.49
  11 -20   7   29.72   10.35
  -9 -11  -7   18.69    3.98
  -9 -11  -4   -0.58    3.99
  11 -20   4    6.58   10.34
  11 -20   1  106.17   15.82
  -9 -11  -1  105.20    9.18
   9  11  -2  286.61   17.21
  -9 -11   2  277.02   15.32
   9  11  -5  239.49   16.68
  -9 -11   5  266.80   16.05
  -9 -11   8   86.06   10.71
  -9 -11  11   -0.05    6.44
  -9 -11  14   50.49   10.20
  20  -9  14   41.08    9.00
  -9 -11  17   77.14   11.72
  20  -9  17   77.78   10.70
  20  -9  20   60.24    8.91
  -9 -11  20   61.12   11.66
  -9 -11  23   45.91   11.28
  -9 -11  26  -12.31   10.24
  12 -20  26    8.69    9.50
  12 -20  23  105.01   16.23
  12 -20  20  228.34   21.68
  12 -20  17  276.43   23.14
  12 -20  14   29.29   12.13
  12 -20  11   17.07   11.23
  -8 -12 -11   36.05    3.82
  12 -20   8   73.96   14.66
  -8 -12  -8   75.98    6.52
  12 -20   5  122.70   16.80
  -8 -12  -5  127.97    9.27
  12 -20   2   65.11   13.84
  -8 -12  -2   70.99    7.91
  -8 -12   1   67.84    8.40
   8  12  -4    1.74    6.09
  -8 -12   4    4.63    5.75
  -8 -12   7   49.48    8.83
  -8 -12  10  137.24   13.27
  -8 -12  13   46.86    9.90
  -8 -12  16  111.17   13.69
  20  -8  16   62.15    9.24
  -8 -12  19   47.36   11.20
  20  -8  19   39.03    7.65
  -8 -12  22   -4.64    9.30
  -8 -12  25   -0.05    8.60
  -8 -12  28   36.37   11.99
  13 -20  27   14.92   10.15
  13 -20  24  -15.79   11.26
  13 -20  21   60.99   13.85
  13 -20  18  252.72   22.78
  13 -20  15  128.14   17.44
  -7 -13 -12   65.99    5.38
  13 -20  12   47.28   12.77
  -7 -13  -9   27.28    4.87
  13 -20   9    5.43    9.77
  -7 -13  -6   26.18    5.51
  13 -20   6   22.82   10.37
  -7 -13  -3  173.84   11.65
  13 -20   3  144.79   17.94
  -7 -13   0  414.39   18.68
  -7 -13   3  276.18   16.29
  20  -7   3  258.89   17.33
  -7 -13   6   86.20   10.33
  -7 -13   9   -5.26    7.24
  -7 -13  12  120.69   13.25
  -7 -13  15  141.00   15.18
  20  -7  15  127.63   11.62
  20  -7  18  246.75   14.52
  -7 -13  18  247.80   19.65
  -7 -13  21   47.46   10.15
  -7 -13  24   -6.92    8.89
  -7 -13  27   28.13   11.16
  14 -20  25   45.91   13.50
  14 -20  22   23.39   10.59
  14 -20  19   -0.62    9.20
  14 -20  16  110.44   16.79
  -6 -14 -13  202.86    9.76
  14 -20  13  190.66   20.23
  -6 -14 -10  269.49   12.48
  14 -20  10  233.53   21.88
  -6 -14  -7  225.85   12.59
  14 -20   7  199.90   20.81
  14 -20   4  119.08   16.98
  -6 -14  -4  133.86   10.56
  -6 -14  -1    6.92    5.45
  -6 -14   2  114.84   11.20
  20  -6   2  124.81   11.98
  -6 -14   5  189.13   14.79
  20  -6   5  172.23   13.77
  -6 -14   8  120.19   12.47
  20  -6   8  103.56   10.62
  -6 -14  11    9.33    6.92
  -6 -14  14   35.71    9.44
  20  -6  14   17.10    5.67
  -6 -14  17  263.75   19.88
  -6 -14  20  245.44   19.91
  -6 -14  23  151.62   17.43
  -6 -14  26   46.15   12.52
  15 -20  26    7.83   10.45
  15 -20  23  124.05   17.85
  15 -20  20  133.62   17.63
  15 -20  17   38.46   12.81
  -5 -15 -14    3.71    4.10
  15 -20  14   -6.08   11.00
  -5 -15 -11   40.31    6.23
  15 -20  11   24.40   11.19
  -5 -15  -8  113.86    9.67
  15 -20   8  101.31   15.37
  -5 -15  -5  253.03   14.65
  15 -20   5  232.35   22.57
  -5 -15  -2  288.14   16.37
  -5 -15   1   59.95    9.17
  20  -5   1   64.54    9.35
  -5 -15   4   -5.98    6.61
  20  -5   4    2.04    4.65
  -5 -15   7   11.51    6.86
  -5 -15  10   53.97    9.90
  20  -5  13   37.25    6.46
  -5 -15  13   36.53    9.19
  -5 -15  16   29.18    9.54
  -5 -15  19    6.24    8.27
  -5 -15  22   43.83   11.48
  -5 -15  25  126.28   16.49
  16 -20  24   -4.78   10.14
  16 -20  21   26.05   12.16
  16 -20  18  161.88   19.36
  -4 -16 -15  146.27    9.92
  16 -20  15  146.66   18.78
  -4 -16 -12  119.27   10.18
  16 -20  12  111.40   17.20
  16 -20   9   -5.37   10.12
  -4 -16  -9    9.87    5.68
  -4 -16  -6  119.97   10.87
  16 -20   6  108.05   16.74
  -4 -16  -3  472.24   21.48
  -4 -16   0  386.96   20.03
  20  -4   0  375.96   20.12
  -4 -16   3  298.61   18.44
  20  -4   3  300.84   17.02
  -4 -16   6   46.92    9.39
  -4 -16   9   15.15    7.91
  -4 -16  12   32.08    9.31
  -4 -16  15  118.22   13.96
  -4 -16  18   58.40   11.31
  -4 -16  21   40.30   10.94
  -4 -16  24    0.03    9.53
  17 -20  22   49.65   12.79
  17 -20  19   22.45   12.07
  17 -20  16   10.23    9.49
  -3 -17 -13  109.75   10.00
  17 -20  13  105.80   16.48
  -3 -17 -10  293.05   16.29
  17 -20  10  275.09   24.34
  17 -20   7  166.21   19.46
  -3 -17  -7  170.87   13.40
  -3 -17  -4   -0.42    5.55
  -3 -17  -1   15.51    7.01
  -3 -17   2  148.74   14.41
  -3 -17   5  300.90   19.64
  -3 -17   8  160.71   15.50
  -3 -17  11   88.75   12.53
  -3 -17  14  -18.27    9.83
  -3 -17  17   41.11   11.00
  -3 -17  20   93.35   14.34
  -3 -17  23   98.69   15.00
  18 -20  23  123.54   18.11
  18 -20  20  130.34   18.14
  18 -20  17   39.38   12.35
  18 -20  14   20.96   11.00
  -2 -18 -14   38.02    7.77
  -2 -18 -11   70.63    9.56
  18 -20  11   79.32   14.47
  18 -20   8  115.26   17.86
  -2 -18  -8  160.73   13.56
  -2 -18  -5  105.95   11.67
  -2 -18  -2   80.53   11.16
  -2 -18   1    7.94    7.13
  -2 -18   4  157.77   15.11
  -2 -18   7  173.02   16.51
  -2 -18  10  302.94   20.83
  -2 -18  13  186.74   18.15
  -2 -18  16   24.79    9.86
  -2 -18  19    4.68    8.82
  -2 -18  22   29.80   11.61
  19 -20  21   15.67   10.90
  19 -20  18   80.42   16.00
  19 -20  15  112.47   17.19
  -1 -19 -15  131.71   12.63
  19 -20  12   27.96   13.17
  -1 -19 -12   36.74    8.11
  19 -20   9   -7.75   12.36
  -1 -19  -9    9.03    6.70
  -1 -19  -6   12.51    7.53
  -1 -19  -3  171.15   15.15
  -1 -19   0  194.36   16.38
  -1 -19   3   81.02   12.00
  -1 -19   6   40.70    9.98
  -1 -19   9   -2.72    8.02
  -1 -19  12   49.72   11.01
  -1 -19  15  103.19   15.22
  -1 -19  18  100.92   15.26
  -1 -19  21  -17.09   10.97
  20 -20  19   -4.98    9.78
   0 -20 -16   40.92    8.95
  20 -20  16   44.86   12.53
  20 -20  13  114.17   17.61
   0 -20 -13  139.40   13.83
   0 -20 -10  230.85   17.58
  20 -20  10  160.39   20.54
   0 -20  -7  141.07   14.39
   0 -20  -4   22.81    8.66
   0 -20  -1   -3.36    7.64
   0 -20   2   43.06   10.21
   0 -20   5  158.65   16.30
   0 -20   8   77.03   12.99
   0 -20  11   17.61    9.85
   0 -20  14    1.89    8.75
   0 -20  17   85.31   14.16
   1 -21  16    0.27    9.06
   1 -21  13  113.97   16.16
   1 -21  10  118.21   15.74
   1 -21   7   34.27    9.91
   1 -21   4   -5.71    7.92
   1 -21   1    6.60    7.70
   1 -21  -2  119.49   14.67
   1 -21  -5  170.80   16.48
   1 -21  -8  141.17   15.02
   1 -21 -11   57.56   10.71
  21 -20  11   45.76   13.70
  21 -20  14   -6.88   10.70
   1 -21 -14    9.27    7.73
  21 -20  17    3.47   10.41
   2 -21  17   51.83   12.35
   2 -21  14  -10.42    9.76
   2 -21  11   47.26   11.64
   2 -21   8  193.45   18.69
   2 -21   5  235.89   20.09
   2 -21   2  201.50   18.70
   2 -21  -1   80.10   12.70
   2 -21  -4    5.63    7.93
   2 -21  -7   48.12   10.67
   2 -21 -10  102.51   13.45
  21 -19  10   75.74   15.48
  21 -19  13   81.72   15.67
   2 -21 -13   81.27   12.62
  21 -19  16   39.55   13.09
   2 -21 -16   42.62   10.47
   2 -21 -19   -4.35    7.40
  21 -19  19   -4.55   10.36
   3 -21  21   22.40   11.56
   3 -21  18   58.02   13.70
   3 -21  15  149.87   17.12
   3 -21  12  163.84   17.96
   3 -21   9   19.50    8.63
   3 -21   6   -6.92    9.70
   3 -21   3  132.72   15.28
   3 -21   0  232.53   19.69
   3 -21  -3   76.76   13.40
   3 -21  -6   -4.64    8.41
   3 -21  -9   69.30   12.18
   3 -21 -12  172.59   17.10
  21 -18  12  122.57   18.32
  21 -18  15  168.91   20.05
   3 -21 -15  161.27   16.39
   3 -21 -18  141.82   16.21
  21 -18  18  128.74   17.18
  21 -18  21   11.38   10.32
   3 -21 -21   29.44    9.95
   4 -21  22   44.71   12.69
   4 -21  19   10.69   10.73
   4 -21  16   34.72   11.97
   4 -21  13  140.27   17.32
   4 -21  10  164.37   18.22
   4 -21   7  156.52   17.39
   4 -21   4   15.22    8.80
   4 -21   1   33.56   10.55
   4 -21  -2   83.81   13.70
   4 -21  -5  177.52   17.97
   4 -21  -8  169.77   17.68
  21 -17  11   11.96   10.21
   4 -21 -11   17.05    9.13
   4 -21 -14    8.37    9.16
  21 -17  14    9.63   10.73
   4 -21 -17   69.92   12.51
  21 -17  17   55.90   12.97
  21 -17  20   79.75   14.25
   4 -21 -20  104.87   14.77
   5 -21  23   59.99   13.88
   5 -21  20   72.36   14.07
   5 -21  17   48.24   11.91
   5 -21  14    4.64    9.31
   5 -21  11   14.30   10.40
   5 -21   8  139.88   16.91
   5 -21   5  136.05   16.17
   5 -21   2   34.45   11.04
   5 -21  -1   25.02   10.57
   5 -21  -4   42.32   10.56
   5 -21  -7   88.55   14.33
   5 -21 -10   93.09   14.33
   5 -21 -13   91.54   14.39
  21 -16  13   76.21   14.14
   5 -21 -16   39.19   11.48
  21 -16  16   43.06   12.22
  21 -16  19    7.24    8.96
  21 -16  22   74.14   13.75
   6 -21  24    3.79   10.41
   6 -21  21   31.30   12.11
   6 -21  18  119.37   16.54
   6 -21  15  210.06   20.29
   6 -21  12   98.90   15.08
   6 -21   9    4.78    9.06
   6 -21   6   33.25   11.58
   6 -21   3  105.34   14.70
   6 -21   0  226.42   19.98
   6 -21  -3  152.82   17.72
   6 -21  -6   -8.56   10.67
   6 -21  -9   23.53   10.71
 -15  -6  12  129.40   13.40
   6 -21 -12  113.30   15.89
  21 -15  12  104.45   15.37
 -15  -6  15  257.24   19.12
  21 -15  15  195.51   19.67
  21 -15  18  167.92   17.76
 -15  -6  18  182.46   17.64
  21 -15  21   89.50   13.66
 -15  -6  21   75.07   13.66
 -15  -6  24    8.90    9.63
  21 -15  24   34.52   10.35
   7 -21  25  129.84   18.34
   7 -21  22   37.62   13.01
   7 -21  19   -0.39    8.70
   7 -21  16  105.46   16.14
   7 -21  13  191.15   19.76
   7 -21  10  288.84   23.56
   7 -21   7  161.36   17.95
   7 -21   4   31.00   11.38
   7 -21   1    8.03    8.40
   7 -21  -2  140.46   17.06
  14   7  -5  115.37   11.39
   7 -21  -5  111.61   15.58
 -14  -7   5  127.76   11.62
   7 -21  -8  225.42   21.20
 -14  -7   8  209.88   15.39
 -14  -7  11    4.63    6.51
  21 -14  14   21.26    9.70
 -14  -7  14   34.63    9.60
 -14  -7  17  101.61   14.06
  21 -14  17  101.60   14.61
  21 -14  20   73.71   12.22
 -14  -7  20  100.14   14.38
 -14  -7  23   63.45   12.47
  21 -14  23   61.00   11.77
   8 -21  23   62.22   13.99
   8 -21  20   41.65   12.68
   8 -21  17   16.65    9.85
   8 -21  14    0.86   10.21
   8 -21  11   41.36   12.78
   8 -21   8  136.46   16.79
   8 -21   5  212.35   20.82
   8 -21   2  191.15   19.52
   8 -21  -1    8.12    8.98
 -13  -8   1   19.63    5.66
  13   8  -4    1.10    4.46
 -13  -8   4   -2.69    5.87
   8 -21  -4  -11.42   10.69
   8 -21  -7   43.73   12.60
 -13  -8   7   57.51    9.11
 -13  -8  10  111.90   12.39
  21 -13  13   87.02   13.08
 -13  -8  13   80.03   11.30
  21 -13  16   22.18    9.36
 -13  -8  16   31.47    9.56
 -13  -8  19   23.08    9.94
  21 -13  19   15.23    8.16
  21 -13  22  105.70   13.21
 -13  -8  22  126.91   15.51
  21 -13  25  165.68   15.51
 -13  -8  25  151.89   17.49
   9 -21  24   -4.87   10.75
   9 -21  21   -4.00   11.00
   9 -21  18  100.97   16.31
   9 -21  15  146.02   18.26
   9 -21  12  161.71   18.70
   9 -21   9   17.98   10.24
   9 -21   6   -5.55   10.29
   9 -21   3   42.23   11.82
 -12  -9  -3   31.25    5.33
   9 -21   0  101.81   14.92
 -12  -9   0  105.50    9.33
   9 -21  -3  318.66   24.91
 -12  -9   3  331.22   16.97
  12   9  -3  313.10   17.43
  12   9  -6   86.66   10.57
 -12  -9   6   96.44   10.70
 -12  -9   9    3.36    6.39
 -12  -9  12   32.46    8.58
  21 -12  15   70.71   11.74
 -12  -9  15   89.33   12.53
  21 -12  18   57.47   10.99
 -12  -9  18   53.11   11.37
  21 -12  21   35.80   10.09
 -12  -9  21   30.35    9.94
  21 -12  24  -10.63    7.72
 -12  -9  24    0.35    8.27
  10 -21  25  125.86   17.81
  10 -21  22   81.69   15.23
  10 -21  19   27.28   12.40
  10 -21  16   -5.74    9.74
  10 -21  13   82.23   14.30
  10 -21  10  240.37   22.11
  10 -21   7  108.88   16.32
 -11 -10  -4   70.65    6.64
  10 -21   4   75.12   14.80
  10 -21   1   -9.26    9.53
 -11 -10  -1    4.01    4.54
  10 -21  -2  189.41   20.17
  11  10  -2  176.62   13.40
 -11 -10   2  195.51   13.14
  11  10  -5  234.85   15.94
 -11 -10   5  259.26   15.97
 -11 -10   8  288.56   17.61
 -11 -10  11   29.41    8.51
  21 -11  14   -4.35    8.34
 -11 -10  14   16.06    8.16
  21 -11  17   56.87   10.54
 -11 -10  17   58.62   11.33
  21 -11  20  119.86   13.17
 -11 -10  20  140.17   15.67
  21 -11  23   81.53   11.25
 -11 -10  23   95.75   14.85
 -11 -10  26   39.15   10.95
  11 -21  26   15.50   11.52
  11 -21  23   74.97   14.89
  11 -21  20  122.16   16.99
  11 -21  17   70.08   14.42
  11 -21  14    0.66    9.62
  11 -21  11   69.24   14.09
  11 -21   8   85.60   15.19
 -10 -11  -8   80.71    5.63
  11 -21   5  459.04   29.20
 -10 -11  -5  475.46   15.99
 -10 -11  -2  555.52   19.63
  11 -21   2  536.77   31.59
  10  11  -1   37.22    7.68
 -10 -11   1   62.69    8.27
  11 -21  -1   50.54   13.37
  10  11  -4    5.64    5.71
 -10 -11   4   -1.76    5.71
 -10 -11   7  142.50   12.91
 -10 -11  10   93.19   11.34
 -10 -11  13   39.37    9.09
  21 -10  16   10.77    7.21
 -10 -11  16   10.28    8.01
  21 -10  19    9.96    5.97
 -10 -11  19    9.29    8.25
 -10 -11  22  121.51   15.24
 -10 -11  25  100.14   15.10
  12 -21  24  -11.59   11.02
  12 -21  21   18.10    9.81
  12 -21  18  136.23   17.20
  12 -21  15  155.45   18.02
  12 -21  12   89.69   16.16
  12 -21   9   20.20   10.87
  -9 -12  -9    9.11    2.93
  12 -21   6   -0.87   10.74
  -9 -12  -6    7.96    3.87
  -9 -12  -3  199.74   11.76
  12 -21   3  198.81   20.98
  12 -21   0  285.00   24.39
  -9 -12   0  324.23   16.26
   9  12  -3  216.79   15.96
  -9 -12   3  238.78   15.05
  -9 -12   6   63.05    9.48
  -9 -12   9    2.50    6.68
  -9 -12  12    3.57    7.02
  21  -9  15  179.07   15.01
  -9 -12  15  211.90   17.51
  -9 -12  18  173.71   17.01
  21  -9  18  178.03   14.18
  -9 -12  21    2.12    8.59
  -9 -12  24  -10.78    9.78
  13 -21  25   69.22   14.63
  13 -21  22   24.04   10.65
  13 -21  19    9.97   10.25
  13 -21  16   45.39   12.12
  13 -21  13   83.32   14.36
  13 -21  10  171.69   19.32
  -8 -13 -10  164.82    8.51
  13 -21   7  139.24   18.07
  -8 -13  -7  131.45    8.92
  13 -21   4    9.54    9.87
  -8 -13  -4   14.18    5.06
  -8 -13  -1   46.26    7.26
  13 -21   1   14.43   11.38
  -8 -13   2  214.20   14.32
  -8 -13   5  299.76   17.68
  -8 -13   8  255.11   17.30
  -8 -13  11  104.29   12.23
  -8 -13  14  -15.95    9.10
  21  -8  14   -7.21    6.65
  -8 -13  17   49.70   10.51
  21  -8  17   56.43    8.67
  -8 -13  20   47.14   11.40
  -8 -13  23   63.76   12.43
  14 -21  23   33.09   12.83
  14 -21  20   34.76   11.20
  14 -21  17   41.59   11.93
  14 -21  14    4.88    9.82
  -7 -14 -11   28.55    4.64
  14 -21  11   13.93   10.93
  -7 -14  -8  230.06   11.90
  14 -21   8  228.70   22.19
  14 -21   5  542.01   33.28
  -7 -14  -5  582.78   20.73
  -7 -14  -2  266.18   15.04
  -7 -14   1   20.47    6.80
  -7 -14   4   13.02    6.98
  -7 -14   7  169.95   14.76
  -7 -14  10  245.07   17.88
  -7 -14  13  130.15   14.22
  -7 -14  16   -2.09    8.34
  -7 -14  19    4.17    8.26
  -7 -14  22   46.77   11.81
  -7 -14  25   66.69   13.53
  15 -21  24  -16.68   11.20
  15 -21  21   -7.18   11.09
  15 -21  18   58.67   13.47
  15 -21  15  143.50   18.15
  15 -21  12  113.46   16.97
  15 -21   9   16.75   10.62
  -6 -15  -9   25.30    5.19
  15 -21   6   42.85   13.54
  -6 -15  -6   38.40    6.82
  -6 -15  -3  202.06   13.40
  -6 -15   0  198.23   14.24
  -6 -15   3  132.43   12.43
  -6 -15   6    5.70    6.55
  -6 -15   9   30.65    8.48
  -6 -15  12   97.14   13.15
  -6 -15  15  208.12   17.69
  -6 -15  18  100.11   14.08
  -6 -15  21   15.58    9.11
  -6 -15  24   -9.93    9.71
  16 -21  22  120.22   17.77
  16 -21  19   33.95   12.75
  16 -21  16   19.90   10.29
  16 -21  13  166.74   19.78
  -5 -16 -10  214.09   12.79
  16 -21  10  212.41   21.77
  16 -21   7   30.83   11.61
  -5 -16  -7   52.25    7.91
  -5 -16  -4    6.67    5.32
  -5 -16  -1   44.00    7.94
  -5 -16   2  144.80   13.32
  -5 -16   5  160.65   14.10
  -5 -16   8   36.71    9.22
  -5 -16  11    8.62    7.99
  -5 -16  14    2.83    7.75
  -5 -16  17   58.27   11.50
  -5 -16  20   61.61   12.09
  -5 -16  23   59.17   12.53
  17 -21  20   99.64   16.81
  17 -21  17   73.53   15.58
  17 -21  14    3.01   10.51
  17 -21  11   11.07   10.42
  -4 -17 -11   43.30    7.59
  17 -21   8   92.10   15.73
  -4 -17  -8  105.84   10.70
  -4 -17  -5  134.35   12.12
  -4 -17  -2  117.13   12.14
  -4 -17   1   63.15   10.05
  -4 -17   4    9.19    6.75
  -4 -17   7  100.83   12.52
  -4 -17  10  255.27   19.42
  -4 -17  13  216.43   18.78
  -4 -17  16   57.11   11.52
  -4 -17  19    6.83    8.92
  -4 -17  22   58.69   12.84
  18 -21  21   18.50   11.97
  18 -21  18   57.57   13.85
  18 -21  15  105.48   17.35
  -3 -18 -12   60.90    8.22
  18 -21  12   59.83   14.71
  -3 -18  -9   45.01    8.37
  18 -21   9   16.97   11.99
  -3 -18  -6    0.25    5.77
  18 -21   6  -28.03   14.56
  -3 -18  -3   70.77   10.09
  -3 -18   0  114.61   12.70
  -3 -18   3   74.81   12.22
  -3 -18   6   28.41    8.64
  -3 -18   9   40.65   10.40
  -3 -18  12  184.47   17.37
  -3 -18  15  135.06   16.11
  -3 -18  18  145.42   16.53
  -3 -18  21   20.81    9.81
  19 -21  19   20.06   12.23
  19 -21  16   17.66   11.20
  -2 -19 -13   35.26    7.09
  19 -21  13   49.85   13.10
  19 -21  10  172.41   20.45
  -2 -19 -10  157.84   13.68
  -2 -19  -7  143.07   13.60
  19 -21   7  117.67   17.78
  -2 -19  -4   25.94    8.46
  -2 -19  -1   11.06    7.90
  -2 -19   2  169.89   15.61
  -2 -19   5  239.79   18.58
  -2 -19   8  107.15   13.81
  -2 -19  11   22.92    9.53
  -2 -19  14   -6.68    9.18
  -2 -19  17   50.78   11.71
  20 -21  17   61.10   13.84
  20 -21  14   -8.59   10.33
  -1 -20 -11   36.58    8.43
  20 -21  11   21.41   12.54
  20 -21   8  142.67   20.50
  -1 -20  -8  133.37   13.73
  -1 -20  -5  211.99   16.95
  -1 -20  -2  161.33   15.59
  -1 -20   1   31.36    9.43
  -1 -20   4   15.69    8.71
  -1 -20   7   59.77   11.98
  -1 -20  10   67.14   12.25
  -1 -20  13   73.71   13.43
  -1 -20  16   10.87    8.76
  21 -21  12   80.15   16.29
   0 -21 -12   94.91   12.59
  21 -21   9  -13.32   11.26
   0 -21  -9   -5.98    7.92
   0 -21  -6   16.02    7.75
   0 -21  -3  128.64   14.67
   0 -21   0  172.74   16.70
   0 -21   3   75.48   12.75
   0 -21   6    4.96    8.18
   0 -21   9   16.74    9.36
   0 -21  12   75.17   13.41
   1 -22   8   48.88   12.04
   1 -22   5  127.34   16.09
   1 -22   2   83.37   13.23
   1 -22  -1   35.50   10.71
   1 -22  -4   -6.10    8.53
   1 -22  -7   62.45   11.29
   1 -22 -10  143.30   15.52
  22 -21  10  117.65   18.55
   2 -22  12   31.60   11.65
   2 -22   9   -5.88    9.17
   2 -22   6   37.58   10.99
   2 -22   3   88.83   14.47
   2 -22   0  144.33   16.47
   2 -22  -3   83.72   13.16
   2 -22  -6    8.96    8.03
   2 -22  -9    9.47    7.77
  22 -20   9  -26.20   14.17
   2 -22 -12   37.79   10.01
  22 -20  12   13.44    9.87
   3 -22  16   26.25   11.25
   3 -22  13   92.08   15.06
   3 -22  10   76.31   14.10
   3 -22   7  100.89   15.48
   3 -22   4   26.83   10.05
   3 -22   1  -12.54    9.65
   3 -22  -2   38.08   10.34
   3 -22  -5   61.31   12.77
   3 -22  -8   48.59   10.98
  22 -19  11    8.60   10.75
   3 -22 -11    9.85    8.26
  22 -19  14    8.48    9.99
   3 -22 -14    8.74    8.55
   4 -22  17   84.98   14.84
   4 -22  14   13.45   10.26
   4 -22  11   -4.89   10.46
   4 -22   8  107.15   15.83
   4 -22   5  201.53   19.73
   4 -22   2  123.46   16.05
   4 -22  -1   31.22   10.46
   4 -22  -4   18.80    9.34
   4 -22  -7  200.40   18.89
   4 -22 -10  225.42   20.64
   4 -22 -13  115.65   15.27
  22 -18  13   90.21   15.73
   4 -22 -16   15.95    8.77
  22 -18  16   -6.51   10.29
   5 -22  18   84.07   15.15
   5 -22  15  164.62   18.70
   5 -22  12  109.55   16.40
   5 -22   9    7.70    9.37
   5 -22   6  -17.25   10.71
   5 -22   3   63.62   13.11
   5 -22   0  136.57   16.94
   5 -22  -3   58.79   12.71
   5 -22  -6   10.06    9.27
   5 -22  -9   -8.06    9.21
   5 -22 -12   74.21   14.02
  22 -17  12   66.52   14.30
  22 -17  15  112.26   17.10
   5 -22 -15  114.81   16.00
  22 -17  18   39.65   11.60
   5 -22 -18   45.27   11.85
   6 -22  19    1.91    9.14
   6 -22  16   43.07   12.19
   6 -22  13  121.22   17.07
   6 -22  10  130.52   17.21
   6 -22   7  113.86   15.72
   6 -22   4    5.84    8.34
   6 -22   1    5.02    8.85
   6 -22  -2   85.64   14.64
   6 -22  -5  159.72   18.10
   6 -22  -8   25.24   10.67
   6 -22 -11   -8.63   10.15
   6 -22 -14  -17.82   10.47
  22 -16  14    7.90    9.40
  22 -16  17   24.98   11.05
  22 -16  20  141.84   17.33
   7 -22  20   80.59   15.54
   7 -22  17   65.83   13.95
   7 -22  14   19.60   11.54
   7 -22  11   33.51   11.08
   7 -22   8  189.63   19.37
   7 -22   5  232.10   21.23
   7 -22   2  125.35   16.30
   7 -22  -1   61.63   12.84
   7 -22  -4    1.10    9.40
   7 -22  -7   61.20   13.97
   7 -22 -10  121.06   16.86
 -15  -7  10  164.16   14.58
  22 -15  13   56.73   12.25
 -15  -7  13   79.39   12.00
   7 -22 -13   55.10   12.77
  22 -15  16   -3.30    9.27
 -15  -7  16   14.66    8.48
 -15  -7  19   15.47    9.24
  22 -15  19   17.66    9.46
   8 -22  21   21.49   12.18
   8 -22  18   69.49   14.77
   8 -22  15   27.09   12.22
   8 -22  12   79.33   14.32
   8 -22   9   38.22   12.51
   8 -22   6   19.41   10.77
   8 -22   3  135.37   17.41
   8 -22   0  294.13   23.77
   8 -22  -3  135.74   17.37
 -14  -8   6   84.18   10.47
   8 -22  -6   56.43   13.50
   8 -22  -9   20.14    9.71
 -14  -8   9   21.65    7.82
 -14  -8  12   29.31    9.26
  22 -14  15   81.97   13.41
 -14  -8  15  102.45   13.36
  22 -14  18   24.55    9.85
 -14  -8  18   36.72   10.26
  22 -14  21    5.76    8.25
 -14  -8  21    1.42    8.26
   9 -22  22   31.68   13.72
   9 -22  19   -3.16    9.50
   9 -22  16   -1.99   10.81
   9 -22  13  168.37   19.53
   9 -22  10  193.27   20.11
   9 -22   7  136.21   17.82
   9 -22   4   24.71   11.64
   9 -22   1   26.86   10.23
   9 -22  -2  184.49   20.10
 -13  -9   2  173.44   12.50
   9 -22  -5  391.91   28.26
 -13  -9   5  387.23   19.56
 -13  -9   8  280.79   18.16
   9 -22  -8  264.58   23.45
 -13  -9  11   85.63   11.53
  22 -13  14   -5.98   10.08
 -13  -9  14    2.37    7.23
  22 -13  17   41.29   10.68
 -13  -9  17   44.41   10.75
  22 -13  20   93.72   13.62
 -13  -9  20   82.72   14.12
 -13  -9  23  112.21   15.67
  22 -13  23  100.53   13.28
  10 -22  23   54.30   13.06
  10 -22  20  100.97   16.65
  10 -22  17  135.88   18.17
  10 -22  14   41.70   12.63
  10 -22  11   28.87   11.92
  10 -22   8  137.44   17.92
  10 -22   5  118.33   17.04
 -12 -10  -2   22.65    5.11
  10 -22   2    5.86   10.00
  10 -22  -1  -14.87   11.40
 -12 -10   1   -5.01    5.63
  10 -22  -4  -10.49   12.33
 -12 -10   4   -7.03    6.42
 -12 -10   7  202.59   15.27
 -12 -10  10  199.37   16.16
  22 -12  13   22.89    8.77
 -12 -10  13   59.93   10.79
  22 -12  16   36.12    9.76
 -12 -10  16   36.29   10.24
  22 -12  19    9.17    7.47
 -12 -10  19    3.34    7.83
 -12 -10  22   55.43   12.40
  11 -22  21    3.26   11.20
  11 -22  18   51.17   13.36
  11 -22  15  137.02   17.76
  11 -22  12   20.06   11.46
  11 -22   9    5.06   10.19
  11 -22   6   69.50   14.11
  11 -22   3  110.75   16.85
 -11 -11  -3  105.94    8.70
 -11 -11   0  235.08   13.72
  11 -22   0  231.48   22.61
  11 -22  -3  277.61   24.42
 -11 -11   3  277.44   16.09
 -11 -11   6   -3.76    5.92
 -11 -11   9   -0.70    7.23
 -11 -11  12   59.93   10.62
  22 -11  15  106.38   13.45
 -11 -11  15  125.54   14.32
 -11 -11  18   81.90   12.78
  22 -11  18   53.23   10.16
 -11 -11  21    3.53    8.42
  12 -22  22   17.29   10.23
  12 -22  19   -4.33   10.64
  12 -22  16   54.50   13.89
  12 -22  13  137.15   18.79
  12 -22  10  128.67   17.66
  12 -22   7  135.35   18.63
  12 -22   4   92.89   16.20
 -10 -12  -4  115.48    9.01
  12 -22   1   14.03   10.17
 -10 -12  -1    4.25    4.70
  12 -22  -2  169.24   20.26
 -10 -12   2  225.27   14.58
 -10 -12   5  136.69   12.62
 -10 -12   8  117.89   12.55
 -10 -12  11   32.99    9.16
  22 -10  14    5.61    6.97
 -10 -12  14   -1.89    7.54
  22 -10  17   92.23   12.22
 -10 -12  17  122.27   14.55
 -10 -12  20  118.06   15.00
 -10 -12  23   89.92   14.68
  13 -22  23   43.27   12.41
  13 -22  20   62.74   14.10
  13 -22  17   41.60   12.96
  13 -22  14   -3.72   10.26
  13 -22  11   40.81   12.82
  13 -22   8  125.51   17.68
  13 -22   5  166.92   20.35
  -9 -13  -5  184.89   11.15
  -9 -13  -2   60.01    8.09
  13 -22   2   46.77   13.44
  -9 -13   1    1.94    5.18
  -9 -13   4   -5.76    6.81
  -9 -13   7   52.49    9.13
  -9 -13  10  166.57   15.17
  -9 -13  13   73.48   11.80
  -9 -13  16   40.85   10.31
  22  -9  16   24.76    7.08
  -9 -13  19   -9.00    9.13
  -9 -13  22   71.13   12.68
  14 -22  21    7.86   10.08
  14 -22  18   49.80   14.07
  14 -22  15   72.85   14.96
  14 -22  12   65.13   14.64
  14 -22   9   11.50   10.77
  14 -22   6  101.63   17.02
  -8 -14  -6   97.11    8.61
  -8 -14  -3  211.49   13.06
  14 -22   3  225.20   22.76
  -8 -14   0  233.47   14.89
  -8 -14   3  348.76   18.95
  -8 -14   6   84.01   11.08
  -8 -14   9   -8.31    7.46
  -8 -14  12   52.65   10.23
  -8 -14  15  111.53   14.16
  -8 -14  18   18.17    9.14
  -8 -14  21   -2.37    8.94
  15 -22  19   25.32   12.78
  15 -22  16    6.99    9.92
  15 -22  13   97.49   16.95
  15 -22  10  180.46   20.92
  -7 -15  -7   91.22    8.51
  15 -22   7   47.03   13.79
  -7 -15  -4    3.17    5.13
  15 -22   4   -4.82   10.55
  -7 -15  -1   10.24    6.25
  -7 -15   2  176.41   14.19
  -7 -15   5  254.18   17.41
  -7 -15   8  144.67   14.13
  -7 -15  11   12.53    7.91
  -7 -15  14   27.94    9.68
  -7 -15  17   33.32   10.29
  -7 -15  20   59.84   12.51
  16 -22  20  163.34   20.77
  16 -22  17  141.09   19.77
  16 -22  14   18.93   12.27
  16 -22  11   41.50   13.56
  16 -22   8   89.90   17.20
  -6 -16  -8   93.85    8.69
  -6 -16  -5   51.67    7.90
  16 -22   5   56.63   14.02
  -6 -16  -2   89.11   10.40
  -6 -16   1   -2.18    5.81
  -6 -16   4   84.42   11.00
  -6 -16   7  113.78   12.98
  -6 -16  10  182.06   16.40
  -6 -16  13   81.15   12.61
  -6 -16  16   19.06    9.44
  -6 -16  19    9.92    9.12
  17 -22  18  112.86   17.96
  17 -22  15  171.81   20.43
  17 -22  12   21.47   11.76
  17 -22   9   -2.75   11.18
  -5 -17  -9    2.21    5.12
  -5 -17  -6    1.41    4.74
  17 -22   6  -20.43   12.80
  -5 -17  -3   35.49    7.59
  -5 -17   0  102.39   11.44
  -5 -17   3   40.06    8.05
  -5 -17   6   -6.24    7.01
  -5 -17   9   52.68   10.55
  -5 -17  12  108.96   14.12
  -5 -17  15  142.72   16.13
  -5 -17  18  124.32   15.73
  18 -22  16   15.08   11.26
  18 -22  13   52.50   14.18
  18 -22  10  117.89   18.65
  18 -22   7  135.35   19.61
  -4 -18  -7  119.45   11.54
  -4 -18  -4   45.77    8.66
  -4 -18  -1    5.46    6.73
  -4 -18   2   57.71    9.98
  -4 -18   5  135.13   14.13
  -4 -18   8  109.65   13.67
  -4 -18  11   -0.49    8.41
  -4 -18  14   -1.07    7.90
  -4 -18  17   77.06   13.25
  19 -22  14    7.43   10.62
  19 -22  11    6.82   11.81
  19 -22   8   87.84   16.74
  -3 -19  -8  119.06   11.83
  -3 -19  -5  172.00   14.43
  -3 -19  -2  164.77   14.84
  -3 -19   1    9.64    7.07
  -3 -19   4    9.27    7.23
  -3 -19   7   73.50   11.89
  -3 -19  10  115.08   14.57
  -3 -19  13   45.00   10.18
  -3 -19  16   14.56    9.50
  20 -22  12   14.32   10.64
  20 -22   9  -20.48   12.15
  -2 -20  -9   25.89    7.70
  -2 -20  -6   15.65    7.03
  20 -22   6   12.82   11.39
  -2 -20  -3  188.93   16.07
  -2 -20   0  255.77   18.86
  -2 -20   3  171.79   16.33
  -2 -20   6   12.39    8.29
  -2 -20   9    9.16    7.71
  -2 -20  12   16.06   10.47
  -1 -21 -10   74.97   11.12
  21 -22  10   58.49   14.80
  -1 -21  -7   56.62   10.25
  21 -22   7   26.34   12.04
  -1 -21  -4    0.02    7.42
  -1 -21  -1    5.44    7.23
  -1 -21   2   48.49   11.03
  -1 -21   5  117.54   14.44
  -1 -21   8   62.87   11.84
  -1 -21  11   20.46    9.86
   0 -22  -5   58.80   11.33
   0 -22  -2   68.94   11.91
   0 -22   1    7.85    8.10
   0 -22   4   11.94    8.71
   2 -23   4   22.51    9.72
   2 -23   1   31.01   10.51
   2 -23  -2   75.59   13.34
   3 -23   8  177.79   19.44
   3 -23   5  204.75   20.17
   3 -23   2   59.78   12.80
   3 -23  -1  -11.59    9.61
   3 -23  -4   11.29    8.18
   3 -23  -7   61.42   12.21
   4 -23  12   65.68   13.88
   4 -23   9    2.85    9.12
   4 -23   6    9.47    9.21
   4 -23   3   47.58   12.19
   4 -23   0   76.58   13.52
   4 -23  -3   53.66   12.86
   4 -23  -6    4.20    8.26
   4 -23  -9    5.73    8.44
  23 -19  12   63.49   14.74
   4 -23 -12   98.23   15.11
   5 -23  13   69.66   13.23
   5 -23  10  117.39   16.86
   5 -23   7   80.32   15.10
   5 -23   4   17.38    9.44
   5 -23   1   12.93    9.85
   5 -23  -2   90.32   14.62
   5 -23  -5  140.62   17.43
   5 -23  -8  187.87   19.80
   5 -23 -11   32.28   11.29
  23 -18  11   13.58   11.36
  23 -18  14   26.67   11.86
   5 -23 -14   -2.57    8.79
   6 -23  14    2.65    9.72
   6 -23  11   14.87   10.91
   6 -23   8   79.46   14.50
   6 -23   5  112.86   16.23
   6 -23   2   83.29   14.93
   6 -23  -1   27.73   11.32
   6 -23  -4    7.30    9.20
   6 -23  -7   74.13   14.52
   6 -23 -10   30.67   11.64
  23 -17  13   31.23   12.16
   6 -23 -13   60.68   13.59
   6 -23 -16   13.03    9.93
  23 -17  16   25.62   11.34
   7 -23  15  178.60   19.91
   7 -23  12   76.86   15.22
   7 -23   9  -17.37   12.08
   7 -23   6   50.07   13.00
   7 -23   3  142.09   17.87
   7 -23   0  300.82   24.56
   7 -23  -3  166.18   19.11
   7 -23  -6   33.49   11.52
   7 -23  -9   18.27   10.37
  23 -16  12   74.97   14.71
   7 -23 -12   36.74   12.04
  23 -16  15   63.52   13.49
   7 -23 -15   56.18   13.63
   8 -23  16   -2.42   10.86
   8 -23  13   66.19   14.64
   8 -23  10  104.21   16.18
   8 -23   7  126.10   17.28
   8 -23   4    5.23    9.72
   8 -23   1  110.44   16.66
   8 -23  -2  156.07   18.83
   8 -23  -5  190.99   20.87
   8 -23  -8  162.44   19.20
 -15  -8  11   47.72    9.97
   8 -23 -11   22.62   11.26
  23 -15  14   -4.86    8.68
 -15  -8  14   -2.87    7.44
  23 -15  17   14.49    8.82
 -15  -8  17   33.23    9.78
   9 -23  17   46.21   13.15
   9 -23  14   -2.77   11.07
   9 -23  11   10.33   10.75
   9 -23   8  104.94   16.39
   9 -23   5  232.40   22.13
   9 -23   2   93.60   15.62
   9 -23  -1    8.75    9.23
   9 -23  -4   42.46   12.48
 -14  -9   4   51.58    8.62
   9 -23  -7  132.03   17.35
 -14  -9   7  155.63   13.75
   9 -23 -10  106.07   16.89
 -14  -9  10  142.85   14.29
 -14  -9  13   73.09   11.67
  23 -14  13   57.05   12.80
  23 -14  16   -3.19    8.07
 -14  -9  16    7.24    7.84
 -14  -9  19   27.09   10.12
  23 -14  19   18.73    8.63
  10 -23  18  108.01   17.26
  10 -23  15   95.32   15.72
  10 -23  12  134.38   18.30
  10 -23   9    4.97    9.04
  10 -23   6   19.56   11.72
  10 -23   3   61.79   14.47
 -13 -10   0  144.09   10.84
  10 -23   0  143.50   18.65
  10 -23  -3   41.80   12.61
 -13 -10   3   72.15    9.13
 -13 -10   6    9.62    6.13
  10 -23  -6    1.77   10.51
 -13 -10   9    6.92    6.59
 -13 -10  12   17.91    7.82
  23 -13  15   66.93   12.46
 -13 -10  15   55.96   11.02
  23 -13  18   62.88   11.68
 -13 -10  18   75.49   13.05
  11 -23  19    5.86   10.89
  11 -23  16    7.28   10.96
  11 -23  13  105.26   16.80
  11 -23  10   92.74   15.80
  11 -23   7   31.58   11.97
  11 -23   4   20.83   11.44
  11 -23   1   96.66   15.60
 -12 -11  -1  106.74    9.39
 -12 -11   2  133.95   11.41
  11 -23  -2  115.19   17.72
 -12 -11   5   84.84   10.73
  11 -23  -5   64.88   15.35
 -12 -11   8   86.83   11.45
 -12 -11  11   29.87    8.59
  23 -12  14    4.52    8.86
 -12 -11  14    2.07    7.12
  23 -12  17   30.75    9.62
 -12 -11  17   57.02   11.78
 -12 -11  20   84.76   13.56
  12 -23  20   51.70   14.38
  12 -23  17   23.45   12.01
  12 -23  14   21.44   11.40
  12 -23  11   36.59   13.22
  12 -23   8  134.10   18.60
  12 -23   5  198.92   21.80
  12 -23   2   90.88   16.00
 -11 -12  -2   92.90    8.84
  12 -23  -1   14.34   11.41
 -11 -12   1   46.22    7.74
  12 -23  -4   -2.98   11.69
 -11 -12   4    2.22    5.76
 -11 -12   7   64.66   10.34
 -11 -12  10  170.20   15.03
  23 -11  13   70.78   11.96
 -11 -12  13  116.94   13.64
 -11 -12  16   -2.87    8.28
  23 -11  16    5.48    7.33
 -11 -12  19    3.98    8.14
  13 -23  18  136.44   19.74
  13 -23  15   58.20   13.50
  13 -23  12   69.41   14.97
  13 -23   9    7.89   10.36
  13 -23   6   -8.44   10.35
  13 -23   3   42.79   13.87
 -10 -13  -3   62.10    7.25
  13 -23   0   90.26   16.59
 -10 -13   0  151.40   11.78
 -10 -13   3  156.16   13.09
 -10 -13   6   28.35    8.34
 -10 -13   9    0.79    6.89
 -10 -13  12   39.39    9.56
 -10 -13  15   82.69   12.56
 -10 -13  18   70.38   12.46
  14 -23  19    2.28   11.11
  14 -23  16   25.88   14.12
  14 -23  13   98.78   16.41
  14 -23  10  162.08   19.99
  14 -23   7   24.96   10.59
  -9 -14  -4    4.13    4.50
  14 -23   4   -9.56    9.58
  -9 -14  -1   46.83    7.64
  14 -23   1   22.40   11.70
  -9 -14   2  221.84   15.23
  -9 -14   5  261.62   17.67
  -9 -14   8  129.44   13.42
  -9 -14  11   42.19   10.05
  -9 -14  14   -3.52    8.39
  -9 -14  17    9.29    8.05
  15 -23  17   76.88   16.19
  15 -23  14   33.49   12.72
  15 -23  11   18.55   11.43
  15 -23   8   61.82   15.15
  15 -23   5  118.49   17.76
  -8 -15  -2  112.72   10.48
  15 -23   2   92.15   16.88
  -8 -15   1   27.09    7.17
  -8 -15   4   -4.82    6.66
  -8 -15   7   93.74   11.83
  -8 -15  10  122.36   14.14
  -8 -15  13   40.24   10.41
  -8 -15  16   34.64   10.40
  16 -23  15  131.29   18.49
  16 -23  12   67.43   14.91
  16 -23   9   19.26   12.41
  16 -23   6   -6.74   10.90
  16 -23   3   82.13   15.89
  -7 -16  -3   87.89    9.59
  -7 -16   0  177.28   14.05
  -7 -16   3   99.41   11.48
  -7 -16   6    9.93    7.40
  -7 -16   9    5.27    7.25
  -7 -16  12   23.48    9.16
  -7 -16  15   82.67   13.26
  17 -23  16   64.26   14.94
  17 -23  13   57.00   14.83
  17 -23  10  108.68   17.96
  17 -23   7  103.52   17.14
  17 -23   4   22.05   13.14
  -6 -17  -4   33.59    7.38
  -6 -17  -1   -0.64    5.67
  -6 -17   2  109.54   11.90
  -6 -17   5  162.44   14.83
  -6 -17   8  117.06   13.97
  -6 -17  11  116.07   13.84
  -6 -17  14   -6.04    8.80
  18 -23  14   22.99   12.37
  18 -23  11    4.73   10.39
  18 -23   8  101.15   16.97
  18 -23   5  174.84   22.04
  -5 -18  -5  197.81   14.53
  -5 -18  -2   94.70   11.34
  -5 -18   1    5.15    6.51
  -5 -18   4   41.50    9.01
  -5 -18   7  128.62   14.28
  -5 -18  10  193.18   17.48
  -5 -18  13   99.64   14.30
  19 -23  12   31.00   12.68
  19 -23   9    3.16   10.48
  -4 -19  -6   42.81    8.39
  19 -23   6   28.07   13.02
  -4 -19  -3  136.28   13.62
  -4 -19   0  117.35   12.92
  -4 -19   3   79.37   11.63
  -4 -19   6   20.86    8.64
  -4 -19   9   -3.27    8.08
  -4 -19  12  105.75   14.59
  20 -23   7   25.43   12.03
  -3 -20  -4    4.59    6.09
  -3 -20  -1   35.70    9.04
  -3 -20   2  133.37   14.34
  -3 -20   5  159.26   15.97
  -3 -20   8   93.65   13.64
  -2 -21  -2  104.60   13.12
  -2 -21   1   48.47   10.23
  -2 -21   4    9.02    7.66
   5 -24   5  145.97   18.46
   5 -24   2   61.96   14.11
   5 -24  -1   27.90   10.70
   5 -24  -4    2.49    9.09
   6 -24   9   13.72   10.33
   6 -24   6   -6.54   10.62
   6 -24   3  127.68   17.39
   6 -24   0  290.49   24.54
   6 -24  -3  106.90   15.66
   6 -24  -6   17.75   10.55
   6 -24  -9   11.62   10.71
   7 -24  10   36.98   12.72
   7 -24   7   26.37   11.27
   7 -24   4    7.30   10.57
   7 -24   1   25.97   11.52
   7 -24  -2  117.22   17.10
   7 -24  -5  148.10   18.37
   7 -24  -8  131.22   17.99
   7 -24 -11   26.33   10.44
   8 -24  11    4.06   10.27
   8 -24   8   63.15   14.72
   8 -24   5  127.39   18.13
   8 -24   2   23.03   11.46
   8 -24  -1   12.58   10.51
   8 -24  -4    3.51   10.23
   8 -24  -7  115.26   17.16
   8 -24 -10  144.48   19.09
   8 -24 -13  116.72   18.11
  24 -16  13  111.12   16.60
   9 -24  12   28.53   12.04
   9 -24   9    2.04   10.04
   9 -24   6   48.74   14.13
   9 -24   3  150.59   19.06
   9 -24   0  206.87   20.96
   9 -24  -3   99.67   16.48
   9 -24  -6   11.97   11.30
 -15  -9   9   -2.39    7.09
   9 -24  -9  -20.24   12.96
   9 -24 -12   76.47   15.41
  24 -15  12   86.51   14.95
 -15  -9  12   89.62   12.41
  10 -24  13  101.01   16.63
  10 -24  10  138.22   18.87
  10 -24   7   71.34   14.60
  10 -24   4   55.85   13.52
  10 -24   1   14.70   10.27
  10 -24  -2   98.73   16.67
  10 -24  -5  123.77   17.77
 -14 -10   5  121.78   12.42
  10 -24  -8  130.32   18.28
 -14 -10   8  131.93   13.46
  10 -24 -11   -3.96   12.71
 -14 -10  11   25.08    8.51
  24 -14  14   -0.16    9.07
 -14 -10  14  -10.80    8.04
  11 -24  14   21.82   11.78
  11 -24  11   26.00   12.37
  11 -24   8   85.18   16.74
  11 -24   5  168.66   20.56
  11 -24   2  148.89   19.81
  11 -24  -1   14.02   11.00
 -13 -11   4    1.98    5.75
  11 -24  -4   10.90   10.06
  11 -24  -7   44.43   14.79
 -13 -11   7   56.09    9.70
 -13 -11  10  116.84   13.19
 -13 -11  13   77.59   11.79
  24 -13  13   35.34   10.50
  12 -24  15   39.82   14.24
  12 -24  12   31.91   13.17
  12 -24   9   11.48    9.63
  12 -24   6   91.83   16.81
  12 -24   3  287.97   25.55
  12 -24   0  237.73   24.35
  12 -24  -3  113.14   17.24
 -12 -12   3  121.91   11.51
  12 -24  -6    9.28   10.61
 -12 -12   6   33.05    7.66
 -12 -12   9    3.71    6.36
 -12 -12  12   72.34   12.16
  24 -12  15   89.97   13.08
 -12 -12  15  125.63   14.98
  13 -24  13   63.31   13.90
  13 -24  10  169.67   20.95
  13 -24   7   79.84   15.21
  13 -24   4    1.75   10.75
  13 -24   1   30.47   12.61
  13 -24  -2   29.12   12.21
 -11 -13   2   57.14    8.41
 -11 -13   5  101.51   11.52
 -11 -13   8  167.66   15.02
 -11 -13  11   32.25    8.99
 -11 -13  14    1.74    7.85
  14 -24  14    4.80   11.02
  14 -24  11   37.71   12.85
  14 -24   8  143.53   20.24
  14 -24   5  172.33   21.01
  14 -24   2  105.39   17.69
 -10 -14   1    7.73    5.38
  14 -24  -1  -23.83   13.47
 -10 -14   4   28.68    7.56
 -10 -14   7  179.97   15.41
 -10 -14  10  208.18   17.38
 -10 -14  13   62.94   11.21
  15 -24  12   93.86   16.51
  15 -24   9   -7.46   11.65
  15 -24   6   17.67   11.32
  15 -24   3  128.84   19.30
  15 -24   0  179.28   21.64
  -9 -15   0  191.21   14.09
  -9 -15   3  136.05   12.84
  -9 -15   6    3.65    6.40
  -9 -15   9    3.86    6.97
  -9 -15  12   54.88   11.09
  16 -24  13   80.95   17.06
  16 -24  10   60.54   14.73
  16 -24   7   58.05   15.73
  16 -24   4  -12.38   11.35
  -8 -16  -1   13.61    6.03
  16 -24   1  -18.54   13.10
  -8 -16   2   54.86    9.46
  -8 -16   5   62.64   10.27
  -8 -16   8   50.67   10.81
  -8 -16  11    0.91    7.27
  17 -24  11   -6.79   12.25
  17 -24   8  101.37   18.10
  17 -24   5  168.98   21.33
  -7 -17  -2   88.38   10.41
  17 -24   2   70.08   15.95
  -7 -17   1    6.50    6.01
  -7 -17   4    6.69    7.27
  -7 -17   7   64.20   10.73
  -7 -17  10  142.32   15.26
  18 -24   9   -8.88   12.26
  18 -24   6   29.05   12.14
  18 -24   3   63.78   15.74
  -6 -18   0  106.08   11.79
  -6 -18   3   83.17   11.30
  -6 -18   6   15.31    7.96
  -6 -18   9    7.15    7.62
  19 -24   4   -6.01   11.87
  -5 -19  -1    4.64    6.39
  -5 -19   2   90.90   12.28
  -5 -19   5  141.86   14.87
   8 -25   0  125.04   18.16
   9 -25   4    6.46    9.83
   9 -25   1   42.29   12.84
   9 -25  -2  109.36   17.25
   9 -25  -5  114.03   18.02
  10 -25   8   96.40   17.54
  10 -25   5  137.75   18.81
  10 -25   2   88.62   16.04
  10 -25  -1   33.90   11.31
  10 -25  -4   -0.83   10.88
  10 -25  -7   63.11   15.76
  11 -25   9   19.59   12.23
  11 -25   6    1.79    9.49
  11 -25   3   23.03   11.55
  11 -25   0  105.98   17.56
  11 -25  -3   68.67   15.55
  11 -25  -6    3.06   10.26
  11 -25  -9   -2.76   11.50
 -14 -11   9    6.26    7.23
  12 -25   7   68.54   15.70
  12 -25   4   22.36   11.46
  12 -25   1   -9.13   10.33
  12 -25  -2  118.45   18.73
  12 -25  -5  152.85   20.19
  12 -25  -8   73.06   16.57
 -13 -12   8   80.51   11.01
  13 -25   8   92.54   17.37
  13 -25   5  207.16   22.97
  13 -25   2  111.35   18.21
  13 -25  -1   17.92   10.87
  13 -25  -4  -19.68   13.86
 -12 -13   7  129.02   13.28
  13 -25  -7  101.59   17.85
  14 -25   9   20.40   11.79
  14 -25   6   21.80   12.29
  14 -25   3   85.13   16.93
  14 -25   0   85.23   17.11
  14 -25  -3   14.05   11.96
 -11 -14   6  -16.12    6.97
 -11 -14   9   29.26    9.02
  15 -25   7   14.27   11.82
  15 -25   4  -11.93   12.26
  15 -25   1   19.17   12.38
  15 -25  -2   62.43   15.24
 -10 -15   5   55.53    9.45
 -10 -15   8   24.11    8.38
  16 -25   5   64.80   14.14
  16 -25   2   61.52   14.97
  16 -25  -1  -12.86   13.81
  -9 -16   4   -0.89    5.83
  17 -25   0   74.17   17.13
  -8 -17   3   44.85    8.95
   0   0   0    0.00    0.00


TITL AGR440bt3 in R-3
REM R-3 (#148 in standard setting)
CELL 0.71073  20.974442  20.974442  37.595896  90.0000  90.0000 120.0000
ZERR    3.00   0.000572   0.000572   0.001292   0.0000   0.0000   0.0000
LATT  3
SYMM -y, x-y, z
SYMM -x+y,-x, z
SFAC C H N Mg Cl Bi
UNIT 504.00 342.00 54.00 9.00 54.00 6.00
TREF
HKLF 4
END
_computing_structure_solution     'SHELXT 2018/2 (Sheldrick, 2018)'
;
_shelx_hkl_checksum              59501
_shelx_fab_file
;
0 0 6 -92.9555 35.0971
0 0 9 -203.3837 -40.2824
0 0 12 -206.4776 32.9604
0 0 15 -117.1715 -14.1333
0 0 18 70.2391 -8.9137
0 0 21 83.9342 23.0163
0 0 24 14.3367 -28.6027
0 0 27 -10.3961 23.8798
0 0 30 -0.4871 -9.8144
0 0 33 -15.8130 -1.7401
0 0 36 -12.5398 10.6044
0 0 39 1.6387 -14.6039
0 0 42 2.7149 14.7013
0 0 45 -5.1388 -3.0190
0 1 -43 1.5907 5.1237
0 1 -40 -2.9954 -7.5202
0 1 -37 0.7079 8.1649
0 1 -34 3.2131 -4.4951
0 1 -31 -0.0212 -2.5956
0 1 -28 4.6601 11.3329
0 1 -25 -12.2134 -14.7912
0 1 -22 -34.1220 13.6583
0 1 -19 -22.0871 -9.6116
0 1 -16 52.1150 -3.5345
0 1 -13 105.3938 15.0541
0 1 -10 184.2905 -18.8400
0 1 -7 113.9704 20.7118
0 1 -4 -135.2225 -9.9707
0 1 5 -63.5368 -13.7074
0 1 8 -22.8951 21.1679
0 1 11 4.6762 -18.3330
0 1 14 -1.8613 13.3263
0 1 17 -42.9379 -3.5298
0 1 20 -8.3297 -8.4187
0 1 23 7.1616 13.3088
0 1 26 5.8124 -13.5764
0 1 29 1.9700 10.3931
0 1 32 7.7874 -3.3565
0 1 35 4.4071 -2.8873
0 1 38 0.3651 7.3394
0 1 41 -2.4844 -8.1598
0 1 44 -1.2079 4.3605
0 2 -44 0.8067 2.2588
0 2 -41 -4.9227 -2.3887
0 2 -38 -1.8489 -0.1924
0 2 -35 0.0381 3.5828
0 2 -32 -12.3922 -5.5270
0 2 -29 -8.9964 6.4432
0 2 -26 2.1563 -4.4196
0 2 -23 -13.5474 0.3947
0 2 -20 -3.7813 4.3801
0 2 -17 44.3724 -8.7846
0 2 -14 15.5664 9.6135
0 2 -11 -42.3262 -6.8794
0 2 -8 91.9093 2.4742
0 2 -5 -4.6244 3.9871
0 2 -2 -103.5964 -9.0119
0 2 1 -14.1273 9.5022
0 2 4 372.9995 -11.5407
0 2 7 179.9209 9.2240
0 2 10 156.5147 -0.3644
0 2 13 72.1508 -7.1219
0 2 16 -74.0976 11.9351
0 2 19 -87.7865 -12.1813
0 2 22 0.0086 7.5323
0 2 25 14.5662 -2.0452
0 2 28 0.7433 -3.7682
0 2 31 6.9726 7.0313
0 2 34 6.5896 -6.9478
0 2 37 -4.7189 5.4576
0 2 40 -2.7796 -1.8471
0 2 43 -2.9550 -0.1822
0 3 -45 -15.9106 -6.5879
0 3 -42 0.0536 2.2618
0 3 -39 7.0802 1.4283
0 3 -36 2.9026 -5.4962
0 3 -33 13.2710 7.2951
0 3 -30 5.8274 -7.3192
0 3 -27 -0.4360 3.9262
0 3 -24 17.1558 1.1834
0 3 -21 10.8626 -7.6076
0 3 -18 -42.4895 11.7104
0 3 -15 -1.6945 -11.9549
0 3 -12 49.9708 7.6259
0 3 -9 -49.9918 -0.1436
0 3 -6 98.3844 -7.2810
0 3 -3 158.8134 12.9851
0 3 0 -182.1572 -13.1284
0 3 3 -386.9384 9.3944
0 3 6 33.6428 -4.2791
0 3 9 -14.1130 -2.9741
0 3 12 -47.5264 8.8485
0 3 15 29.4344 -11.1692
0 3 18 -12.6347 9.3087
0 3 21 -53.4576 -4.7883
0 3 24 -9.7949 -1.0250
0 3 27 16.6250 5.1633
0 3 30 5.9253 -6.4945
0 3 33 -4.3662 5.9582
0 3 36 0.4553 -2.5977
0 3 39 -5.0750 -0.3100
0 3 42 2.2338 1.5846
0 3 45 3.2776 -4.8659
0 4 -43 -3.3660 2.7578
0 4 -40 -1.6560 -3.3672
0 4 -37 5.3560 2.8336
0 4 -34 -1.6524 -0.6396
0 4 -31 -1.8718 -1.8588
0 4 -28 -2.1774 3.3805
0 4 -25 -6.9710 -4.7128
0 4 -22 -3.6406 4.1337
0 4 -19 14.2564 -2.5842
0 4 -16 -11.8304 -1.2251
0 4 -13 -65.8668 5.0891
0 4 -10 -69.7984 -7.3529
0 4 -7 -98.4626 6.6324
0 4 -4 -10.0059 -2.8187
0 4 -1 218.5258 -1.3745
0 4 2 238.9181 4.9589
0 4 5 -48.2729 -6.6787
0 4 8 -20.9079 6.2271
0 4 11 -26.2459 -3.1623
0 4 14 -22.1211 -1.2510
0 4 17 27.7288 4.4811
0 4 20 32.6826 -5.7903
0 4 23 16.6189 4.3444
0 4 26 8.4715 -2.2004
0 4 29 -3.6832 -0.5880
0 4 32 3.5899 2.3212
0 4 35 2.1558 -3.4069
0 4 38 0.6338 2.1005
0 4 41 3.0656 -1.1774
0 4 44 6.3629 -1.9158
0 5 -44 3.4488 -2.9111
0 5 -41 -0.2975 -1.6361
0 5 -38 1.4867 2.1791
0 5 -35 -0.0289 -2.0157
0 5 -32 2.9499 1.2948
0 5 -29 3.3805 0.7456
0 5 -26 -0.0818 -2.7568
0 5 -23 -0.2579 3.6014
0 5 -20 7.3407 -4.1383
0 5 -17 -4.0670 3.5293
0 5 -14 -2.8514 0.2870
0 5 -11 55.5982 -3.6711
0 5 -8 43.9576 5.3744
0 5 -5 -41.2496 -6.0153
0 5 -2 -82.0375 3.8918
0 5 1 -60.3808 0.0456
0 5 4 -69.4111 -3.4044
0 5 7 -66.5947 5.9152
0 5 10 28.7288 -6.0198
0 5 13 -2.1101 3.7778
0 5 16 13.1728 -0.9982
0 5 19 32.5909 -2.3318
0 5 22 2.4095 4.4180
0 5 25 -18.1996 -3.9042
0 5 28 0.9491 2.3775
0 5 31 0.2864 -1.4592
0 5 34 -6.0371 -0.7083
0 5 37 1.5112 2.7714
0 5 40 4.8444 -3.1010
0 5 43 -1.8245 3.3329
0 6 -42 -1.5071 4.1285
0 6 -39 -15.6486 0.6102
0 6 -36 2.1205 -2.8523
0 6 -33 9.7375 5.9413
0 6 -30 7.3012 -6.1898
0 6 -27 8.5817 2.6431
0 6 -24 2.9274 1.0739
0 6 -21 -29.9651 -5.6203
0 6 -18 -32.6639 8.7691
0 6 -15 4.2275 -8.2918
0 6 -12 -45.2881 4.9019
0 6 -9 -43.2953 0.2417
0 6 -6 20.2583 -6.3731
0 6 -3 11.6068 9.6682
0 6 0 -30.9962 -10.0542
0 6 3 81.3040 7.5852
0 6 6 75.2307 -1.0005
0 6 9 -5.6641 -5.8934
0 6 12 44.6817 9.0011
0 6 15 7.7473 -9.3542
0 6 18 -18.5000 5.5749
0 6 21 -0.6363 0.0880
0 6 24 13.8963 -3.3192
0 6 27 7.4791 4.3564
0 6 30 4.2867 -4.8946
0 6 33 3.4145 3.9919
0 6 36 -1.0518 -1.2831
0 6 39 -2.1693 -1.4441
0 6 42 0.0801 4.3511
0 7 -43 -5.1251 1.3332
0 7 -40 7.0536 -3.1961
0 7 -37 -2.8875 2.8952
0 7 -34 -11.0796 -2.7479
0 7 -31 -11.2755 0.1708
0 7 -28 -16.2859 3.4153
0 7 -25 -5.5312 -5.8706
0 7 -22 30.9191 5.9451
0 7 -19 43.5354 -3.6399
0 7 -16 6.3162 -0.0840
0 7 -13 9.0422 5.1092
0 7 -10 -20.0886 -7.9752
0 7 -7 -47.3786 7.6481
0 7 -4 5.8440 -5.2936
0 7 -1 92.8871 0.6532
0 7 2 20.3182 4.9773
0 7 5 -1.4999 -7.6225
0 7 8 -8.0069 8.1075
0 7 11 -47.0146 -5.5070
0 7 14 -20.7550 0.7208
0 7 17 -19.7336 3.6058
0 7 20 -9.1273 -5.4498
0 7 23 19.7508 5.7718
0 7 26 19.2661 -3.9724
0 7 29 4.7160 1.2587
0 7 32 -6.5283 0.8245
0 7 35 -9.2394 -3.5406
0 7 38 -10.2487 4.2158
0 7 41 -1.5751 -1.6675
0 8 -41 4.6485 -0.6799
0 8 -38 3.4600 3.4292
0 8 -35 5.8678 -2.6646
0 8 -32 4.6646 1.6685
0 8 -29 9.8595 1.9954
0 8 -26 5.7044 -4.5284
0 8 -23 -10.8353 5.8001
0 8 -20 -21.2812 -4.9927
0 8 -17 -24.4439 2.4059
0 8 -14 -3.3213 2.4533
0 8 -11 49.0989 -5.6304
0 8 -8 44.3702 7.5724
0 8 -5 7.0784 -7.1083
0 8 -2 -48.3412 3.4035
0 8 1 -33.5426 1.4348
0 8 4 -3.6852 -5.7066
0 8 7 58.9589 8.8375
0 8 10 40.6263 -7.9689
0 8 13 -11.1911 3.5695
0 8 16 3.0810 0.9375
0 8 19 -3.4874 -4.8330
0 8 22 -22.6935 6.3689
0 8 25 -5.3927 -4.2963
0 8 28 -1.9346 2.4009
0 8 31 2.9028 -0.7763
0 8 34 6.5397 -1.7654
0 8 37 5.8352 4.2112
0 8 40 -5.9611 -5.2643
0 9 -39 3.2858 -1.5429
0 9 -36 -7.2738 -1.4981
0 9 -33 -15.9758 4.2977
0 9 -30 -10.6729 -5.4868
0 9 -27 -12.3123 4.4860
0 9 -24 -16.3259 -1.8752
0 9 -21 -4.5622 -2.9412
0 9 -18 32.9265 6.8054
0 9 -15 17.4342 -8.1873
0 9 -12 -21.0583 6.9898
0 9 -9 -0.0379 -2.6959
0 9 -6 -18.0631 -2.8455
0 9 -3 -19.3861 6.7626
0 9 0 24.2006 -9.4170
0 9 3 32.3191 8.4779
0 9 6 -21.5859 -3.5407
0 9 9 -0.2855 -1.2909
0 9 12 19.5851 5.6925
0 9 15 -9.1145 -7.7427
0 9 18 -6.5776 5.6734
0 9 21 -1.0746 -3.0292
0 9 24 -9.8604 -0.2000
0 9 27 3.0780 2.8546
0 9 30 3.6602 -3.9435
0 9 33 2.0784 3.3698
0 9 36 -4.5038 -1.0692
0 9 39 -4.0929 -0.8787
0 10 -40 -12.6531 -6.2655
0 10 -37 1.5274 2.2211
0 10 -34 19.3196 -0.2724
0 10 -31 14.1214 -2.7262
0 10 -28 7.0273 3.6554
0 10 -25 10.4871 -4.7536
0 10 -22 2.5892 3.6956
0 10 -19 -23.2074 -0.8324
0 10 -16 -13.0026 -3.0224
0 10 -13 3.4051 6.1565
0 10 -10 -1.2475 -6.9654
0 10 -7 35.3125 5.2557
0 10 -4 34.6472 -1.2907
0 10 -1 -18.4264 -3.2730
0 10 2 -21.8692 6.8683
0 10 5 -2.3237 -7.7277
0 10 8 -12.4421 6.2581
0 10 11 -7.7203 -1.7907
0 10 14 6.7776 -2.9023
0 10 17 -2.9784 6.1401
0 10 20 -4.8544 -6.7783
0 10 23 -7.2495 5.0345
0 10 26 -12.6716 -0.8398
0 10 29 -0.0121 -1.1768
0 10 32 3.9605 3.7797
0 10 35 5.4633 -3.5761
0 10 38 1.0626 3.7874
0 11 -38 -4.3010 3.9096
0 11 -35 -2.6237 -3.0479
0 11 -32 -5.7862 2.3668
0 11 -29 -0.4260 1.3059
0 11 -26 -8.8639 -2.5394
0 11 -23 -4.6113 4.5399
0 11 -20 18.9926 -4.9762
0 11 -17 9.0112 3.3365
0 11 -14 -3.2210 -0.1097
0 11 -11 -15.5923 -3.9197
0 11 -8 -26.0863 7.1090
0 11 -5 -3.6920 -6.8238
0 11 -2 11.8012 4.0296
0 11 1 -8.2812 -0.3418
0 11 4 -2.6466 -3.6248
0 11 7 5.5241 6.3511
0 11 10 9.8906 -6.3950
0 11 13 7.8610 4.3011
0 11 16 1.8076 -1.2270
0 11 19 -11.1986 -2.4759
0 11 22 -4.2805 3.9944
0 11 25 4.9313 -4.3259
0 11 28 3.1352 2.9229
0 11 31 5.3309 -0.9003
0 11 34 3.4881 -1.7803
0 11 37 2.8879 3.8849
0 12 -36 -12.4812 -2.9831
0 12 -33 0.3848 4.2370
0 12 -30 3.2372 -5.1391
0 12 -27 3.8843 3.2467
0 12 -24 -2.1967 0.2187
0 12 -21 -21.0118 -3.7036
0 12 -18 -10.4197 6.6584
0 12 -15 1.7814 -7.3027
0 12 -12 18.8026 5.1435
0 12 -9 9.0672 -1.0501
0 12 -6 -9.0105 -4.4015
0 12 -3 7.6964 8.4277
0 12 0 16.7027 -9.0315
0 12 3 -4.2870 5.4895
0 12 6 -5.4739 -1.1039
0 12 9 -13.6946 -2.9254
0 12 12 -19.8687 6.2513
0 12 15 -3.3400 -6.8931
0 12 18 15.7370 5.3482
0 12 21 1.4430 -2.5250
0 12 24 -13.3366 -1.6544
0 12 27 -9.7665 3.1225
0 12 30 -4.6999 -4.4603
0 12 33 -2.7740 3.1999
0 12 36 -1.6736 -0.9797
0 13 -37 4.5865 6.0065
0 13 -34 -3.9041 -0.6021
0 13 -31 -8.8353 -1.9215
0 13 -28 -5.2526 2.7946
0 13 -25 -3.4057 -3.9138
0 13 -22 -0.1821 2.9497
0 13 -19 4.1015 -0.9911
0 13 -16 12.5002 -1.7859
0 13 -13 -2.5774 4.6273
0 13 -10 -2.5774 -6.6145
0 13 -7 5.5341 5.2666
0 13 -4 -4.3906 -1.0123
0 13 -1 -0.6919 -3.6574
0 13 2 4.5984 6.3168
0 13 5 -4.1756 -6.4870
0 13 8 -0.3728 3.9491
0 13 11 4.0524 -0.8294
0 13 14 -0.1228 -2.1907
0 13 17 -0.7991 4.3196
0 13 20 -0.6471 -5.0202
0 13 23 5.3724 3.6696
0 13 26 5.3724 -1.3361
0 13 29 3.5200 0.5790
0 13 32 -8.4091 4.0552
0 13 35 -2.1374 -5.9131
0 14 -35 2.5384 -5.4211
0 14 -32 -0.5763 1.5990
0 14 -29 -7.2190 0.5686
0 14 -26 -6.5506 -3.0355
0 14 -23 1.4416 5.4487
0 14 -20 1.2036 -4.5139
0 14 -17 -8.6278 2.7488
0 14 -14 -4.6801 1.2198
0 14 -11 -3.1791 -4.6227
0 14 -8 -0.1957 7.0170
0 14 -5 2.2202 -6.4783
0 14 -2 -7.9312 3.9606
0 14 1 2.2350 0.9567
0 14 4 13.8006 -4.9532
0 14 7 3.6075 6.5387
0 14 10 1.5027 -5.6126
0 14 13 3.7467 3.6504
0 14 16 -3.9104 -0.6589
0 14 19 6.1622 -1.5025
0 14 22 2.9830 2.7581
0 14 25 0.3033 -3.6908
0 14 28 -15.8226 3.3295
0 14 31 1.1848 -1.3479
0 14 34 7.9497 -3.1075
0 15 -33 4.0358 4.4247
0 15 -30 11.2444 -4.3035
0 15 -27 8.1032 2.1932
0 15 -24 5.5485 -1.0548
0 15 -21 2.7518 -2.3859
0 15 -18 -0.7266 4.9305
0 15 -15 3.7548 -5.3795
0 15 -12 6.9009 4.1629
0 15 -9 0.3910 -1.0154
0 15 -6 2.1980 -3.0825
0 15 -3 9.9612 6.9506
0 15 0 0.3672 -7.3693
0 15 3 -1.5237 4.4355
0 15 6 1.7980 -0.6032
0 15 9 -2.4210 -3.4017
0 15 12 0.5570 4.9598
0 15 15 10.4966 -5.0159
0 15 18 -2.1635 4.3180
0 15 21 -3.5193 -1.1477
0 15 24 -10.3224 -0.2396
0 15 27 1.0519 3.8289
0 15 30 -0.1609 -4.2064
0 15 33 -2.5146 4.9528
0 16 -31 -6.6628 -1.3766
0 16 -28 4.0317 4.0809
0 16 -25 -1.8265 -2.7330
0 16 -22 -6.0331 1.5626
0 16 -19 7.3790 -0.1872
0 16 -16 2.5359 -2.7074
0 16 -13 1.4999 5.1973
0 16 -10 6.0869 -5.1425
0 16 -7 -4.9607 3.0707
0 16 -4 -4.6604 0.3319
0 16 -1 5.9799 -3.4210
0 16 2 -1.6055 5.5046
0 16 5 -1.3456 -5.8295
0 16 8 0.4105 4.4268
0 16 11 -2.2197 -0.9651
0 16 14 -5.7481 -2.1183
0 16 17 3.2301 4.0832
0 16 20 -4.9093 -4.2495
0 16 23 -2.0783 3.0814
0 16 26 -1.1333 0.0624
0 16 29 -8.7483 -2.4694
0 17 -29 -5.6045 -2.6809
0 17 -26 -1.2684 -1.8111
0 17 -23 6.2576 4.8656
0 17 -20 0.1318 -3.3626
0 17 -17 -5.0728 1.4235
0 17 -14 -8.1853 0.9436
0 17 -11 -7.8003 -2.7364
0 17 -8 -0.3834 4.3789
0 17 -5 -3.4995 -5.2039
0 17 -2 1.3981 3.7280
0 17 1 2.6676 -0.0189
0 17 4 -8.9895 -3.0969
0 17 7 -2.4568 5.4978
0 17 10 2.0617 -5.2146
0 17 13 0.1451 3.4729
0 17 16 -0.1759 -1.3447
0 17 19 11.8620 -1.9007
0 17 22 3.7462 4.6629
0 17 25 -4.6630 -3.6343
0 17 28 5.0870 3.9772
0 18 -24 -3.5434 -3.0868
0 18 -21 -10.8957 -4.1161
0 18 -18 -2.1822 4.1616
0 18 -15 0.3958 -3.3061
0 18 -12 -4.1431 1.9117
0 18 -9 -9.5557 -0.5992
0 18 -6 2.7893 -2.5696
0 18 -3 -1.3968 5.5354
0 18 0 -1.1613 -5.7183
0 18 3 5.5709 3.9546
0 18 6 5.2035 -1.6182
0 18 9 4.2703 -1.2438
0 18 12 3.2146 3.7543
0 18 15 -3.0798 -6.2166
0 18 18 -0.1023 2.9274
0 18 21 1.6356 0.0333
0 18 24 -2.9796 -2.8253
0 19 -22 9.0632 6.3044
0 19 -19 13.8575 -1.0466
0 19 -16 9.8199 -3.0199
0 19 -13 -5.4504 3.9767
0 19 -10 -1.9808 -2.5793
0 19 -7 -3.9750 2.4107
0 19 -4 -7.3845 -1.1789
0 19 -1 -4.4544 -0.6961
0 19 2 5.4695 3.8128
0 19 5 -2.3452 -4.3150
0 19 8 -5.5298 5.0723
0 19 11 -5.0662 0.1186
0 19 14 1.7239 -2.1179
0 19 17 -4.7461 3.6405
0 19 20 -0.4498 -3.3270
0 19 23 2.4932 5.0557
0 20 -17 -2.0357 5.7830
0 20 -14 0.8398 -1.2251
0 20 -11 3.4148 -4.6363
0 20 -8 7.3279 3.4008
0 20 -5 9.0720 -3.7089
0 20 -2 0.2170 2.6768
0 20 1 -11.0052 -0.2417
0 20 4 -1.6117 -3.3984
0 20 7 3.7456 3.5931
0 20 10 7.1555 -3.0272
0 20 13 6.2522 2.1352
0 20 16 3.5594 -4.3994
0 20 19 -3.9617 -0.2282
0 21 -12 8.5850 7.6376
0 21 -9 -8.8125 -2.1307
0 21 -6 -12.5433 -1.4638
0 21 -3 -2.1541 4.4558
0 21 0 7.8533 -4.0451
0 21 3 6.5898 2.0301
0 21 6 -10.8637 -1.1484
0 21 9 -14.6662 1.1277
0 21 12 -5.5980 3.7478
0 22 -4 2.3018 -4.8279
0 22 -1 -0.1877 -0.2984
0 22 2 -9.6318 4.0470
0 22 5 1.5167 -6.4412
1 1 -45 -0.2590 -3.7466
1 1 -42 4.8610 1.4716
1 1 -39 5.6248 -0.0308
1 1 -36 3.5810 -1.2772
1 1 -33 0.3292 3.3132
1 1 -30 -7.2732 -2.8802
1 1 -27 -7.6594 2.5876
1 1 -24 8.9263 -0.9198
1 1 -21 12.4472 -1.8484
1 1 -18 21.8626 4.3951
1 1 -15 20.8370 -5.5041
1 1 -12 -58.4402 3.9827
1 1 -9 -198.5637 -0.4665
1 1 -6 -74.3335 -2.0887
1 1 -3 60.0208 4.0429
1 1 3 56.8299 8.1521
1 1 6 81.8047 -5.5111
1 1 9 -94.7855 -0.0712
1 1 12 -74.7438 6.3399
1 1 15 -3.3628 -8.8063
1 1 18 19.0473 8.9870
1 1 21 -8.5392 -5.6557
1 1 24 -0.3944 0.3328
1 1 27 7.3156 3.2422
1 1 30 -0.6529 -5.1881
1 1 33 -4.3678 5.5981
1 1 36 0.2073 -4.0149
1 1 39 3.1722 1.6193
1 1 42 3.3289 0.7727
1 1 45 -2.0720 -6.7172
1 2 -43 -3.3041 -1.9792
1 2 -40 -6.7239 2.1613
1 2 -37 -6.4446 0.1384
1 2 -34 -1.3342 -3.9597
1 2 -31 16.1507 8.1458
1 2 -28 4.6941 -10.3013
1 2 -25 -25.1577 7.7026
1 2 -22 -19.7800 -0.5231
1 2 -19 -7.7999 -6.9760
1 2 -16 -56.0922 13.7988
1 2 -13 7.1836 -15.8525
1 2 -10 151.7164 10.8837
1 2 -7 -20.2467 -3.1456
1 2 -4 -44.3483 -6.3947
1 2 -1 103.8780 12.9996
1 2 5 -398.2431 14.7181
1 2 8 -120.4098 -10.0880
1 2 11 -0.8735 -0.8330
1 2 14 4.8169 10.0961
1 2 17 69.6038 -14.3322
1 2 20 81.1155 13.5464
1 2 23 -1.8255 -8.0354
1 2 26 -33.3519 0.4005
1 2 29 -7.2952 4.9129
1 2 32 2.5107 -8.2412
1 2 35 0.0510 7.4272
1 2 38 5.7286 -3.9997
1 2 41 -1.6228 2.2204
1 2 44 -1.0507 1.6385
1 3 -44 17.2351 -2.0363
1 3 -41 6.7700 -3.0236
1 3 -38 -7.5669 1.8803
1 3 -35 -2.0622 0.7606
1 3 -32 -7.5550 -2.3730
1 3 -29 0.3185 2.7239
1 3 -26 16.0752 -0.6114
1 3 -23 4.1201 -0.3195
1 3 -20 -14.8127 1.9720
1 3 -17 10.0962 -2.6758
1 3 -14 -2.2807 1.7945
1 3 -11 -18.1080 -1.0373
1 3 -8 95.5587 0.5099
1 3 -5 -3.2636 0.7916
1 3 -2 -181.6348 -1.1401
1 3 1 -24.3847 2.6187
1 3 4 239.8280 -1.2352
1 3 7 52.8711 -1.2114
1 3 10 72.6467 0.5052
1 3 13 82.3769 0.4086
1 3 16 0.0690 -0.6275
1 3 19 -15.2419 0.9053
1 3 22 3.3177 -0.0394
1 3 25 -7.2940 -0.1411
1 3 28 -10.0617 0.4378
1 3 31 -7.3203 -0.8014
1 3 34 -1.0338 1.8809
1 3 37 -0.2854 -1.1208
1 3 40 5.0072 -1.9482
1 3 43 -2.9857 3.6241
1 4 -42 -6.1466 3.4577
1 4 -39 -1.0767 -2.3975
1 4 -36 -5.6334 3.6091
1 4 -33 -5.0975 -3.8633
1 4 -30 10.7551 2.7019
1 4 -27 17.8019 1.5933
1 4 -24 13.3137 -5.4917
1 4 -21 -2.4947 8.5595
1 4 -18 8.0019 -7.6051
1 4 -15 -8.3528 3.4646
1 4 -12 -49.9113 1.8640
1 4 -9 11.9506 -6.6119
1 4 -6 112.8213 9.6043
1 4 -3 58.4340 -8.6305
1 4 0 -38.5779 5.4825
1 4 3 -44.5799 -0.5720
1 4 6 -48.3655 -4.6115
1 4 9 -128.4768 8.0691
1 4 12 -36.0828 -8.0541
1 4 15 -9.2508 5.9855
1 4 18 -35.5475 -1.9687
1 4 21 2.8791 -2.0663
1 4 24 27.0558 4.5851
1 4 27 -2.7249 -5.0942
1 4 30 -10.9329 4.2855
1 4 33 -2.0703 -1.4672
1 4 36 2.8847 -2.4390
1 4 39 -5.8690 2.0423
1 4 42 -5.3536 1.0554
1 5 -43 0.7341 0.5487
1 5 -40 10.6106 2.4514
1 5 -37 -1.1844 -3.2408
1 5 -34 -1.6241 1.1132
1 5 -31 -15.9677 1.8821
1 5 -28 -24.1135 -5.0337
1 5 -25 -9.6872 5.8406
1 5 -22 23.0579 -3.7465
1 5 -19 20.7708 0.3891
1 5 -16 49.5643 3.0502
1 5 -13 76.8009 -6.1134
1 5 -10 -60.5577 7.3921
1 5 -7 -107.9385 -5.4906
1 5 -4 23.2020 1.4860
1 5 -1 57.3130 3.4049
1 5 2 1.5032 -7.8888
1 5 5 101.8289 8.2648
1 5 8 98.2169 -5.3692
1 5 11 -51.9794 0.5952
1 5 14 -11.5392 3.8942
1 5 17 10.5970 -6.2672
1 5 20 -24.3702 6.0696
1 5 23 -13.4194 -4.3029
1 5 26 12.4679 0.7086
1 5 29 10.5203 3.2733
1 5 32 1.3988 -5.4900
1 5 35 -0.3642 3.6538
1 5 38 2.9348 0.3465
1 5 41 2.5473 -2.2873
1 5 44 1.6961 -5.3907
1 6 -41 -1.0609 0.2079
1 6 -38 5.3273 -0.8202
1 6 -35 0.1751 1.1242
1 6 -32 7.3401 0.3662
1 6 -29 12.1179 -2.5431
1 6 -26 3.6082 4.2026
1 6 -23 -5.9770 -4.1992
1 6 -20 -9.1583 1.8841
1 6 -17 -19.2183 0.7420
1 6 -14 -15.8000 -4.0647
1 6 -11 61.6105 5.5804
1 6 -8 50.0586 -5.6152
1 6 -5 -19.1853 3.8798
1 6 -2 -42.9558 -0.5510
1 6 1 -18.3855 -3.7500
1 6 4 -57.7920 6.1692
1 6 7 -15.3231 -6.3410
1 6 10 9.7076 4.0423
1 6 13 -47.7955 -0.7604
1 6 16 -3.2561 -1.5663
1 6 19 13.0564 3.3937
1 6 22 -13.2013 -4.8184
1 6 25 -13.0784 4.2610
1 6 28 -5.7455 -1.8173
1 6 31 -2.8630 -1.2824
1 6 34 -3.1505 3.7976
1 6 37 3.8227 -2.3464
1 6 40 6.0922 -0.8778
1 6 43 2.9247 0.4626
1 7 -42 -5.5458 0.8439
1 7 -39 -1.5789 -0.1529
1 7 -36 -1.5886 1.9303
1 7 -33 0.6083 -5.0003
1 7 -30 1.1942 3.6846
1 7 -27 -0.5295 -0.3358
1 7 -24 -3.9834 -2.5169
1 7 -21 1.2569 5.5542
1 7 -18 2.6829 -6.3411
1 7 -15 -11.7991 4.6174
1 7 -12 -18.6664 -2.2013
1 7 -9 8.4303 -1.5070
1 7 -6 -17.4405 6.0139
1 7 -3 0.6270 -8.2106
1 7 0 -1.7396 7.3613
1 7 3 -33.7197 -3.5112
1 7 6 -59.0994 -2.2164
1 7 9 28.8534 5.8869
1 7 12 68.0660 -6.6190
1 7 15 3.5166 5.8154
1 7 18 12.0085 -3.1253
1 7 21 13.3864 -0.1086
1 7 24 -18.3338 3.1799
1 7 27 -10.3460 -5.2066
1 7 30 7.2930 4.5129
1 7 33 6.4711 -1.1647
1 7 36 1.4174 -2.6170
1 7 39 9.2484 1.4609
1 7 42 5.7375 4.4817
1 8 -40 -3.9327 0.1191
1 8 -37 6.8431 -1.1803
1 8 -34 -0.3685 -0.2376
1 8 -31 -1.8128 4.2935
1 8 -28 8.2017 -5.8024
1 8 -25 6.3460 4.7032
1 8 -22 2.6761 -1.7152
1 8 -19 -2.3848 -2.0257
1 8 -16 12.3010 5.7390
1 8 -13 -0.5171 -7.7185
1 8 -10 -19.7829 7.0479
1 8 -7 26.9632 -3.5939
1 8 -4 -3.6410 -1.6149
1 8 -1 -8.3911 6.4486
1 8 2 29.9919 -9.4285
1 8 5 26.6185 7.7735
1 8 8 -46.1854 -3.5445
1 8 11 -34.6020 -1.6205
1 8 14 13.9016 4.6561
1 8 17 -9.5796 -6.0767
1 8 20 -1.2427 5.9472
1 8 23 17.6834 -4.0613
1 8 26 1.4450 -0.1826
1 8 29 -4.6219 3.2751
1 8 32 3.2683 -4.7972
1 8 35 -1.2930 2.1834
1 8 38 -3.5682 -0.1222
1 8 41 4.0290 1.9152
1 9 -41 4.8572 3.5674
1 9 -38 -3.0561 0.3095
1 9 -35 2.3042 1.7534
1 9 -32 3.4004 -2.1956
1 9 -29 -3.0373 -1.3876
1 9 -26 -0.0393 3.6591
1 9 -23 3.0552 -3.6570
1 9 -20 3.5157 2.4116
1 9 -17 -12.7922 -0.5284
1 9 -14 0.0748 -1.9196
1 9 -11 3.1294 3.7815
1 9 -8 -20.4336 -5.0629
1 9 -5 14.2369 4.5110
1 9 -2 3.8617 -1.9181
1 9 1 -31.0214 -2.0702
1 9 4 -10.7908 5.1517
1 9 7 24.8799 -6.3553
1 9 10 10.5245 4.3300
1 9 13 4.5619 -0.5005
1 9 16 16.5040 -1.7159
1 9 19 -4.6113 3.8999
1 9 22 1.6873 -4.3995
1 9 25 12.0912 2.7678
1 9 28 -5.6305 -1.1832
1 9 31 -17.5192 -1.2388
1 9 34 -7.3942 2.9714
1 9 37 2.0563 -1.6717
1 9 40 7.0975 -2.8310
1 10 -39 1.7823 -3.4932
1 10 -36 -2.6438 1.6200
1 10 -33 -5.2583 -4.1077
1 10 -30 -11.0620 3.9751
1 10 -27 1.3488 -0.4729
1 10 -24 3.6361 -4.2548
1 10 -21 -6.1023 7.3633
1 10 -18 0.7199 -7.4022
1 10 -15 -5.0607 4.4692
1 10 -12 6.2491 -0.8256
1 10 -9 3.1980 -3.4117
1 10 -6 -10.5453 7.6976
1 10 -3 10.6135 -9.1212
1 10 0 17.1601 7.5346
1 10 3 -1.3064 -2.5949
1 10 6 -0.1168 -3.3805
1 10 9 -8.9141 6.9559
1 10 12 -19.8762 -7.8272
1 10 15 1.0549 5.9869
1 10 18 24.2094 -2.3229
1 10 21 -0.8449 -0.6143
1 10 24 -7.1702 3.3763
1 10 27 4.7638 -4.3096
1 10 30 0.0495 4.1350
1 10 33 -1.0278 -0.2929
1 10 36 -3.7517 -1.2291
1 10 39 -18.3978 -4.4044
1 11 -37 2.0226 1.6308
1 11 -34 -8.7473 1.1357
1 11 -31 3.0729 1.7252
1 11 -28 2.1642 -4.1813
1 11 -25 0.0006 5.3298
1 11 -22 7.9005 -3.0779
1 11 -19 2.9756 -1.5702
1 11 -16 -0.8161 4.8255
1 11 -13 -16.6307 -5.8034
1 11 -10 4.9676 5.3254
1 11 -7 3.4957 -3.2898
1 11 -4 -14.4959 -0.6248
1 11 -1 11.5599 4.6293
1 11 2 20.3800 -7.1323
1 11 5 -7.1726 6.8072
1 11 8 5.9466 -3.3628
1 11 11 11.6195 -1.3260
1 11 14 -6.3335 5.1600
1 11 17 -9.1283 -5.8775
1 11 20 16.2149 4.4142
1 11 23 14.6679 -2.0263
1 11 26 1.8331 -1.4790
1 11 29 -1.8349 3.1781
1 11 32 -5.7804 -3.7740
1 11 35 -1.2271 0.9644
1 11 38 7.7082 0.3751
1 12 -35 19.6205 -1.9186
1 12 -32 11.8119 -0.0932
1 12 -29 -2.9643 -1.9476
1 12 -26 -2.3365 3.2005
1 12 -23 1.6386 -4.4685
1 12 -20 6.0198 3.3623
1 12 -17 7.8182 0.7486
1 12 -14 14.0273 -5.2418
1 12 -11 -7.2400 6.6364
1 12 -8 -3.3490 -5.5461
1 12 -5 -3.3894 3.0141
1 12 -2 -24.5264 -0.0218
1 12 1 -7.6213 -3.2645
1 12 4 11.2762 5.7310
1 12 7 3.7865 -6.5331
1 12 10 10.1084 4.4672
1 12 13 4.4585 -1.3506
1 12 16 -11.7432 -2.1374
1 12 19 -11.2390 5.2375
1 12 22 1.0985 -4.7328
1 12 25 -0.4044 3.2335
1 12 28 1.4311 -0.4572
1 12 31 8.8915 -1.4839
1 12 34 -0.2655 2.1404
1 12 37 -6.4023 4.8412
1 13 -36 -9.5993 6.5150
1 13 -33 -1.9191 -1.5736
1 13 -30 12.9760 2.7083
1 13 -27 12.0677 -1.6184
1 13 -24 7.6710 -1.3914
1 13 -21 -0.5767 5.1716
1 13 -18 -7.0667 -7.0630
1 13 -15 -13.0541 5.4643
1 13 -12 -4.1250 -1.3915
1 13 -9 -3.4769 -2.9056
1 13 -6 8.8529 5.5840
1 13 -3 9.5251 -6.7006
1 13 0 -14.4367 5.5388
1 13 3 -1.3690 -2.9914
1 13 6 9.3752 -0.9884
1 13 9 0.3167 5.1148
1 13 12 3.0387 -7.3076
1 13 15 8.5477 5.8449
1 13 18 -6.7196 -3.4296
1 13 21 -3.3502 -0.9541
1 13 24 2.0629 4.1713
1 13 27 5.2926 -4.5257
1 13 30 -1.1287 1.2654
1 13 33 -3.2771 1.2550
1 13 36 -3.0378 1.3674
1 14 -34 1.0096 -3.4506
1 14 -31 6.2020 1.0372
1 14 -28 7.1836 -2.8273
1 14 -25 -7.2394 3.2787
1 14 -22 1.0600 -1.8212
1 14 -19 2.0312 -2.0027
1 14 -16 3.8004 5.3536
1 14 -13 8.7551 -5.9937
1 14 -10 6.9573 3.9972
1 14 -7 -7.2355 -0.0448
1 14 -4 -0.1658 -3.7957
1 14 -1 12.4041 5.5601
1 14 2 -9.6116 -5.2996
1 14 5 -12.5043 4.7265
1 14 8 -2.0891 -2.1125
1 14 11 -1.3274 -1.5066
1 14 14 -6.3187 5.1030
1 14 17 1.1750 -5.8602
1 14 20 -7.1320 4.8279
1 14 23 7.2474 -0.6032
1 14 26 3.2455 -3.6324
1 14 29 3.4664 1.6846
1 14 32 2.2644 1.0115
1 15 -32 -12.8196 2.8806
1 15 -29 -14.4813 0.0431
1 15 -26 -0.2589 0.8649
1 15 -23 -4.1860 -3.7293
1 15 -20 -0.4337 3.2096
1 15 -17 5.3645 -0.7334
1 15 -14 -2.6380 -2.8044
1 15 -11 -12.5370 4.9532
1 15 -8 -3.5371 -5.3409
1 15 -5 -4.8458 3.4267
1 15 -2 -7.9048 -0.3524
1 15 1 -0.5436 -2.2385
1 15 4 -1.5385 4.3523
1 15 7 0.9316 -4.9422
1 15 10 2.9100 4.2808
1 15 13 2.0160 -2.4541
1 15 16 -0.3661 -1.0779
1 15 19 6.7915 3.8426
1 15 22 -2.2393 -3.8660
1 15 25 8.9501 1.5948
1 15 28 7.9679 1.2551
1 15 31 -0.0659 3.4692
1 16 -30 2.1440 -0.5746
1 16 -27 7.8431 -1.5879
1 16 -24 7.8666 -1.1895
1 16 -21 1.9329 3.8029
1 16 -18 -8.3703 -4.8839
1 16 -15 -4.8684 4.6682
1 16 -12 9.9664 -0.9423
1 16 -9 4.4276 -2.3900
1 16 -6 5.5238 6.2621
1 16 -3 -3.7558 -8.0375
1 16 0 -4.9117 4.6847
1 16 3 6.0070 0.1358
1 16 6 0.2262 -2.7997
1 16 9 -4.8918 4.8730
1 16 12 1.4832 -5.8225
1 16 15 5.8888 4.6908
1 16 18 -5.1285 -1.0270
1 16 21 -1.6769 -2.2299
1 16 24 8.1957 2.2176
1 16 27 5.2374 -2.2118
1 16 30 2.4686 -1.6114
1 17 -28 -4.5213 3.1727
1 17 -25 -5.5036 0.8633
1 17 -22 -5.3128 -2.1142
1 17 -19 2.6881 1.0255
1 17 -16 7.4853 2.0431
1 17 -13 3.4191 -4.5249
1 17 -10 11.1561 4.6166
1 17 -7 -0.4279 -1.6502
1 17 -4 0.2085 -1.4032
1 17 -1 -1.1990 4.6070
1 17 2 -0.2837 -5.9987
1 17 5 7.3367 4.4907
1 17 8 -1.0007 -1.6150
1 17 11 -6.1284 -1.7072
1 17 14 -1.7046 2.6424
1 17 17 1.3423 -3.2732
1 17 20 -2.2931 1.9814
1 17 23 -7.8110 -0.6932
1 17 26 -3.5947 4.7893
1 18 -23 5.9915 1.0266
1 18 -20 6.4046 1.7973
1 18 -17 -5.7616 -1.2385
1 18 -14 0.7058 -0.5110
1 18 -11 6.0390 2.9844
1 18 -8 7.5364 -4.1626
1 18 -5 -0.4221 4.3893
1 18 -2 3.9542 -2.4360
1 18 1 -5.9889 -2.8232
1 18 4 -11.0303 5.0471
1 18 7 3.4118 -4.8020
1 18 10 6.7205 1.7843
1 18 13 -2.8284 0.7590
1 18 16 3.4550 0.1283
1 18 19 1.2904 0.5768
1 18 22 -8.4271 -3.2265
1 18 25 -2.5484 -1.2544
1 19 -21 -12.6895 -4.7360
1 19 -18 -3.9142 -1.4347
1 19 -15 -0.3047 2.9595
1 19 -12 -6.8691 -1.4541
1 19 -9 -6.4037 -0.0424
1 19 -6 2.5750 2.8812
1 19 -3 3.3609 -5.7145
1 19 0 8.4561 3.4973
1 19 3 -3.3018 -0.1964
1 19 6 -5.1922 -1.7284
1 19 9 2.3525 2.8471
1 19 12 3.4065 -3.1788
1 19 15 -8.1182 3.9530
1 19 18 -1.9670 -1.3371
1 19 21 10.5662 1.4987
1 20 -16 -2.4217 -3.5668
1 20 -13 2.0777 -2.1501
1 20 -10 7.1596 2.5225
1 20 -7 4.7519 -3.0690
1 20 -4 -1.3570 1.1083
1 20 -1 -6.6612 1.8114
1 20 2 4.8790 -4.2233
1 20 5 6.1894 5.2571
1 20 8 -1.5441 -3.2335
1 20 11 -3.9996 -0.8723
1 20 14 -4.9294 1.4513
1 20 17 -3.3234 1.8267
1 21 -11 -1.5266 -3.0269
1 21 -8 7.9263 3.8414
1 21 -5 10.6464 1.9808
1 21 -2 0.4370 0.0723
1 21 1 -3.0436 -2.9969
1 21 4 -4.3881 1.1043
1 21 7 4.7613 1.8927
1 21 10 4.3783 -1.8690
2 1 -44 3.3681 -1.3449
2 1 -41 0.6570 -0.9011
2 1 -38 4.0121 3.8348
2 1 -35 -4.2864 -3.7756
2 1 -32 -9.4020 2.0009
2 1 -29 -4.6570 0.8399
2 1 -26 0.1537 -3.5117
2 1 -23 21.3929 4.3900
2 1 -20 68.3714 -5.9038
2 1 -17 69.5451 3.5542
2 1 -14 -33.7317 0.4879
2 1 -11 -89.6888 -3.8740
2 1 -8 -64.3741 7.1587
2 1 -5 -172.2566 -7.4221
2 1 -2 23.1611 3.2461
2 1 1 66.2106 -0.1449
2 1 4 51.2821 -3.7587
2 1 7 -87.9840 7.0502
2 1 10 -14.0708 -5.1027
2 1 13 -59.0544 3.0611
2 1 16 -56.3061 -0.7449
2 1 19 -8.3905 -3.2198
2 1 22 17.9450 4.1710
2 1 25 17.6243 -3.7188
2 1 28 7.3889 2.8311
2 1 31 3.2712 -0.4773
2 1 34 -6.2764 -2.1341
2 1 37 -4.9064 2.7468
2 1 40 5.3995 -1.9964
2 1 43 2.5463 1.6917
2 2 -45 -8.3152 -3.4520
2 2 -42 -3.6184 -0.0831
2 2 -39 5.8884 1.4281
2 2 -36 -0.4220 -0.5008
2 2 -33 -1.1416 -2.1072
2 2 -30 2.1787 3.3510
2 2 -27 5.1769 -3.2444
2 2 -24 10.3096 1.1452
2 2 -21 11.1361 1.4932
2 2 -18 -30.3645 -3.6193
2 2 -15 -29.8541 4.5064
2 2 -12 8.6142 -2.4735
2 2 -9 -11.1312 0.0487
2 2 -6 30.6148 1.4156
2 2 -3 28.9165 -3.3199
2 2 0 65.9380 3.5206
2 2 3 35.1750 -3.2722
2 2 6 180.7752 2.9184
2 2 9 93.6618 1.1023
2 2 12 -8.2038 -4.3139
2 2 15 -50.1819 3.5656
2 2 18 -27.9755 -2.4717
2 2 21 -16.7153 1.2915
2 2 24 -5.2301 0.9287
2 2 27 15.2969 -1.8738
2 2 30 11.2993 1.9433
2 2 33 5.4573 -1.8355
2 2 36 3.0707 -0.2651
2 2 39 -7.9376 0.9546
2 2 42 -4.5062 0.1181
2 2 45 1.9758 -2.6814
2 3 -43 3.5035 5.9298
2 3 -40 -4.4396 -4.2210
2 3 -37 12.9951 -2.0297
2 3 -34 14.4824 5.9132
2 3 -31 -8.2378 -6.7968
2 3 -28 -24.0237 5.4536
2 3 -25 -37.8806 -1.8634
2 3 -22 -27.0654 -2.5149
2 3 -19 31.7381 6.7159
2 3 -16 100.8640 -9.1962
2 3 -13 69.3167 9.1611
2 3 -10 -42.8030 -5.2089
2 3 -7 -105.1982 -1.7424
2 3 -4 -91.7081 8.4657
2 3 -1 -49.7133 -12.2535
2 3 2 66.8487 11.4553
2 3 5 0.8614 -6.9114
2 3 8 -50.6450 0.1356
2 3 11 -55.9692 6.8088
2 3 14 -29.4267 -10.8234
2 3 17 -23.5925 10.7356
2 3 20 -10.2609 -6.5593
2 3 23 3.0938 1.3572
2 3 26 8.8732 4.1776
2 3 29 9.1251 -6.6850
2 3 32 8.6584 6.0750
2 3 35 0.4389 -4.1929
2 3 38 0.7464 2.3771
2 3 41 8.0565 0.8617
2 3 44 7.4574 -8.5002
2 4 -44 -0.9195 -7.3486
2 4 -41 -2.0765 -2.4952
2 4 -38 -6.3196 2.5756
2 4 -35 -6.4523 -1.4403
2 4 -32 7.1829 -0.2441
2 4 -29 7.8749 0.1542
2 4 -26 17.6487 -0.1936
2 4 -23 8.2800 0.7008
2 4 -20 -14.9123 -1.9640
2 4 -17 -90.2902 2.0797
2 4 -14 -95.1322 -0.8115
2 4 -11 24.0856 -1.0414
2 4 -8 35.1469 2.3275
2 4 -5 21.7950 -2.4577
2 4 -2 37.8959 0.8860
2 4 1 -40.4555 -0.3943
2 4 4 -70.2765 -0.0266
2 4 7 27.4208 1.3894
2 4 10 100.7518 -1.3640
2 4 13 54.0572 0.8875
2 4 16 26.8306 -0.1405
2 4 19 25.7591 -0.6144
2 4 22 6.2800 0.6133
2 4 25 -14.1893 -0.2042
2 4 28 -9.2093 -0.5606
2 4 31 -6.0023 0.1520
2 4 34 -5.5437 0.7837
2 4 37 -4.0230 -0.1983
2 4 40 -1.2408 -1.9159
2 4 43 -2.0100 1.5447
2 5 -42 6.3812 1.2668
2 5 -39 1.8627 2.1262
2 5 -36 4.7194 -3.2207
2 5 -33 0.6372 0.9099
2 5 -30 -1.0063 2.1814
2 5 -27 -4.0752 -3.7006
2 5 -24 -8.5825 3.3392
2 5 -21 -17.5740 -3.0584
2 5 -18 14.1880 2.2332
2 5 -15 27.6485 0.4431
2 5 -12 -0.3181 -3.2052
2 5 -9 39.4686 5.8177
2 5 -6 15.3872 -6.6815
2 5 -3 -30.6714 4.1573
2 5 0 -27.6556 0.0513
2 5 3 -5.2941 -3.0222
2 5 6 -14.7960 5.4672
2 5 9 3.6798 -5.9727
2 5 12 27.4073 5.1113
2 5 15 -4.1224 -2.9584
2 5 18 -18.2135 -1.1886
2 5 21 -12.8303 4.4935
2 5 24 -3.7092 -4.6859
2 5 27 5.9603 3.4567
2 5 30 6.2295 -0.8427
2 5 33 4.8676 0.5110
2 5 36 2.2668 -0.4803
2 5 39 -8.2960 -1.2969
2 5 42 -6.9272 3.8951
2 6 -43 -2.4032 2.5683
2 6 -40 -4.8866 -3.1490
2 6 -37 -1.4677 -0.9236
2 6 -34 -3.8971 4.4206
2 6 -31 2.2642 -5.1700
2 6 -28 1.2021 4.2523
2 6 -25 -0.3346 -2.1001
2 6 -22 -4.3990 -0.8215
2 6 -19 0.7156 4.5742
2 6 -16 -0.2119 -8.1303
2 6 -13 -32.3007 8.5239
2 6 -10 -44.3333 -5.1989
2 6 -7 13.7448 -0.9882
2 6 -4 3.1500 6.3075
2 6 -1 29.1072 -8.7030
2 6 2 54.2903 8.5566
2 6 5 9.7716 -5.6763
2 6 8 -46.6900 1.1638
2 6 11 -8.6784 4.2690
2 6 14 33.9095 -7.8507
2 6 17 8.7878 8.0460
2 6 20 11.7953 -4.8744
2 6 23 18.3711 -0.3346
2 6 26 1.3528 3.8111
2 6 29 -3.0756 -3.6596
2 6 32 -1.6724 2.9341
2 6 35 -0.0289 -2.0404
2 6 38 -4.4455 1.4181
2 6 41 -14.9447 -0.0097
2 7 -41 11.5223 -1.5744
2 7 -38 -2.4385 2.2932
2 7 -35 6.7872 -0.1402
2 7 -32 -0.6137 -1.5656
2 7 -29 -7.8880 0.8259
2 7 -26 0.7788 -1.3668
2 7 -23 7.1795 1.8696
2 7 -20 -14.1732 -1.6855
2 7 -17 -10.7846 0.2521
2 7 -14 30.2840 2.0116
2 7 -11 19.5729 -3.8553
2 7 -8 -14.6654 3.2598
2 7 -5 37.5941 -1.2402
2 7 -2 -10.0291 -0.5393
2 7 1 -34.0448 2.0070
2 7 4 24.7812 -2.7674
2 7 7 46.1215 2.8184
2 7 10 -6.9452 -2.4557
2 7 13 -27.9481 0.8488
2 7 16 -0.3642 1.4007
2 7 19 -7.6416 -3.5471
2 7 22 -5.1831 3.0022
2 7 25 5.1282 -0.6451
2 7 28 -3.8650 -0.6980
2 7 31 -10.0788 0.5719
2 7 34 -3.0184 -0.0555
2 7 37 0.3242 1.1833
2 7 40 -0.7756 -2.2080
2 8 -39 1.4620 3.1525
2 8 -36 -7.1826 -5.8122
2 8 -33 0.5000 3.5097
2 8 -30 5.8541 1.3601
2 8 -27 -3.5767 -3.1153
2 8 -24 -0.8483 4.1833
2 8 -21 15.9444 -5.5782
2 8 -18 9.5963 4.9681
2 8 -15 -16.3079 -1.5705
2 8 -12 -15.5080 -2.8155
2 8 -9 -13.8198 6.7547
2 8 -6 -31.5287 -8.2731
2 8 -3 37.2384 6.2567
2 8 0 38.4002 -2.0048
2 8 3 -6.0490 -2.0772
2 8 6 -12.3224 5.3915
2 8 9 -13.9094 -6.6261
2 8 12 -15.1119 6.3420
2 8 15 -10.0822 -4.1301
2 8 18 6.7760 -0.4711
2 8 21 -0.9616 4.3083
2 8 24 -2.8827 -5.2217
2 8 27 6.8136 4.0846
2 8 30 15.2367 -1.6884
2 8 33 4.3997 0.3538
2 8 36 -4.5042 0.6595
2 8 39 -4.3650 -1.4044
2 9 -40 3.9698 -5.6060
2 9 -37 -0.9158 0.4423
2 9 -34 -5.1751 3.6725
2 9 -31 2.3199 -4.7525
2 9 -28 -1.5210 2.4393
2 9 -25 -4.9788 -1.0888
2 9 -22 -3.9413 -0.1204
2 9 -19 -2.0937 3.5963
2 9 -16 3.9003 -6.3298
2 9 -13 11.0549 6.6939
2 9 -10 25.7324 -3.6072
2 9 -7 0.4470 -1.5247
2 9 -4 -39.8196 5.4503
2 9 -1 -6.1550 -6.7978
2 9 2 3.9228 5.9506
2 9 5 -7.3729 -3.1957
2 9 8 14.7098 -0.1339
2 9 11 12.7238 3.2262
2 9 14 -8.8680 -5.5418
2 9 17 -14.7494 6.0333
2 9 20 2.7850 -3.5839
2 9 23 -4.0990 -0.2548
2 9 26 -8.1578 3.2083
2 9 29 -1.5910 -3.5451
2 9 32 2.3989 1.8573
2 9 35 6.5611 -1.7334
2 9 38 12.4767 1.1503
2 10 -38 7.5903 4.4864
2 10 -35 11.2574 -2.6302
2 10 -32 -0.7576 -1.5519
2 10 -29 4.6963 4.2984
2 10 -26 -2.2605 -4.0442
2 10 -23 -10.7520 2.0062
2 10 -20 1.6102 -1.0999
2 10 -17 10.2878 -0.6058
2 10 -14 7.2505 3.8281
2 10 -11 -7.7033 -5.5974
2 10 -8 16.4713 4.7151
2 10 -5 7.7400 -2.0816
2 10 -2 -26.6765 -1.2968
2 10 1 -7.9012 4.3836
2 10 4 6.7570 -5.3722
2 10 7 0.2893 4.1704
2 10 10 14.6654 -2.0879
2 10 13 9.9276 -0.3250
2 10 16 -5.3421 1.8612
2 10 19 -15.1329 -4.5355
2 10 22 -3.0677 4.3063
2 10 25 5.4674 -1.4630
2 10 28 6.9005 -0.4392
2 10 31 12.9387 0.4902
2 10 34 3.5879 -1.8392
2 10 37 -4.7398 3.9495
2 11 -36 -8.8909 -1.9727
2 11 -33 2.8143 4.4561
2 11 -30 4.9696 -1.0118
2 11 -27 4.3167 -3.2231
2 11 -24 8.8853 4.7754
2 11 -21 -2.4050 -4.3633
2 11 -18 -14.4276 2.8884
2 11 -15 -9.7666 -1.0350
2 11 -12 3.2887 -1.5066
2 11 -9 -9.6911 5.1978
2 11 -6 12.6888 -6.9288
2 11 -3 15.8143 5.6569
2 11 0 -10.5672 -2.0550
2 11 3 -2.5070 -2.0563
2 11 6 -2.5103 5.5041
2 11 9 -26.1338 -6.2718
2 11 12 -5.2294 4.9082
2 11 15 12.3408 -1.9212
2 11 18 7.5255 -0.2549
2 11 21 -3.7224 2.9713
2 11 24 -4.4964 -4.0555
2 11 27 -0.8358 3.4924
2 11 30 -4.5336 -1.9574
2 11 33 2.1844 1.2237
2 11 36 1.5716 0.6891
2 12 -34 -7.4536 1.7900
2 12 -31 -17.4342 -5.3698
2 12 -28 -10.7298 4.4652
2 12 -25 -3.2117 -1.0866
2 12 -22 2.7815 -2.1490
2 12 -19 5.0865 4.7252
2 12 -16 1.3417 -5.3271
2 12 -13 -3.8122 5.0623
2 12 -10 5.1435 -3.1311
2 12 -7 -5.8626 -0.4923
2 12 -4 9.6806 4.9020
2 12 -1 20.1995 -7.2142
2 12 2 -7.8670 6.8361
2 12 5 -9.9777 -3.0459
2 12 8 1.8496 -1.6927
2 12 11 -3.6662 4.8529
2 12 14 2.3662 -6.0368
2 12 17 7.1114 4.4032
2 12 20 0.4734 -1.9332
2 12 23 -3.5580 0.0628
2 12 26 -3.3294 1.6677
2 12 29 -0.8179 -1.5253
2 12 32 1.6052 3.1034
2 12 35 11.9737 -5.3489
2 13 -35 -1.0836 -4.5692
2 13 -32 -3.9817 1.4930
2 13 -29 -7.0628 4.3535
2 13 -26 -6.3151 -3.5432
2 13 -23 -15.6558 1.9416
2 13 -20 -5.5873 -0.1209
2 13 -17 5.0844 -2.1579
2 13 -14 4.9351 2.7154
2 13 -11 0.9009 -3.1056
2 13 -8 0.6762 3.0984
2 13 -5 -15.0685 -1.9285
2 13 -2 -10.5047 -0.7864
2 13 1 10.6354 4.0145
2 13 4 3.7419 -5.9717
2 13 7 2.4542 4.4670
2 13 10 -2.8321 -1.3485
2 13 13 -9.4971 -1.1460
2 13 16 -3.9215 2.9024
2 13 19 8.4138 -3.4847
2 13 22 2.0465 1.1336
2 13 25 2.1488 -1.4440
2 13 28 -1.0116 1.7613
2 13 31 -3.4253 -2.3649
2 13 34 5.6392 -8.8213
2 14 -33 2.5033 3.3134
2 14 -30 3.5469 -3.5206
2 14 -27 -3.1620 -1.7153
2 14 -24 9.5722 5.3077
2 14 -21 2.7645 -5.2202
2 14 -18 -7.1177 2.8547
2 14 -15 -7.2198 -0.5900
2 14 -12 -3.4829 -1.9608
2 14 -9 5.4517 3.7907
2 14 -6 12.8351 -5.6188
2 14 -3 3.7881 5.8074
2 14 0 2.6340 -2.8712
2 14 3 5.5276 -1.6768
2 14 6 -5.2253 5.1394
2 14 9 -2.1971 -6.2561
2 14 12 6.4459 4.5649
2 14 15 5.7456 -1.4779
2 14 18 -2.8466 -1.1514
2 14 21 -0.3655 1.2131
2 14 24 -18.7035 -1.2956
2 14 27 -9.3868 3.4945
2 14 30 6.5848 -4.0318
2 14 33 -1.9648 1.3481
2 15 -31 4.3806 -1.1699
2 15 -28 2.8360 3.5814
2 15 -25 -1.5655 -1.8965
2 15 -22 -2.2300 -0.7809
2 15 -19 4.7892 4.4101
2 15 -16 10.3123 -4.6130
2 15 -13 1.4406 2.4924
2 15 -10 -4.6636 -0.7741
2 15 -7 -6.6634 -1.6980
2 15 -4 0.2934 3.6291
2 15 -1 -2.4558 -5.3179
2 15 2 2.9279 4.9322
2 15 5 6.4032 -2.3927
2 15 8 6.2642 -1.8264
2 15 11 0.7101 4.6913
2 15 14 -6.6322 -4.2231
2 15 17 -2.6167 2.3751
2 15 20 6.5136 -2.2700
2 15 23 11.1457 0.1959
2 15 26 -5.6321 0.7782
2 15 29 -3.9425 -3.7744
2 16 -29 -1.2103 1.0557
2 16 -26 -9.9877 -0.3884
2 16 -23 3.7502 4.2171
2 16 -20 5.1133 -3.0508
2 16 -17 -1.7104 -2.3809
2 16 -14 0.6905 3.9954
2 16 -11 -7.0392 -3.8892
2 16 -8 0.5564 2.3364
2 16 -5 6.1088 -1.1976
2 16 -2 7.7405 -0.1494
2 16 1 -2.8555 2.2545
2 16 4 -4.7211 -4.0597
2 16 7 0.2936 4.2394
2 16 10 0.3574 -2.2657
2 16 13 -2.1917 0.7009
2 16 16 -1.7537 1.0249
2 16 19 -9.6314 -1.7673
2 16 22 -8.3623 3.6509
2 16 25 -11.5499 -2.7162
2 16 28 -13.6429 0.4552
2 17 -24 -3.8335 -2.6930
2 17 -21 -6.8074 -3.1973
2 17 -18 -4.6702 4.7402
2 17 -15 -2.5331 -2.3092
2 17 -12 0.7757 -3.0371
2 17 -9 -5.3703 3.9839
2 17 -6 -2.1537 -4.2078
2 17 -3 -0.1460 2.8239
2 17 0 0.7026 -0.1933
2 17 3 0.8675 -1.6300
2 17 6 -9.1892 1.8817
2 17 9 -7.1319 -3.0005
2 17 12 3.2450 3.4958
2 17 15 -0.9555 -3.0029
2 17 18 0.8578 0.5709
2 17 21 5.4610 0.8754
2 17 24 17.5821 -5.5901
2 18 -22 4.0691 5.0186
2 18 -19 -0.5613 -0.6458
2 18 -16 -1.6111 -3.1426
2 18 -13 2.0036 4.2163
2 18 -10 -1.8204 -1.3635
2 18 -7 -2.4769 -2.3399
2 18 -4 -1.8674 3.6058
2 18 -1 -1.1106 -2.6169
2 18 2 5.4580 1.2996
2 18 5 11.3680 -2.1613
2 18 8 -0.4442 0.8097
2 18 11 -4.6085 1.1587
2 18 14 7.0487 -2.6316
2 18 17 9.3288 2.7726
2 18 20 1.9998 -1.0473
2 18 23 -2.6860 0.9101
2 19 -17 0.3923 4.8317
2 19 -14 -8.5675 -1.2785
2 19 -11 0.1764 -3.0749
2 19 -8 0.0660 4.3481
2 19 -5 -0.2677 -2.1064
2 19 -2 1.4670 -0.3513
2 19 1 -2.7458 3.8696
2 19 4 1.4702 -2.4553
2 19 7 6.4850 2.3640
2 19 10 -4.0928 -1.3105
2 19 13 -1.0385 -0.4148
2 19 16 4.0690 -1.4692
2 19 19 -2.8637 -4.2200
2 20 -12 -3.0684 4.2242
2 20 -9 -13.8698 -1.0901
2 20 -6 -15.2668 -0.7757
2 20 -3 2.8405 1.6403
2 20 0 9.4102 0.2816
2 20 3 -1.0325 -1.3809
2 20 6 -6.4697 -2.7889
2 20 9 7.4458 -1.2781
2 20 12 5.8271 7.4126
2 21 -4 -11.5257 -0.5974
2 21 -1 -3.0453 -5.3704
2 21 2 -1.2452 8.2838
3 1 -43 -5.1242 3.9067
3 1 -40 1.2000 -4.3787
3 1 -37 4.5399 2.2433
3 1 -34 -1.4909 0.2553
3 1 -31 -5.7004 -2.4840
3 1 -28 -0.7985 4.9237
3 1 -25 -11.0987 -6.4345
3 1 -22 -27.3663 5.3096
3 1 -19 -17.0606 -2.1658
3 1 -16 6.7036 -2.4894
3 1 -13 18.0828 6.7349
3 1 -10 21.1961 -8.9200
3 1 -7 98.2408 8.3993
3 1 -4 222.7454 -4.3009
3 1 -1 -41.8854 -1.8085
3 1 2 -79.8250 6.0918
3 1 5 -53.1110 -8.6852
3 1 8 -25.7659 9.5660
3 1 11 28.8143 -6.6393
3 1 14 112.4944 2.0768
3 1 17 47.8062 3.6327
3 1 20 -8.3496 -7.7243
3 1 23 0.9748 7.7213
3 1 26 -14.0380 -5.2025
3 1 29 -19.2599 2.1520
3 1 32 -8.3997 1.9164
3 1 35 1.2610 -2.8862
3 1 38 -1.9925 3.8702
3 1 41 -0.0682 -5.0148
3 1 44 7.9113 -1.9703
3 2 -44 -0.6883 -5.9906
3 2 -41 1.8753 0.8612
3 2 -38 -8.6980 -1.2830
3 2 -35 2.7564 2.0560
3 2 -32 4.4773 -0.5398
3 2 -29 -2.6098 -3.6631
3 2 -26 15.9476 5.6538
3 2 -23 36.4830 -5.8495
3 2 -20 5.7458 3.5315
3 2 -17 -24.7060 1.1364
3 2 -14 27.9991 -5.3529
3 2 -11 -2.9980 7.1870
3 2 -8 -92.5931 -7.3093
3 2 -5 -19.3484 4.9421
3 2 -2 33.1057 -0.0616
3 2 1 -205.8952 -4.6020
3 2 4 -93.2665 7.4929
3 2 7 42.9921 -8.2383
3 2 10 -37.8151 5.2526
3 2 13 -40.8728 -0.5349
3 2 16 39.7113 -3.3685
3 2 19 10.1821 5.1915
3 2 22 -17.3099 -5.4075
3 2 25 12.8262 3.4932
3 2 28 6.7812 -1.2499
3 2 31 -8.0531 -1.2241
3 2 34 -4.8787 3.1389
3 2 37 -1.4507 -2.9098
3 2 40 -4.3833 -0.5615
3 2 43 -5.2495 1.6097
3 3 -42 -2.6733 3.4483
3 3 -39 5.5087 3.2911
3 3 -36 -3.9819 -3.9490
3 3 -33 -5.8712 2.0355
3 3 -30 8.5716 0.4253
3 3 -27 4.0729 -1.1876
3 3 -24 -2.6349 1.2301
3 3 -21 -6.8413 -2.2623
3 3 -18 -12.3862 2.2148
3 3 -15 -50.8120 -2.4380
3 3 -12 7.4592 0.2196
3 3 -9 117.4624 2.5528
3 3 -6 49.3055 -3.1720
3 3 -3 46.3755 2.5985
3 3 0 136.2311 -1.0417
3 3 3 -20.0101 -1.1020
3 3 6 -50.7667 0.3597
3 3 9 52.3995 -1.2438
3 3 12 27.3750 1.7538
3 3 15 11.3419 -0.7107
3 3 18 29.7369 -0.2721
3 3 21 -0.5804 0.3492
3 3 24 -22.0629 -1.2062
3 3 27 -10.5043 0.0433
3 3 30 -3.4599 1.0627
3 3 33 -0.2428 -0.4154
3 3 36 4.3773 -1.1779
3 3 39 4.5064 1.5573
3 3 42 -2.1824 2.9095
3 4 -43 -1.5764 1.5583
3 4 -40 -3.6732 -2.9653
3 4 -37 -1.6752 2.0736
3 4 -34 4.2120 -2.7420
3 4 -31 3.8409 3.7668
3 4 -28 0.2061 -3.3710
3 4 -25 -9.9066 -1.0625
3 4 -22 6.7197 6.5676
3 4 -19 25.0448 -8.8258
3 4 -16 44.0342 7.5026
3 4 -13 34.2937 -3.0368
3 4 -10 -14.5102 -2.2813
3 4 -7 -9.2066 6.6253
3 4 -4 -52.1266 -9.1668
3 4 -1 -38.8384 9.3762
3 4 2 9.7920 -6.0627
3 4 5 -66.1400 -0.4582
3 4 8 -71.0399 6.8459
3 4 11 -8.8542 -9.7397
3 4 14 -35.6494 8.1073
3 4 17 -18.5453 -3.8973
3 4 20 19.1037 -0.2775
3 4 23 0.4789 3.0765
3 4 26 -9.8404 -4.7288
3 4 29 5.4448 5.2500
3 4 32 8.2151 -4.2798
3 4 35 5.4678 0.6810
3 4 38 6.2796 3.8417
3 4 41 4.4405 -2.7593
3 4 44 -2.3620 -4.2799
3 5 -41 -2.3425 -0.8280
3 5 -38 -3.1857 1.8777
3 5 -35 -3.1088 1.1150
3 5 -32 -9.9350 -2.1520
3 5 -29 1.4111 0.3540
3 5 -26 16.9908 1.9187
3 5 -23 17.0060 -2.1734
3 5 -20 10.8332 0.7177
3 5 -17 0.7300 0.8163
3 5 -14 -24.2008 -0.7195
3 5 -11 -57.1823 0.5158
3 5 -8 -55.7863 -1.0284
3 5 -5 17.8090 2.3662
3 5 -2 13.2394 -1.5550
3 5 1 60.8659 -0.5435
3 5 4 112.7104 2.6369
3 5 7 7.8370 -2.8116
3 5 10 -67.1825 1.0029
3 5 13 -15.9548 0.1391
3 5 16 -2.8136 -0.3784
3 5 19 0.4160 0.4319
3 5 22 28.8056 -0.6237
3 5 25 21.2696 1.8221
3 5 28 -7.4344 -1.8208
3 5 31 -10.0409 -0.3498
3 5 34 -10.0216 1.9803
3 5 37 -7.6612 -1.0520
3 5 40 8.9098 -1.9430
3 5 43 16.4665 0.7548
3 6 -42 -5.2775 6.2352
3 6 -39 1.0858 -1.1983
3 6 -36 -0.1997 0.0035
3 6 -33 7.5228 -0.2168
3 6 -30 -4.4285 -0.6006
3 6 -27 -10.6604 3.1806
3 6 -24 -5.3651 -4.9210
3 6 -21 9.9933 3.9642
3 6 -18 3.0492 -1.1453
3 6 -15 4.7518 -2.4327
3 6 -12 39.9835 4.4490
3 6 -9 33.4348 -4.6713
3 6 -6 -5.4690 4.9744
3 6 -3 28.3066 -3.7578
3 6 0 -42.8988 -0.1027
3 6 3 -82.5339 3.7438
3 6 6 -10.0653 -7.0011
3 6 9 19.0037 6.3017
3 6 12 3.1586 -2.8150
3 6 15 -5.8154 -0.3939
3 6 18 -18.1960 3.0414
3 6 21 -27.9318 -3.1403
3 6 24 -12.8048 2.4172
3 6 27 3.6449 -3.6961
3 6 30 3.4091 2.3615
3 6 33 4.9180 0.3722
3 6 36 6.5092 -2.9734
3 6 39 9.7522 2.7749
3 6 42 15.1883 2.8255
3 7 -40 -0.7417 -3.7631
3 7 -37 2.3413 1.8879
3 7 -34 -8.7804 -0.8031
3 7 -31 -3.4446 2.5123
3 7 -28 8.3551 -2.3165
3 7 -25 4.1335 -1.0567
3 7 -22 -13.9093 3.9716
3 7 -19 1.0912 -5.3054
3 7 -16 7.7368 4.2031
3 7 -13 -1.1910 -1.3341
3 7 -10 0.6012 -1.0050
3 7 -7 -12.8576 3.2687
3 7 -4 -62.9889 -5.1812
3 7 -1 -13.9490 5.8014
3 7 2 1.6840 -3.9532
3 7 5 0.5051 0.1360
3 7 8 39.0954 4.1702
3 7 11 17.0807 -5.9442
3 7 14 9.3539 4.7114
3 7 17 19.6762 -1.8871
3 7 20 7.9692 -0.2999
3 7 23 -4.2311 1.5704
3 7 26 7.0855 -2.2621
3 7 29 6.9078 3.1906
3 7 32 4.0563 -2.3085
3 7 35 10.4197 0.3583
3 7 38 -1.1133 4.1956
3 7 41 -15.0253 -0.0973
3 8 -41 -4.2291 5.8704
3 8 -38 -3.7849 1.6369
3 8 -35 4.2131 -0.8371
3 8 -32 6.9878 0.2458
3 8 -29 1.4925 -1.9843
3 8 -26 -5.1379 4.4120
3 8 -23 -4.5111 -2.8724
3 8 -20 -7.4745 -0.4014
3 8 -17 -1.3109 2.8202
3 8 -14 -7.4005 -4.0867
3 8 -11 2.0985 3.6606
3 8 -8 30.0008 -2.8238
3 8 -5 36.7743 1.6697
3 8 -2 0.3028 0.7560
3 8 1 10.6608 -4.1242
3 8 4 -10.6964 6.0015
3 8 7 -39.5488 -4.0871
3 8 10 4.1767 0.6098
3 8 13 2.9488 2.4889
3 8 16 -8.4540 -3.1085
3 8 19 1.5932 2.5290
3 8 22 9.2796 -1.4802
3 8 25 -4.5065 1.0363
3 8 28 -4.4734 -0.6010
3 8 31 -5.3029 -0.7254
3 8 34 -8.5417 2.9197
3 8 37 2.3728 -1.2219
3 8 40 9.5524 -3.9846
3 9 -39 -0.6209 -5.0617
3 9 -36 7.7395 -1.0553
3 9 -33 7.5432 0.8923
3 9 -30 -4.2134 -0.8628
3 9 -27 7.9495 1.7063
3 9 -24 19.8333 -3.2579
3 9 -21 5.8326 3.3456
3 9 -18 -0.9844 -0.3801
3 9 -15 8.0503 -2.2941
3 9 -12 -13.9826 3.8722
3 9 -9 -36.5548 -4.1294
3 9 -6 -5.8181 3.5217
3 9 -3 9.4862 -2.0337
3 9 0 -7.0573 -0.4332
3 9 3 25.6959 3.1817
3 9 6 22.4597 -5.5213
3 9 9 -12.2510 5.1052
3 9 12 6.3928 -2.8352
3 9 15 7.1974 -0.8040
3 9 18 3.6093 2.9905
3 9 21 1.6818 -3.4039
3 9 24 3.5805 2.8771
3 9 27 -3.6456 -3.0364
3 9 30 -8.2285 0.8991
3 9 33 -4.9059 1.4669
3 9 36 -0.9359 -4.3153
3 9 39 -4.9728 -2.7359
3 10 -37 -10.5708 5.8358
3 10 -34 -18.1873 -2.4281
3 10 -31 -6.2783 1.8876
3 10 -28 0.4108 -0.9999
3 10 -25 -7.8937 -0.0533
3 10 -22 -3.7464 3.2487
3 10 -19 -3.6830 -6.6017
3 10 -16 -10.8756 5.9787
3 10 -13 0.4189 -3.0325
3 10 -10 15.4160 -1.0829
3 10 -7 -0.0562 4.6864
3 10 -4 14.2597 -6.1731
3 10 -1 14.4700 5.6157
3 10 2 -19.8026 -3.8856
3 10 5 -11.1952 -0.0477
3 10 8 -1.4426 4.0200
3 10 11 -9.9195 -5.6591
3 10 14 7.1797 5.1455
3 10 17 -3.7305 -2.8450
3 10 20 -11.3192 -0.3115
3 10 23 0.4080 1.6744
3 10 26 0.7327 -3.0637
3 10 29 -6.1649 3.1309
3 10 32 -9.8964 -1.1764
3 10 35 -7.5520 -1.6727
3 10 38 -3.2346 3.0143
3 11 -35 10.8031 -4.9421
3 11 -32 11.9515 1.6219
3 11 -29 -3.2096 -0.5808
3 11 -26 -5.0665 0.9015
3 11 -23 1.0918 -2.0561
3 11 -20 5.2095 0.9942
3 11 -17 8.2297 1.5217
3 11 -14 11.7809 -3.3475
3 11 -11 2.9967 3.2770
3 11 -8 -4.6367 -1.8176
3 11 -5 -24.5337 -0.4186
3 11 -2 -7.2341 2.0207
3 11 1 5.1608 -3.0778
3 11 4 -3.8316 3.3804
3 11 7 12.6039 -2.0690
3 11 10 14.1107 0.7906
3 11 13 -10.9890 1.1669
3 11 16 1.0351 -2.3133
3 11 19 12.2515 3.1052
3 11 22 2.1416 -2.6219
3 11 25 -0.5020 1.4385
3 11 28 0.7600 0.7900
3 11 31 5.9759 -2.1818
3 11 34 -4.4498 3.5294
3 11 37 -3.8942 3.2044
3 12 -33 -0.4349 3.5946
3 12 -30 12.1693 -2.7869
3 12 -27 11.5727 2.0877
3 12 -24 5.3922 -2.6040
3 12 -21 2.5361 3.4439
3 12 -18 4.5113 -2.1347
3 12 -15 -6.6342 -0.9337
3 12 -12 -8.0155 4.8015
3 12 -9 0.8109 -6.6491
3 12 -6 11.4776 5.5371
3 12 -3 1.1852 -1.5143
3 12 0 5.4379 -2.4108
3 12 3 9.7478 4.7402
3 12 6 -6.0154 -4.7403
3 12 9 -2.4094 4.1570
3 12 12 3.7045 -2.7598
3 12 15 -2.6340 0.4902
3 12 18 -0.5412 1.4073
3 12 21 -4.5109 -3.6216
3 12 24 -1.8267 4.4999
3 12 27 11.5907 -2.8648
3 12 30 5.0949 -0.7891
3 12 33 -6.4008 4.5575
3 13 -34 5.8723 -8.9611
3 13 -31 -1.4357 0.1423
3 13 -28 1.2961 1.6641
3 13 -25 0.5412 0.3458
3 13 -22 5.4670 0.2488
3 13 -19 2.8504 -2.9946
3 13 -16 4.0762 4.0449
3 13 -13 8.9871 -3.0223
3 13 -10 3.9054 -0.1667
3 13 -7 -0.4107 3.8979
3 13 -4 -3.9744 -5.1405
3 13 -1 -13.2890 3.4435
3 13 2 -4.4519 -1.4070
3 13 5 5.2815 -1.1205
3 13 8 -1.9341 2.2092
3 13 11 -0.4196 -2.6388
3 13 14 -2.7406 2.3614
3 13 17 -9.8706 -2.1761
3 13 20 -2.0966 1.9883
3 13 23 3.5021 1.5856
3 13 26 -6.7250 -3.4369
3 13 29 -14.7843 2.3634
3 13 32 -6.3106 2.0146
3 14 -32 2.0513 3.9142
3 14 -29 -5.9876 -2.9912
3 14 -26 3.1088 -1.1368
3 14 -23 0.3026 -0.2439
3 14 -20 -8.6705 1.1554
3 14 -17 -4.5459 1.6076
3 14 -14 -1.5344 -3.4187
3 14 -11 0.8114 4.3939
3 14 -8 -0.1122 -2.0508
3 14 -5 3.8827 -1.2397
3 14 -2 6.9765 3.8464
3 14 1 -6.5978 -4.6657
3 14 4 -1.7750 3.4795
3 14 7 2.3201 -1.4515
3 14 10 -2.3552 0.1297
3 14 13 2.0244 0.7645
3 14 16 6.1434 -2.4691
3 14 19 3.7216 3.9822
3 14 22 -4.2914 -2.8272
3 14 25 4.5074 -0.4984
3 14 28 6.1198 3.1147
3 14 31 -0.6970 3.5957
3 15 -30 8.9065 -4.8006
3 15 -27 4.4761 5.4721
3 15 -24 -1.3150 0.2792
3 15 -21 1.4392 -0.3714
3 15 -18 -3.2533 -0.5159
3 15 -15 -10.5867 0.9797
3 15 -12 -1.1239 1.2936
3 15 -9 3.4466 -3.7601
3 15 -6 -2.7439 4.5095
3 15 -3 0.0001 -1.8138
3 15 0 5.9145 -0.9619
3 15 3 -8.5813 2.5799
3 15 6 -6.2955 -3.1630
3 15 9 -0.7644 3.0309
3 15 12 -1.6088 -1.6281
3 15 15 0.7119 0.3787
3 15 18 0.7583 2.2529
3 15 21 2.6067 -1.8212
3 15 24 7.6587 1.1694
3 15 27 15.7645 -0.8437
3 15 30 4.0197 -2.6756
3 16 -25 0.2479 -4.9069
3 16 -22 -4.6411 2.8338
3 16 -19 -0.3706 -0.5991
3 16 -16 8.6946 0.9727
3 16 -13 -0.3668 -1.2392
3 16 -10 -0.9211 0.3928
3 16 -7 0.9076 2.0218
3 16 -4 -7.7685 -4.2719
3 16 -1 -0.6544 3.6965
3 16 2 9.3515 -1.2709
3 16 5 7.7913 -0.3768
3 16 8 7.8845 2.3308
3 16 11 6.7660 -4.2231
3 16 14 3.2198 3.8401
3 16 17 4.9153 -0.6586
3 16 20 16.2620 -1.2847
3 16 23 4.6159 2.1232
3 16 26 -5.2347 0.4669
3 17 -23 5.7582 1.5788
3 17 -20 7.3410 -1.8406
3 17 -17 4.1024 1.4472
3 17 -14 2.6091 1.6229
3 17 -11 -0.8750 0.3347
3 17 -8 -1.6467 -1.6223
3 17 -5 4.1224 1.7191
3 17 -2 -4.6354 0.2993
3 17 1 -0.4691 -2.2840
3 17 4 -4.7463 3.4690
3 17 7 -2.6645 -2.3288
3 17 10 4.0793 0.2315
3 17 13 -0.4062 1.2454
3 17 16 -14.2576 -1.7076
3 17 19 -21.8099 1.0909
3 17 22 -11.1321 4.7755
3 18 -21 -6.6736 -2.5827
3 18 -18 -2.9265 -0.3247
3 18 -15 1.8497 -1.9348
3 18 -12 -2.8684 2.4272
3 18 -9 0.3392 -1.1594
3 18 -6 -1.3303 1.8513
3 18 -3 1.1160 -0.8706
3 18 0 -4.9574 -0.6385
3 18 3 -0.2541 2.3716
3 18 6 -3.1144 -2.1813
3 18 9 2.7414 2.3944
3 18 12 -0.3565 -1.1099
3 18 15 0.7337 -0.2035
3 18 18 4.2212 4.0563
3 18 21 8.0258 -0.8073
3 19 -16 7.1984 -3.4470
3 19 -13 16.7626 -0.2208
3 19 -10 13.6279 -2.0254
3 19 -7 9.5778 -0.8831
3 19 -4 3.1475 -0.0118
3 19 -1 -3.3320 0.5523
3 19 2 -6.4889 -0.6805
3 19 5 0.4683 1.1617
3 19 8 -9.4275 0.9350
3 19 11 -6.5632 -4.9917
3 19 14 -2.2331 -4.1381
3 20 -8 8.8963 3.8707
3 20 -5 7.5681 -2.5019
3 20 -2 -3.0927 3.3128
3 20 1 -1.2558 -4.1249
3 20 4 2.4578 -1.6711
3 20 7 4.2816 5.0337
4 1 -42 -4.4350 3.2626
4 1 -39 -7.7750 -0.7106
4 1 -36 -9.3902 -3.5055
4 1 -33 10.9115 4.7706
4 1 -30 17.4146 -4.9112
4 1 -27 -2.4825 2.8475
4 1 -24 -12.8794 1.3400
4 1 -21 -22.5376 -5.1211
4 1 -18 -38.4613 8.3466
4 1 -15 -51.9579 -8.6788
4 1 -12 43.1982 4.5395
4 1 -9 102.3779 1.3311
4 1 -6 -2.5862 -8.0151
4 1 -3 -130.1186 11.4697
4 1 0 -3.7869 -9.0516
4 1 3 -48.9658 4.9733
4 1 6 -50.9526 0.9481
4 1 9 73.3848 -6.7478
4 1 12 55.0968 10.0692
4 1 15 -21.8510 -9.5173
4 1 18 -6.2434 6.0591
4 1 21 6.1788 0.0276
4 1 24 -18.7247 -5.2103
4 1 27 -4.9305 6.9973
4 1 30 9.1870 -6.4673
4 1 33 4.2641 3.6299
4 1 36 1.9920 0.1825
4 1 39 2.9988 -1.7909
4 1 42 -4.6103 5.9244
4 2 -43 12.5532 -0.5283
4 2 -40 6.7958 1.2383
4 2 -37 3.5091 -0.7321
4 2 -34 -11.8019 -0.2917
4 2 -31 -12.7353 4.6405
4 2 -28 -0.0060 -7.3707
4 2 -25 5.0154 6.7565
4 2 -22 6.0282 -3.3179
4 2 -19 18.5235 -2.4013
4 2 -16 50.2804 7.2528
4 2 -13 -55.7616 -9.5418
4 2 -10 -106.8820 9.4317
4 2 -7 7.4197 -5.4045
4 2 -4 35.7789 -0.8694
4 2 -1 38.9368 6.8689
4 2 2 212.4173 -10.4004
4 2 5 108.9496 10.8354
4 2 8 -89.9020 -7.2054
4 2 11 -51.9214 0.9398
4 2 14 -28.0864 4.0759
4 2 17 -38.7796 -7.7779
4 2 20 0.5838 8.8395
4 2 23 28.7810 -6.8012
4 2 26 10.8185 2.6745
4 2 29 5.4053 2.0988
4 2 32 2.9075 -5.7012
4 2 35 -7.2077 5.3314
4 2 38 -6.7378 -1.7630
4 2 41 5.1954 -1.0523
4 2 44 6.2987 -4.5281
4 3 -44 -15.6606 -5.3899
4 3 -41 -5.2439 -3.1874
4 3 -38 3.8510 4.2295
4 3 -35 0.9824 -0.4855
4 3 -32 -6.3034 -3.1141
4 3 -29 -9.6205 5.8140
4 3 -26 -7.6763 -4.2582
4 3 -23 1.6441 3.7397
4 3 -20 11.4026 -1.7751
4 3 -17 6.0892 -2.2800
4 3 -14 17.0789 6.8213
4 3 -11 -20.9849 -9.0731
4 3 -8 -80.3096 7.6223
4 3 -5 -50.5389 -2.8758
4 3 -2 -61.0904 -3.0005
4 3 1 -61.2321 7.1221
4 3 4 61.8779 -8.9722
4 3 7 37.2971 7.8892
4 3 10 -42.8557 -4.8357
4 3 13 18.5417 0.6314
4 3 16 2.1603 4.5530
4 3 19 -25.1560 -7.6091
4 3 22 11.5575 7.1816
4 3 25 23.2605 -3.8489
4 3 28 2.9467 0.0758
4 3 31 -2.1228 1.7658
4 3 34 -0.3941 -1.6602
4 3 37 3.9539 2.6776
4 3 40 1.0716 -3.7364
4 3 43 -1.5836 3.0363
4 4 -42 9.3947 3.5349
4 4 -39 8.7280 -0.4874
4 4 -36 9.2860 -0.0390
4 4 -33 8.6446 -1.1398
4 4 -30 2.6320 1.0970
4 4 -27 0.6001 0.0322
4 4 -24 -2.2329 -2.5926
4 4 -21 -24.9233 3.1465
4 4 -18 -43.2902 -0.7271
4 4 -15 -7.2260 -0.8201
4 4 -12 33.5195 0.9313
4 4 -9 41.3298 -1.2307
4 4 -6 49.1634 1.1307
4 4 -3 68.9187 -2.0906
4 4 0 -25.2524 1.9944
4 4 3 -45.5554 0.5185
4 4 6 92.6299 -1.5579
4 4 9 83.8801 1.9312
4 4 12 -22.7926 -1.2037
4 4 15 10.0748 0.0995
4 4 18 2.2699 -0.4210
4 4 21 -37.9219 1.3975
4 4 24 -15.6884 -0.5049
4 4 27 3.8550 -1.6164
4 4 30 1.9033 2.2300
4 4 33 4.5279 -0.9636
4 4 36 -3.2113 -0.8904
4 4 39 -6.9386 0.6895
4 4 42 -6.7833 3.2293
4 5 -40 -3.1042 -0.4715
4 5 -37 -0.4705 -3.0778
4 5 -34 -1.8739 3.5165
4 5 -31 3.4421 0.0597
4 5 -28 -2.2507 -2.8868
4 5 -25 -15.2593 4.3480
4 5 -22 -4.9767 -3.8494
4 5 -19 6.0517 3.0641
4 5 -16 -9.1144 -2.0882
4 5 -13 3.9160 -0.5194
4 5 -10 31.0658 4.3200
4 5 -7 0.9758 -7.2492
4 5 -4 -47.7123 6.7792
4 5 -1 -6.1177 -3.0446
4 5 2 -46.8718 -1.0763
4 5 5 -77.6985 4.2462
4 5 8 8.6166 -5.3801
4 5 11 45.3990 4.7846
4 5 14 14.2434 -3.8934
4 5 17 21.5034 1.7460
4 5 20 12.3005 1.6170
4 5 23 -12.6806 -4.6833
4 5 26 -3.2482 5.0637
4 5 29 4.6922 -2.1837
4 5 32 1.3972 -1.1036
4 5 35 2.4450 1.5831
4 5 38 -1.0112 -0.5794
4 5 41 -7.0455 -1.8241
4 6 -41 4.5289 -2.0951
4 6 -38 -1.3660 1.4570
4 6 -35 2.1252 0.9537
4 6 -32 3.0074 -2.7656
4 6 -29 5.5376 2.0372
4 6 -26 7.3142 -0.6293
4 6 -23 2.0894 0.9029
4 6 -20 -3.7395 -0.4202
4 6 -17 -5.3915 -1.0679
4 6 -14 -14.2697 3.5514
4 6 -11 -19.1234 -4.1066
4 6 -8 -7.1490 2.3055
4 6 -5 12.1153 0.3106
4 6 -2 20.1610 -2.4021
4 6 1 87.5025 2.8938
4 6 4 55.2792 -2.5139
4 6 7 -14.4755 1.9628
4 6 10 0.0406 -1.6216
4 6 13 -20.9865 0.2041
4 6 16 -27.8657 2.3345
4 6 19 10.6364 -4.1105
4 6 22 15.6906 3.0146
4 6 25 -9.0504 -0.1380
4 6 28 -8.0783 -2.0024
4 6 31 -4.5525 0.9281
4 6 34 -5.3864 -0.1429
4 6 37 -5.9587 -1.1149
4 6 40 -3.9759 -2.7635
4 7 -39 3.9394 0.7350
4 7 -36 4.5054 -0.7906
4 7 -33 -3.9199 -1.1674
4 7 -30 -4.5039 2.8371
4 7 -27 0.4009 -2.1260
4 7 -24 -0.1708 0.0633
4 7 -21 7.2279 0.0129
4 7 -18 14.0733 0.1819
4 7 -15 8.3758 0.4121
4 7 -12 -8.5692 -2.6858
4 7 -9 -0.8490 3.7619
4 7 -6 9.1021 -2.9210
4 7 -3 -2.3687 -0.2113
4 7 0 -31.5965 2.9058
4 7 3 4.2729 -3.0970
4 7 6 7.4441 2.3976
4 7 9 -30.5282 -1.4020
4 7 12 10.1158 1.0139
4 7 15 10.4345 -0.4909
4 7 18 -17.0887 -1.7519
4 7 21 -7.1485 3.4444
4 7 24 7.1877 -2.9275
4 7 27 -3.7929 0.8648
4 7 30 -1.6276 1.5764
4 7 33 -1.0053 -1.7966
4 7 36 -11.2050 -0.1451
4 7 39 -6.7288 -0.8586
4 8 -40 0.2128 -2.0338
4 8 -37 -8.6103 -2.2292
4 8 -34 -7.5193 3.8376
4 8 -31 -4.4937 -1.3915
4 8 -28 -6.2853 -2.1894
4 8 -25 -1.3666 3.7881
4 8 -22 -0.7379 -2.9587
4 8 -19 -15.8997 2.4470
4 8 -16 -19.1044 -2.0777
4 8 -13 5.2827 -0.3388
4 8 -10 7.7251 3.4393
4 8 -7 8.4788 -5.7050
4 8 -4 18.6618 5.4457
4 8 -1 -0.2577 -1.9364
4 8 2 -35.1246 -1.9161
4 8 5 -7.9053 3.7819
4 8 8 11.7688 -4.2308
4 8 11 -10.5353 2.9925
4 8 14 10.1284 -1.9416
4 8 17 7.9512 0.9573
4 8 20 -4.5006 1.6397
4 8 23 -6.6058 -3.7314
4 8 26 2.7985 3.7721
4 8 29 4.1101 -0.8917
4 8 32 3.1839 -1.9805
4 8 35 6.3363 0.8789
4 8 38 6.0519 2.3819
4 9 -38 -1.1364 1.0275
4 9 -35 4.8254 -0.0034
4 9 -32 1.2699 -2.1924
4 9 -29 -3.7311 2.4173
4 9 -26 -3.4796 -0.7586
4 9 -23 -2.3868 -0.1944
4 9 -20 12.2509 0.7328
4 9 -17 15.3967 -1.5646
4 9 -14 4.4015 3.0292
4 9 -11 1.3244 -3.3484
4 9 -8 -9.8747 2.6469
4 9 -5 -21.6263 0.1957
4 9 -2 6.0678 -3.0034
4 9 1 17.5583 3.8753
4 9 4 -7.7306 -3.0120
4 9 7 4.2843 1.6668
4 9 10 2.5463 -0.3808
4 9 13 -24.0462 -1.2400
4 9 16 5.3766 2.8580
4 9 19 12.1558 -3.2354
4 9 22 -1.5124 1.7317
4 9 25 -2.9284 0.2193
4 9 28 7.5216 -0.7760
4 9 31 11.8618 0.0295
4 9 34 11.1444 -0.5932
4 9 37 0.7015 2.6832
4 10 -36 1.0489 0.1899
4 10 -33 1.2647 0.7389
4 10 -30 5.5074 2.4663
4 10 -27 -1.2901 -3.6319
4 10 -24 -4.1712 2.2490
4 10 -21 -3.9716 -0.2062
4 10 -18 -0.6950 -1.3896
4 10 -15 -5.0286 1.9795
4 10 -12 -3.6646 -3.1820
4 10 -9 -2.3329 2.5964
4 10 -6 -1.2685 -2.0022
4 10 -3 -12.8323 -0.4815
4 10 0 11.2216 3.0543
4 10 3 27.7315 -4.2388
4 10 6 3.3482 3.3236
4 10 9 0.5680 -2.0253
4 10 12 -0.0688 0.5123
4 10 15 -17.9247 1.2453
4 10 18 -7.2339 -3.0295
4 10 21 4.6481 3.8267
4 10 24 0.2885 -1.7428
4 10 27 -2.4985 -0.4421
4 10 30 -2.9398 0.7676
4 10 33 0.0671 -0.0906
4 10 36 1.0995 1.4505
4 11 -34 -0.8406 -1.5215
4 11 -31 -3.4854 -3.2295
4 11 -28 0.1438 -0.7650
4 11 -25 1.8917 2.8741
4 11 -22 -3.1552 -3.1999
4 11 -19 -9.3696 2.7014
4 11 -16 1.2193 -0.4966
4 11 -13 -2.4328 -1.2779
4 11 -10 6.3133 2.2400
4 11 -7 14.5561 -2.9632
4 11 -4 6.3321 2.9237
4 11 -1 -19.3983 -1.9333
4 11 2 -12.5305 0.5824
4 11 5 -3.4801 1.5012
4 11 8 -6.7553 -3.4488
4 11 11 13.9673 3.3351
4 11 14 13.9461 -1.7429
4 11 17 -9.1449 -0.1385
4 11 20 -6.3231 2.0903
4 11 23 5.6266 -2.6615
4 11 26 -4.1293 0.4875
4 11 29 -3.8271 0.9201
4 11 32 -2.4242 -0.1401
4 11 35 7.3453 -5.6828
4 12 -32 -5.5326 0.6618
4 12 -29 -2.7565 3.3845
4 12 -26 4.2650 -2.1811
4 12 -23 -2.1208 -0.1154
4 12 -20 -3.8799 2.4712
4 12 -17 -8.4443 -3.0462
4 12 -14 -1.7403 2.0755
4 12 -11 -7.6501 -0.7673
4 12 -8 -11.0270 -0.0397
4 12 -5 5.1207 0.4782
4 12 -2 10.8460 -1.8797
4 12 1 -2.8389 3.3171
4 12 4 8.3288 -3.3848
4 12 7 13.3612 1.5891
4 12 10 -4.6387 0.8738
4 12 13 -0.8401 -2.8928
4 12 16 12.3188 3.7805
4 12 19 7.0645 -1.7388
4 12 22 4.0212 0.3014
4 12 25 0.9999 -0.1764
4 12 28 -4.4284 0.0589
4 12 31 9.2412 -1.1563
4 12 34 12.1934 -6.6588
4 13 -33 -7.0534 0.9846
4 13 -30 -0.1228 -1.4538
4 13 -27 -8.1795 -2.6533
4 13 -24 -8.3555 2.3435
4 13 -21 -0.0743 -0.7765
4 13 -18 2.3146 -2.0605
4 13 -15 -0.0017 3.2887
4 13 -12 2.6987 -3.0238
4 13 -9 -2.0304 1.0253
4 13 -6 -9.3587 -0.3769
4 13 -3 3.5365 -0.4948
4 13 0 9.9981 0.8795
4 13 3 -11.0268 -2.2525
4 13 6 -9.1755 3.2305
4 13 9 -0.8281 -2.7019
4 13 12 -0.7844 0.3262
4 13 15 0.6009 2.4617
4 13 18 -4.5123 -3.0826
4 13 21 -3.3465 1.1618
4 13 24 11.7855 0.3525
4 13 27 16.5868 0.8608
4 13 30 8.3882 -1.6774
4 14 -28 -5.3467 0.7597
4 14 -25 -2.7048 -1.3714
4 14 -22 2.1616 -2.9497
4 14 -19 8.5385 3.5689
4 14 -16 8.1953 -1.1105
4 14 -13 0.3449 -1.5892
4 14 -10 2.5612 2.8287
4 14 -7 3.5234 -2.0697
4 14 -4 -7.5232 1.4490
4 14 -1 -5.6738 -0.3967
4 14 2 9.5938 0.3690
4 14 5 3.8152 1.0720
4 14 8 7.1512 -2.2820
4 14 11 6.9948 2.2971
4 14 14 -5.9454 -0.7949
4 14 17 0.4321 -1.2803
4 14 20 -3.4964 0.6317
4 14 23 -8.6781 0.3139
4 14 26 -14.7306 -1.0632
4 14 29 -8.8351 -3.5749
4 15 -26 6.9277 2.1961
4 15 -23 4.8111 1.9751
4 15 -20 -2.5934 -0.0948
4 15 -17 -11.0851 -2.8404
4 15 -14 -4.3081 2.7770
4 15 -11 -2.8540 -0.9443
4 15 -8 -1.1090 -1.6666
4 15 -5 5.7820 2.0960
4 15 -2 -1.6251 -1.6611
4 15 1 -4.8044 1.6590
4 15 4 2.8173 -1.8895
4 15 7 -4.2320 -0.2201
4 15 10 -7.1848 1.5856
4 15 13 0.1942 -2.0464
4 15 16 -0.8520 1.0775
4 15 19 0.0474 -2.1795
4 15 22 -10.4221 1.6606
4 15 25 0.9924 0.6413
4 15 28 0.5540 1.2268
4 16 -24 -5.2345 -4.1309
4 16 -21 0.9625 -0.6342
4 16 -18 9.2943 1.8551
4 16 -15 0.7496 0.4359
4 16 -12 4.2435 -2.2109
4 16 -9 3.1537 3.3504
4 16 -6 -6.9184 -1.3036
4 16 -3 -0.7082 -1.7413
4 16 0 -2.1947 2.6486
4 16 3 0.7946 -2.0353
4 16 6 -0.5047 0.9984
4 16 9 -10.7004 -0.0471
4 16 12 -3.5551 -0.8940
4 16 15 9.0440 -0.2409
4 16 18 4.1318 0.8401
4 16 21 0.1781 -0.7021
4 16 24 -3.4142 -5.1504
4 17 -22 1.0312 1.5577
4 17 -19 -6.0245 -2.9959
4 17 -16 0.5209 -0.9657
4 17 -13 3.5207 1.1074
4 17 -10 1.6345 1.4713
4 17 -7 2.3041 -2.0478
4 17 -4 2.1220 1.5098
4 17 -1 8.6410 -0.0416
4 17 2 -6.4396 -1.8102
4 17 5 -1.1009 2.0898
4 17 8 6.5926 -0.9350
4 17 11 -1.8033 1.3662
4 17 14 -2.3215 0.7419
4 17 17 6.3909 -1.0709
4 17 20 7.2257 -4.7183
4 18 -17 -2.4978 2.0519
4 18 -14 -13.7540 -3.0454
4 18 -11 -8.9247 -1.4650
4 18 -8 0.4616 0.6788
4 18 -5 -1.5356 -0.0147
4 18 -2 -6.3799 -2.5446
4 18 1 6.6089 1.9097
4 18 4 1.4968 -1.1262
4 18 7 4.1746 -1.7550
4 18 10 6.0388 0.8395
4 18 13 -0.9433 0.5600
4 18 16 -1.9122 1.3945
4 19 -12 -7.1604 1.3513
4 19 -9 -12.2627 -0.3366
4 19 -6 -6.0001 1.7040
4 19 -3 0.9803 -1.8788
4 19 0 5.0409 1.7870
4 19 3 2.8159 -0.0133
4 19 6 -6.2749 -0.0631
4 19 9 2.2706 -2.4251
4 19 12 11.3566 4.7760
5 1 -44 -3.8348 -1.7607
5 1 -41 1.8768 -1.5311
5 1 -38 6.8431 1.9196
5 1 -35 8.3806 -2.2323
5 1 -32 -3.8833 0.3371
5 1 -29 -15.2811 1.2646
5 1 -26 -9.5226 -4.2398
5 1 -23 1.1646 5.5813
5 1 -20 21.4768 -4.2106
5 1 -17 11.2552 1.2429
5 1 -14 25.5649 2.1797
5 1 -11 -6.9274 -5.6357
5 1 -8 -25.6379 6.5305
5 1 -5 -41.4027 -5.2943
5 1 -2 7.0809 2.7734
5 1 1 44.3470 1.5004
5 1 4 62.9431 -4.2857
5 1 7 66.0707 6.2054
5 1 10 6.4037 -6.6366
5 1 13 -18.2962 3.3608
5 1 16 -21.3079 1.0878
5 1 19 3.2324 -3.7038
5 1 22 3.6271 4.9759
5 1 25 -1.2884 -3.6068
5 1 28 -3.1034 1.2134
5 1 31 -6.8168 -0.5939
5 1 34 -1.9962 -0.8286
5 1 37 5.2393 1.0670
5 1 40 8.0613 -1.6623
5 1 43 1.2443 2.8040
5 2 -42 -2.4306 1.3162
5 2 -39 -6.2389 -1.2207
5 2 -36 -4.3482 2.3779
5 2 -33 8.0153 -2.7244
5 2 -30 22.5623 2.0867
5 2 -27 23.0430 2.0901
5 2 -24 -3.4052 -6.2306
5 2 -21 -36.5226 7.1990
5 2 -18 -24.8978 -5.0240
5 2 -15 -28.2587 1.8242
5 2 -12 24.0211 3.2625
5 2 -9 95.0836 -7.1301
5 2 -6 98.9905 9.2877
5 2 -3 -0.8137 -8.6218
5 2 0 -94.8376 3.3969
5 2 3 -130.3971 3.3542
5 2 6 -101.7261 -8.1741
5 2 9 -7.7257 10.5251
5 2 12 40.8959 -8.2410
5 2 15 66.2467 3.0487
5 2 18 26.9940 1.4369
5 2 21 0.1697 -5.0545
5 2 24 -12.8573 7.6784
5 2 27 -25.9701 -6.9153
5 2 30 -12.1239 3.9563
5 2 33 6.0236 0.9589
5 2 36 0.3487 -4.7218
5 2 39 -7.9013 3.0429
5 2 42 -0.3503 -1.2526
5 3 -43 3.5645 1.8634
5 3 -40 -5.7418 -2.7054
5 3 -37 -4.9682 -2.6686
5 3 -34 -2.8521 4.4746
5 3 -31 -8.3017 -4.9937
5 3 -28 -14.8027 2.2170
5 3 -25 2.4341 0.1052
5 3 -22 20.5046 -2.0277
5 3 -19 20.8949 4.6658
5 3 -16 19.9130 -7.4407
5 3 -13 12.2584 6.3476
5 3 -10 -12.1552 -2.3138
5 3 -7 -41.8585 -3.2011
5 3 -4 -14.6525 7.5126
5 3 -1 17.6569 -8.1452
5 3 2 -3.5818 5.9220
5 3 5 -8.8960 -2.9516
5 3 8 30.6351 -0.9104
5 3 11 51.7806 5.2448
5 3 14 -17.2936 -7.5993
5 3 17 -17.2051 7.6270
5 3 20 -6.6283 -3.7946
5 3 23 -10.4225 -1.7284
5 3 26 7.5639 4.6611
5 3 29 12.0963 -3.8930
5 3 32 0.3580 2.2149
5 3 35 -2.6918 -2.4562
5 3 38 -1.7019 1.9331
5 3 41 -0.9746 0.5525
5 4 -41 1.6371 -1.1560
5 4 -38 -5.4419 1.1126
5 4 -35 -5.8790 -0.5467
5 4 -32 -0.9285 1.8498
5 4 -29 7.1978 -3.9965
5 4 -26 7.2684 4.4786
5 4 -23 -1.4133 -2.5085
5 4 -20 6.1198 -2.5880
5 4 -17 21.9943 6.0399
5 4 -14 -7.0683 -6.9336
5 4 -11 -24.5507 5.5153
5 4 -8 -11.6415 -2.6159
5 4 -5 -18.1394 -1.0980
5 4 -2 1.2933 5.3550
5 4 1 49.1766 -8.5470
5 4 4 7.7531 8.5382
5 4 7 -62.8604 -4.4648
5 4 10 -72.8570 -1.0227
5 4 13 -16.9019 5.2523
5 4 16 2.4162 -6.7175
5 4 19 18.3332 5.1982
5 4 22 18.2196 -3.5128
5 4 25 -0.0804 2.5231
5 4 28 -5.1042 0.6384
5 4 31 -9.3253 -4.0712
5 4 34 -2.0236 5.1331
5 4 37 9.1689 -2.9019
5 4 40 1.8440 -1.4369
5 5 -42 -8.6714 5.8081
5 5 -39 -2.6002 3.5482
5 5 -36 -1.1705 -3.7741
5 5 -33 -1.5007 0.2600
5 5 -30 -0.8491 2.1677
5 5 -27 -1.9581 -1.5062
5 5 -24 8.1151 1.4893
5 5 -21 1.5583 -1.4758
5 5 -18 -6.2265 1.8447
5 5 -15 -0.4948 -0.9599
5 5 -12 -5.7073 -1.1840
5 5 -9 0.2638 3.0120
5 5 -6 17.2944 -2.7776
5 5 -3 2.7484 1.5262
5 5 0 -29.3759 0.1461
5 5 3 -2.6748 -0.8740
5 5 6 -3.3891 0.5978
5 5 9 -3.7000 -1.2007
5 5 12 23.1737 2.5063
5 5 15 9.3209 -2.6711
5 5 18 -12.6024 0.5279
5 5 21 1.0722 1.5649
5 5 24 6.1497 -2.0201
5 5 27 -3.3130 1.3574
5 5 30 4.9555 0.2143
5 5 33 1.7664 0.3965
5 5 36 0.0650 -1.8896
5 5 39 8.4815 2.2063
5 5 42 16.7569 7.5677
5 6 -40 2.5008 -4.4729
5 6 -37 -0.9682 0.6174
5 6 -34 0.9910 -0.4945
5 6 -31 -4.9644 -0.5459
5 6 -28 -3.2720 0.0041
5 6 -25 3.0440 -2.3735
5 6 -22 0.1143 3.9221
5 6 -19 -12.0376 -3.2830
5 6 -16 8.6487 0.5474
5 6 -13 12.8014 2.3919
5 6 -10 -7.3134 -3.5596
5 6 -7 3.1588 3.3849
5 6 -4 11.3529 -2.8190
5 6 -1 -12.1334 1.7400
5 6 2 -34.6801 -0.7680
5 6 5 -3.5531 -1.7828
5 6 8 2.5236 4.7469
5 6 11 -25.7132 -4.3782
5 6 14 0.0438 1.7613
5 6 17 9.6443 0.6413
5 6 20 -5.5678 -1.6235
5 6 23 -0.9229 0.8145
5 6 26 9.0261 -0.5608
5 6 29 2.6079 1.6589
5 6 32 0.3378 -2.3462
5 6 35 3.7182 0.5605
5 6 38 9.9160 1.8698
5 6 41 -4.3472 0.5560
5 7 -38 -3.3834 4.9467
5 7 -35 -3.2123 -0.9547
5 7 -32 8.9804 -0.7380
5 7 -29 9.0173 0.5925
5 7 -26 -4.6343 0.3895
5 7 -23 2.9251 -0.3307
5 7 -20 16.9007 -1.7262
5 7 -17 -2.3616 2.4645
5 7 -14 -3.8083 -0.7887
5 7 -11 -1.8777 -0.8248
5 7 -8 -32.9012 1.1649
5 7 -5 -28.8124 -0.7872
5 7 -2 16.9266 0.4669
5 7 1 22.9241 -0.8104
5 7 4 7.6865 1.1874
5 7 7 12.9880 -0.3339
5 7 10 16.5511 -1.3956
5 7 13 -1.5536 2.2108
5 7 16 4.1348 -1.3063
5 7 19 3.1669 -0.4030
5 7 22 0.5044 0.8636
5 7 25 0.7669 0.3601
5 7 28 -2.2087 -0.1255
5 7 31 1.3934 -1.0814
5 7 34 -2.1911 3.0456
5 7 37 -9.0175 0.5692
5 7 40 -1.8617 -4.6735
5 8 -39 14.5140 -5.1744
5 8 -36 11.3359 -2.4485
5 8 -33 2.2270 1.3048
5 8 -30 -1.4977 -0.6471
5 8 -27 -0.3616 0.8672
5 8 -24 -6.3503 -1.4728
5 8 -21 -13.6351 1.4272
5 8 -18 -0.6214 0.5248
5 8 -15 11.7159 -2.4344
5 8 -12 18.8005 3.0511
5 8 -9 19.4543 -1.9626
5 8 -6 -6.3121 1.0012
5 8 -3 -26.7247 0.1093
5 8 0 1.3098 -1.1828
5 8 3 8.4986 2.7428
5 8 6 1.4713 -3.4847
5 8 9 5.6449 2.6739
5 8 12 -2.0637 0.0595
5 8 15 -22.3696 -1.8672
5 8 18 0.2590 2.2442
5 8 21 6.7622 -1.6105
5 8 24 0.0589 1.0616
5 8 27 -0.7238 -1.4458
5 8 30 -5.2078 1.1854
5 8 33 -2.7739 2.1958
5 8 36 -1.8866 -3.7634
5 8 39 5.1159 -2.7778
5 9 -37 -2.2584 4.9311
5 9 -34 -4.9137 1.5944
5 9 -31 2.9405 -2.5628
5 9 -28 14.1717 1.9044
5 9 -25 9.8820 -1.5792
5 9 -22 6.5714 0.4715
5 9 -19 2.4389 0.0626
5 9 -16 -9.7075 -1.1575
5 9 -13 -22.7103 3.0902
5 9 -10 0.2142 -3.0447
5 9 -7 27.5524 1.2008
5 9 -4 21.9665 0.7858
5 9 -1 -12.7017 -2.1023
5 9 2 -13.8598 2.3311
5 9 5 -13.8286 -1.7489
5 9 8 -8.7108 1.5692
5 9 11 17.1997 -0.0864
5 9 14 27.1288 -1.3812
5 9 17 -2.4979 1.8917
5 9 20 -3.8285 -1.0572
5 9 23 3.5915 0.1212
5 9 26 4.1468 -0.2770
5 9 29 -0.7196 1.2834
5 9 32 0.3348 0.7834
5 9 35 9.1943 -2.3311
5 9 38 -1.0337 2.1392
5 10 -35 0.9946 -4.2008
5 10 -32 -2.3991 1.6974
5 10 -29 -6.1851 -0.2473
5 10 -26 -6.5373 0.7608
5 10 -23 -1.4724 -0.1035
5 10 -20 -2.4608 -0.9016
5 10 -17 -2.3574 2.6896
5 10 -14 16.7074 -3.4310
5 10 -11 -0.7295 2.4012
5 10 -8 -8.6149 -0.2908
5 10 -5 3.5365 -1.4971
5 10 -2 6.1851 3.2877
5 10 1 -12.7121 -3.8061
5 10 4 -4.0177 2.4827
5 10 7 -1.8959 -0.6036
5 10 10 -10.5429 -1.1035
5 10 13 1.0559 1.4032
5 10 16 9.5198 -2.1477
5 10 19 2.9716 1.6531
5 10 22 -1.2603 -1.8422
5 10 25 -4.0867 1.5603
5 10 28 -3.6750 1.8109
5 10 31 -5.1782 -3.0086
5 10 34 -12.5438 0.4027
5 11 -33 4.5255 3.5863
5 11 -30 -4.6018 -3.1217
5 11 -27 0.5233 -0.9969
5 11 -24 2.5310 2.6308
5 11 -21 3.9424 -1.8187
5 11 -18 11.6192 0.8451
5 11 -15 -2.3736 -0.5385
5 11 -12 2.1720 1.2140
5 11 -9 -7.2020 0.1606
5 11 -6 -16.8626 -1.3956
5 11 -3 3.2797 2.9932
5 11 0 17.3042 -2.7330
5 11 3 -0.9144 1.5799
5 11 6 0.3727 0.5025
5 11 9 -0.0359 -2.4214
5 11 12 -11.8113 2.5969
5 11 15 -3.4316 -1.2290
5 11 18 2.3059 0.6030
5 11 21 -2.5134 -1.1840
5 11 24 -2.2704 0.8487
5 11 27 11.1541 -0.5291
5 11 30 4.0104 -2.4535
5 11 33 -1.8934 3.9120
5 12 -31 10.7240 0.7368
5 12 -28 1.9509 4.8104
5 12 -25 3.5361 -1.9345
5 12 -22 3.7304 -0.5769
5 12 -19 -6.2651 -0.2457
5 12 -16 -3.8576 1.2271
5 12 -13 -1.5526 -0.1149
5 12 -10 13.1956 -1.9711
5 12 -7 13.8166 3.2519
5 12 -4 -4.9393 -2.6801
5 12 -1 -4.9656 0.6177
5 12 2 1.1812 0.9768
5 12 5 -11.9956 -1.6205
5 12 8 -3.2562 1.6073
5 12 11 -0.1461 -0.2726
5 12 14 -6.7431 0.1152
5 12 17 -4.8888 -1.3647
5 12 20 -3.6725 0.8858
5 12 23 -5.8755 0.9209
5 12 26 -9.5315 -0.7980
5 12 29 -0.5896 0.8215
5 12 32 -14.1906 3.8162
5 13 -29 11.0582 -4.3440
5 13 -26 5.2279 -4.0097
5 13 -23 8.9254 3.8813
5 13 -20 10.7047 0.3209
5 13 -17 5.5896 -1.8034
5 13 -14 1.9369 0.5732
5 13 -11 -10.5301 0.6554
5 13 -8 -3.8697 0.2041
5 13 -5 -0.1322 -1.3447
5 13 -2 -8.1582 1.6134
5 13 1 0.2443 -0.0740
5 13 4 12.9517 -1.3029
5 13 7 -2.9211 2.0016
5 13 10 0.4814 -1.4074
5 13 13 8.4026 0.2256
5 13 16 4.1882 -0.5326
5 13 19 9.5710 1.2862
5 13 22 10.3078 -0.6927
5 13 25 2.9525 -1.4689
5 13 28 -10.0956 1.8355
5 13 31 6.4790 0.1647
5 14 -27 4.0157 6.9994
5 14 -24 -8.0248 0.0867
5 14 -21 -14.3168 -4.7853
5 14 -18 -3.0873 2.4999
5 14 -15 3.8524 -0.2521
5 14 -12 6.6130 0.0953
5 14 -9 -2.0246 -0.5811
5 14 -6 0.6873 0.2242
5 14 -3 4.9586 1.2293
5 14 0 -0.3946 -2.2917
5 14 3 -3.9223 1.9001
5 14 6 0.3408 0.0447
5 14 9 -3.3598 -0.3384
5 14 12 -1.2069 -0.2739
5 14 15 -1.2113 -1.0376
5 14 18 -13.0393 1.6551
5 14 21 -1.6861 -0.8283
5 14 24 -3.1655 0.0740
5 14 27 3.4004 4.4194
5 15 -25 3.5458 -5.0476
5 15 -22 3.5342 2.8592
5 15 -19 -3.7837 0.7456
5 15 -16 -0.6643 -3.8721
5 15 -13 4.0432 1.7711
5 15 -10 5.1348 -0.3851
5 15 -7 4.2330 -0.8935
5 15 -4 7.9394 1.3188
5 15 -1 1.8656 -1.4042
5 15 2 -8.5475 0.6838
5 15 5 -3.1972 -0.8616
5 15 8 5.8450 0.5557
5 15 11 -2.2822 -0.5129
5 15 14 -4.8352 0.3916
5 15 17 2.7413 0.8179
5 15 20 -3.2158 -1.9605
5 15 23 9.7156 -0.3779
5 15 26 -1.3501 0.7208
5 16 -23 1.5742 2.5268
5 16 -20 1.8593 -3.0890
5 16 -17 -6.4506 2.0703
5 16 -14 -8.7530 -0.3598
5 16 -11 -9.2378 -2.3021
5 16 -8 -2.5791 1.8421
5 16 -5 2.7299 -0.3982
5 16 -2 -0.2063 -0.0010
5 16 1 1.7151 -0.4303
5 16 4 -0.0273 1.6662
5 16 7 1.4607 -0.0044
5 16 10 7.4598 -0.6244
5 16 13 -1.6009 1.2902
5 16 16 -4.2957 -3.1547
5 16 19 3.0517 1.8421
5 16 22 2.7501 5.1687
5 17 -18 5.4318 2.1800
5 17 -15 2.7954 -2.0980
5 17 -12 4.7455 -0.7429
5 17 -9 3.9401 0.9645
5 17 -6 -5.5352 -3.6244
5 17 -3 -0.4674 2.9490
5 17 0 3.8027 -0.6552
5 17 3 4.4270 -1.3883
5 17 6 -5.3219 0.5773
5 17 9 -5.8142 -0.0448
5 17 12 5.4149 0.9915
5 17 15 -6.4007 -0.5646
5 17 18 -1.6913 1.8641
5 18 -13 11.5805 3.0358
5 18 -10 4.3639 -2.1775
5 18 -7 0.2240 3.7082
5 18 -4 3.4035 2.1273
5 18 -1 1.6979 -1.9978
5 18 2 -1.9696 -0.4796
5 18 5 5.5220 0.9989
5 18 8 -1.8963 2.3413
5 18 11 -15.4696 -2.9738
5 18 14 5.4868 -3.8936
5 19 -5 -2.6729 -6.3762
5 19 -2 -4.5334 2.4684
5 19 1 -6.4062 1.4419
5 19 4 -4.7180 -4.2510
6 1 -43 -1.4292 2.9519
6 1 -40 -5.9551 -2.8864
6 1 -37 5.0367 3.0622
6 1 -34 7.5689 -0.8898
6 1 -31 -8.2958 -2.6004
6 1 -28 -15.2693 5.4494
6 1 -25 -8.6047 -6.9306
6 1 -22 3.7233 5.8393
6 1 -19 -0.6664 -0.4172
6 1 -16 16.9041 -5.1061
6 1 -13 15.0080 8.4426
6 1 -10 -22.9748 -9.7712
6 1 -7 -75.3006 6.4247
6 1 -4 -13.1988 -0.5119
6 1 -1 -22.2772 -4.4312
6 1 2 -107.0909 8.2324
6 1 5 4.2149 -10.0681
6 1 8 61.5736 7.0697
6 1 11 8.8696 -2.1986
6 1 14 -10.7486 -3.4098
6 1 17 24.1710 7.4128
6 1 20 -10.7721 -7.1962
6 1 23 -10.9088 4.3915
6 1 26 22.6971 -1.9729
6 1 29 15.9191 -0.8634
6 1 32 -4.0786 3.3689
6 1 35 -2.3939 -4.9095
6 1 38 2.4575 4.2994
6 1 41 -4.6203 -1.5813
6 2 -41 3.3656 0.6279
6 2 -38 -0.9850 -1.2638
6 2 -35 -1.2642 2.5863
6 2 -32 3.6766 -1.6337
6 2 -29 7.9264 -1.9001
6 2 -26 -0.7358 4.3515
6 2 -23 -1.3424 -5.5464
6 2 -20 4.5777 3.5348
6 2 -17 -30.7950 -0.7628
6 2 -14 -31.1249 -1.6411
6 2 -11 16.6369 4.9521
6 2 -8 22.1611 -6.5136
6 2 -5 -10.1664 5.8840
6 2 -2 83.0170 -3.3289
6 2 1 138.6205 -1.7432
6 2 4 25.8063 5.7304
6 2 7 -2.5653 -6.3787
6 2 10 -16.0426 5.2711
6 2 13 -38.2203 -2.5106
6 2 16 -39.2579 -0.3776
6 2 19 4.3864 1.9959
6 2 22 0.2026 -4.3528
6 2 25 -14.6462 4.9501
6 2 28 -0.7093 -2.9593
6 2 31 2.2506 0.0236
6 2 34 -2.4034 3.1868
6 2 37 6.9697 -1.9412
6 2 40 8.8299 -0.0876
6 2 43 -6.9333 -0.1584
6 3 -42 1.6190 5.9860
6 3 -39 6.3073 2.0970
6 3 -36 -2.7248 -4.3444
6 3 -33 2.2883 1.8582
6 3 -30 2.6073 0.5622
6 3 -27 5.2893 -2.5071
6 3 -24 -1.2407 3.3074
6 3 -21 -4.8743 -3.8941
6 3 -18 0.1640 3.5968
6 3 -15 -12.6663 -1.1804
6 3 -12 -29.9926 -3.3764
6 3 -9 -8.5420 6.7075
6 3 -6 20.3365 -6.6904
6 3 -3 -14.3721 4.0205
6 3 0 0.5216 -0.0469
6 3 3 16.4663 -3.6212
6 3 6 -47.3809 5.4125
6 3 9 -24.3168 -6.2534
6 3 12 -7.3758 5.0212
6 3 15 7.1148 -1.8853
6 3 18 20.9566 -2.3784
6 3 21 33.6693 6.2386
6 3 24 16.2685 -6.1114
6 3 27 -4.7530 2.3296
6 3 30 -2.7655 0.6672
6 3 33 -1.1709 -1.0179
6 3 36 -8.6926 0.5616
6 3 39 -2.4694 -1.5503
6 3 42 10.3907 5.8361
6 4 -40 5.5327 -3.9480
6 4 -37 8.7930 1.5997
6 4 -34 -1.2839 -0.1552
6 4 -31 -8.9899 2.0614
6 4 -28 -6.5601 -1.2981
6 4 -25 -3.8449 -1.2154
6 4 -22 -5.9158 4.4891
6 4 -19 0.3701 -5.2288
6 4 -16 0.3446 3.1915
6 4 -13 4.7603 0.0786
6 4 -10 14.0281 -2.0372
6 4 -7 13.9577 3.5821
6 4 -4 5.7759 -4.9535
6 4 -1 -26.5298 4.8789
6 4 2 12.7484 -2.8966
6 4 5 80.4757 -1.2333
6 4 8 43.4314 4.5308
6 4 11 29.8405 -6.1510
6 4 14 13.6196 4.3590
6 4 17 -31.4669 -1.0594
6 4 20 -40.1998 -0.9064
6 4 23 -7.6399 1.7161
6 4 26 1.8277 -3.1451
6 4 29 -1.6609 3.3475
6 4 32 5.9001 -2.0175
6 4 35 7.4925 0.3547
6 4 38 -9.4467 2.8076
6 4 41 -16.3474 -1.8008
6 5 -41 1.9200 1.7845
6 5 -38 5.7316 0.6486
6 5 -35 3.3860 1.8298
6 5 -32 6.4320 -2.9784
6 5 -29 -3.4584 0.8347
6 5 -26 -3.4383 1.0516
6 5 -23 3.1157 -2.2709
6 5 -20 2.7063 2.4954
6 5 -17 1.8856 -2.8544
6 5 -14 14.9382 2.9232
6 5 -11 7.8898 -2.4467
6 5 -8 -12.8119 -0.6420
6 5 -5 -5.3074 4.4653
6 5 -2 9.4842 -6.3744
6 5 1 -18.7528 5.0323
6 5 4 -22.1257 -1.8614
6 5 7 10.0659 -0.8826
6 5 10 -3.2377 2.3907
6 5 13 -17.0787 -3.5041
6 5 16 12.1350 5.2055
6 5 19 10.6788 -4.5176
6 5 22 -6.5332 1.8103
6 5 25 -1.1518 1.4374
6 5 28 4.1417 -4.3825
6 5 31 0.6716 4.0719
6 5 34 -5.3270 -0.2044
6 5 37 -1.0119 0.7295
6 5 40 2.3594 -3.5840
6 6 -39 -4.5235 -1.7793
6 6 -36 3.2407 -0.9487
6 6 -33 -2.2399 0.8959
6 6 -30 4.9349 -0.0508
6 6 -27 1.1989 0.0317
6 6 -24 -11.1143 -1.2669
6 6 -21 -11.8242 1.1209
6 6 -18 0.3143 1.1401
6 6 -15 -14.2312 -1.7727
6 6 -12 -1.6377 0.7041
6 6 -9 19.7255 0.6402
6 6 -6 1.0969 -0.6879
6 6 -3 3.7697 -0.1445
6 6 0 35.4861 0.6883
6 6 3 6.6197 0.3227
6 6 6 -4.3008 -1.8566
6 6 9 7.0751 1.6185
6 6 12 -1.2432 0.0358
6 6 15 -8.0967 -0.8571
6 6 18 8.8972 0.8853
6 6 21 0.4789 0.0385
6 6 24 -2.4115 -0.0427
6 6 27 3.7356 -1.3631
6 6 30 -2.7518 1.9623
6 6 33 1.1865 0.7632
6 6 36 4.7182 -2.7418
6 6 39 2.2119 -0.8431
6 7 -37 -7.0348 1.3822
6 7 -34 -3.6322 -0.5399
6 7 -31 -5.2619 1.9523
6 7 -28 -2.0387 -1.5251
6 7 -25 5.9362 1.4805
6 7 -22 9.4321 1.0613
6 7 -19 4.4336 -2.0841
6 7 -16 3.3420 0.7857
6 7 -13 -10.0622 0.3059
6 7 -10 -3.4283 0.0617
6 7 -7 23.3479 -0.8189
6 7 -4 12.3887 0.6750
6 7 -1 -18.2957 0.4609
6 7 2 2.8838 -1.1756
6 7 5 -17.1421 0.8762
6 7 8 -16.5940 -0.1580
6 7 11 8.9445 -0.3503
6 7 14 3.9226 -0.8522
6 7 17 -13.6199 1.0846
6 7 20 3.6944 -0.3959
6 7 23 0.7717 -0.8933
6 7 26 -7.1506 0.9298
6 7 29 -1.4351 -0.5642
6 7 32 -1.7548 -0.8152
6 7 35 0.0712 -2.0449
6 7 38 -4.6074 3.2712
6 8 -38 -8.0683 -1.2481
6 8 -35 2.3248 -0.3606
6 8 -32 3.4961 -1.5788
6 8 -29 -3.8437 -0.1167
6 8 -26 -1.3846 0.6444
6 8 -23 -3.4094 -1.5575
6 8 -20 -9.9313 1.0646
6 8 -17 -1.1225 -0.3884
6 8 -14 3.3957 0.0434
6 8 -11 -13.5275 -0.5134
6 8 -8 -12.4604 -0.8508
6 8 -5 0.0588 1.9885
6 8 -2 1.8444 -2.0683
6 8 1 -7.7638 0.8640
6 8 4 22.5914 0.3417
6 8 7 3.9079 -1.5342
6 8 10 -4.6596 1.2782
6 8 13 7.4009 -0.4226
6 8 16 9.8738 1.0734
6 8 19 -10.3636 -0.4332
6 8 22 -7.5017 -1.0903
6 8 25 -3.2691 1.6896
6 8 28 4.8997 -1.7255
6 8 31 2.2554 -2.0044
6 8 34 -7.9789 1.8344
6 8 37 6.4219 3.4391
6 9 -36 0.6769 2.3374
6 9 -33 -3.0157 1.6118
6 9 -30 -4.7894 1.4404
6 9 -27 -0.3143 0.0716
6 9 -24 1.1818 -1.5356
6 9 -21 4.7670 1.2135
6 9 -18 1.5524 -0.4867
6 9 -15 2.8540 -0.1727
6 9 -12 15.3616 0.5327
6 9 -9 -7.7779 0.3904
6 9 -6 -15.8410 -0.0487
6 9 -3 4.7465 -0.7811
6 9 0 15.7396 0.2828
6 9 3 -2.5858 -0.0077
6 9 6 7.9589 0.4099
6 9 9 -13.4638 -0.3948
6 9 12 -21.2479 -0.0273
6 9 15 -5.9139 0.6406
6 9 18 6.3908 -1.5445
6 9 21 -2.3867 1.3771
6 9 24 4.7951 0.8492
6 9 27 1.6060 -1.6877
6 9 30 3.2024 -0.3628
6 9 33 3.5103 3.0377
6 9 36 -10.8182 3.7298
6 10 -34 -4.6546 -3.1612
6 10 -31 8.8031 -1.0256
6 10 -28 1.0623 -0.5908
6 10 -25 5.2511 1.8222
6 10 -22 3.3630 0.0004
6 10 -19 -1.7178 -1.5951
6 10 -16 -3.7550 1.4191
6 10 -13 -14.0963 -1.4566
6 10 -10 3.5932 0.3807
6 10 -7 6.5562 0.7334
6 10 -4 -4.2445 -1.5344
6 10 -1 -3.6485 1.3867
6 10 2 3.0790 -0.3079
6 10 5 3.1568 -0.7484
6 10 8 19.9242 0.6457
6 10 11 6.5152 -0.2419
6 10 14 -8.9607 0.1520
6 10 17 -5.8072 -0.7220
6 10 20 2.4729 0.7100
6 10 23 1.0234 -0.0319
6 10 26 1.8419 -2.0131
6 10 29 0.6826 1.0901
6 10 32 8.6838 1.1224
6 10 35 12.3601 -3.6984
6 11 -32 -7.6200 4.8793
6 11 -29 -5.7619 1.0775
6 11 -26 -13.8834 -1.9480
6 11 -23 -2.8485 -2.3615
6 11 -20 6.2990 2.1643
6 11 -17 4.5931 -0.8845
6 11 -14 2.9468 -0.7462
6 11 -11 -0.7775 1.1192
6 11 -8 5.9617 -1.2409
6 11 -5 3.1503 0.5342
6 11 -2 -6.0080 -0.1583
6 11 1 1.7476 0.3416
6 11 4 4.9658 -0.5981
6 11 7 -7.0918 0.1346
6 11 10 4.5203 1.1357
6 11 13 4.8175 -2.4684
6 11 16 -0.3142 1.8995
6 11 19 4.1183 0.4110
6 11 22 0.1127 -1.3780
6 11 25 -6.0662 0.3609
6 11 28 -12.3137 1.2497
6 11 31 -1.3479 0.1999
6 12 -30 0.8596 -3.6977
6 12 -27 7.7385 2.9203
6 12 -24 -10.3834 1.7263
6 12 -21 -14.6424 0.0100
6 12 -18 -4.8553 -1.4791
6 12 -15 3.5518 0.8958
6 12 -12 0.5431 0.6882
6 12 -9 -7.2630 -1.9827
6 12 -6 0.9106 2.3215
6 12 -3 4.0899 -0.8675
6 12 0 -5.1598 -1.0385
6 12 3 -2.6581 1.6510
6 12 6 6.1970 -1.4663
6 12 9 -2.1556 0.5678
6 12 12 1.9478 -0.3264
6 12 15 4.4991 1.3729
6 12 18 1.2407 -0.3934
6 12 21 -4.0087 -1.9203
6 12 24 -6.7931 1.6925
6 12 27 13.2920 0.4430
6 12 30 1.3205 -1.9496
6 13 -28 -12.2779 0.1159
6 13 -25 -1.4338 -2.0848
6 13 -22 7.6805 0.9028
6 13 -19 0.4634 0.9627
6 13 -16 -4.6676 1.0353
6 13 -13 -1.6529 -1.9347
6 13 -10 1.1831 1.2500
6 13 -7 -3.4682 0.4891
6 13 -4 3.8287 -2.1093
6 13 -1 6.4302 1.3369
6 13 2 -0.3042 0.1585
6 13 5 0.0344 -0.2957
6 13 8 3.6449 -0.8011
6 13 11 -4.3029 0.3410
6 13 14 -5.6372 0.4951
6 13 17 -5.1855 0.7460
6 13 20 -1.2677 -0.1853
6 13 23 6.0071 1.3853
6 13 26 -3.6270 -1.8095
6 13 29 5.3181 -3.9342
6 14 -26 0.1444 3.1270
6 14 -23 0.1751 0.3441
6 14 -20 6.7808 -1.7473
6 14 -17 4.0368 -0.2161
6 14 -14 -3.6209 0.2737
6 14 -11 0.7280 0.8433
6 14 -8 3.8227 -0.7340
6 14 -5 -3.6918 0.7087
6 14 -2 2.6386 -0.3921
6 14 1 2.2599 -1.1865
6 14 4 -2.3220 1.7077
6 14 7 1.1696 -2.0807
6 14 10 0.9511 1.6153
6 14 13 -2.9565 1.3116
6 14 16 7.8849 -1.3950
6 14 19 17.9552 0.8659
6 14 22 3.4301 -1.2877
6 14 25 0.4164 -1.9774
6 15 -24 -7.4731 -1.6916
6 15 -21 -6.1949 4.5191
6 15 -18 5.1187 1.0515
6 15 -15 9.5396 -1.7841
6 15 -12 4.0615 0.4025
6 15 -9 -0.3959 -0.0024
6 15 -6 -8.9828 1.0631
6 15 -3 -16.9208 -1.3567
6 15 0 3.1442 1.4526
6 15 3 11.7398 -0.8349
6 15 6 -0.2015 -0.4850
6 15 9 2.3833 1.1633
6 15 12 11.0412 -0.7822
6 15 15 5.3063 0.2009
6 15 18 -9.1064 1.4301
6 15 21 -10.0035 0.8346
6 15 24 -6.9758 -2.1582
6 16 -19 -7.8100 -1.8498
6 16 -16 -4.1553 4.0011
6 16 -13 -3.5032 2.1004
6 16 -10 -6.6677 -2.6598
6 16 -7 4.2302 0.4341
6 16 -4 8.4956 -0.3779
6 16 -1 1.7172 0.8686
6 16 2 1.7146 0.2590
6 16 5 3.1464 0.0503
6 16 8 -4.4272 -0.1077
6 16 11 -3.4482 -1.7795
6 16 14 3.3498 2.0282
6 16 17 -5.2999 1.6406
6 16 20 0.5993 -4.6502
6 17 -14 0.7403 -2.9684
6 17 -11 0.3273 4.7860
6 17 -8 -0.1177 -0.9985
6 17 -5 4.5991 0.2742
6 17 -2 -7.6278 -0.5938
6 17 1 -17.9529 0.9590
6 17 4 -8.3701 0.2561
6 17 7 5.4305 -1.9312
6 17 10 9.9761 2.0691
6 17 13 -3.2569 2.5702
6 17 16 10.0276 1.4532
6 18 -9 -1.2886 -0.2435
6 18 -6 -3.3426 1.7539
6 18 -3 -1.3021 0.0311
6 18 0 8.1620 -1.9330
6 18 3 8.2901 4.4689
6 18 6 0.5741 -0.8412
6 18 9 -6.7809 -3.1573
7 1 -42 7.1694 1.7464
7 1 -39 7.9216 -0.0441
7 1 -36 -2.0755 -1.4076
7 1 -33 -4.0109 3.4932
7 1 -30 -2.9160 -4.1030
7 1 -27 -1.1793 1.5718
7 1 -24 -2.6850 2.1486
7 1 -21 10.0529 -5.2402
7 1 -18 25.3960 7.0475
7 1 -15 13.9713 -6.5216
7 1 -12 -15.8872 2.5413
7 1 -9 -18.9417 1.9993
7 1 -6 10.1400 -6.5351
7 1 -3 -5.9062 9.3929
7 1 0 4.7877 -7.5845
7 1 3 80.8118 3.6003
7 1 6 -2.9452 0.4635
7 1 9 -56.6281 -6.2794
7 1 12 -15.6364 9.3710
7 1 15 15.3057 -8.0277
7 1 18 -7.3406 4.1952
7 1 21 0.6129 0.7119
7 1 24 5.1999 -4.4786
7 1 27 -9.7527 5.1671
7 1 30 -9.5620 -4.7438
7 1 33 9.2069 3.4419
7 1 36 1.6051 -0.5467
7 1 39 -4.4463 -1.2418
7 1 42 5.2981 7.2489
7 2 -40 -6.9475 -0.3541
7 2 -37 1.2809 0.0157
7 2 -34 -2.2815 -1.8082
7 2 -31 -5.0003 5.2901
7 2 -28 -14.3012 -5.6839
7 2 -25 -8.3495 3.8478
7 2 -22 -3.6760 0.1501
7 2 -19 -3.5907 -5.0623
7 2 -16 28.0793 8.3826
7 2 -13 49.1949 -8.4314
7 2 -10 15.5820 6.2404
7 2 -7 -14.3667 -1.2998
7 2 -4 -36.8920 -5.5931
7 2 -1 -111.4670 10.0709
7 2 2 -110.7057 -10.3199
7 2 5 29.2680 7.5281
7 2 8 59.5003 -0.6374
7 2 11 54.5800 -4.8484
7 2 14 28.2314 7.9872
7 2 17 -11.6135 -8.3927
7 2 20 -26.7792 6.2226
7 2 23 -5.7881 -2.0876
7 2 26 11.2560 -1.7518
7 2 29 11.9344 5.7572
7 2 32 4.8737 -6.4398
7 2 35 6.3656 4.4703
7 2 38 -4.2569 0.4616
7 2 41 -6.5280 -2.3191
7 3 -41 -3.4037 0.2359
7 3 -38 -1.4056 4.3793
7 3 -35 10.5502 -0.8708
7 3 -32 8.7550 -2.6207
7 3 -29 10.3683 3.7466
7 3 -26 10.4425 -3.5440
7 3 -23 11.2797 3.5038
7 3 -20 -1.4176 -1.4734
7 3 -17 -7.3861 -1.0882
7 3 -14 1.0566 4.6380
7 3 -11 -7.0334 -7.2741
7 3 -8 -13.5508 5.7367
7 3 -5 7.0753 -2.1303
7 3 -2 44.2157 -1.4730
7 3 1 -0.2086 4.7384
7 3 4 -35.9807 -5.9772
7 3 7 17.0590 5.2387
7 3 10 -18.8450 -3.6906
7 3 13 -18.9610 0.7446
7 3 16 16.7120 2.9810
7 3 19 5.9033 -5.4823
7 3 22 -14.3756 4.5974
7 3 25 -7.2430 -2.2071
7 3 28 -0.0898 0.0457
7 3 31 -7.1158 0.2909
7 3 34 -14.0349 -1.7215
7 3 37 4.2756 1.8463
7 3 40 8.3376 -4.8895
7 4 -39 -14.9574 -1.2205
7 4 -36 -14.5238 0.9562
7 4 -33 -6.4524 -1.4320
7 4 -30 4.8421 1.4338
7 4 -27 -2.9198 1.4281
7 4 -24 -13.0462 -4.5250
7 4 -21 3.1904 4.2983
7 4 -18 -5.3938 -2.4984
7 4 -15 -9.8360 -0.7707
7 4 -12 18.0254 3.4251
7 4 -9 3.0347 -4.0109
7 4 -6 -19.6754 4.2343
7 4 -3 -5.3943 -3.5027
7 4 0 27.4818 0.8786
7 4 3 -15.9089 2.7972
7 4 6 -60.9626 -5.3078
7 4 9 -20.4799 5.4906
7 4 12 -9.9554 -2.6880
7 4 15 -6.7756 -0.7237
7 4 18 23.6223 2.2928
7 4 21 23.8248 -2.5537
7 4 24 7.1333 2.5282
7 4 27 0.7352 -2.5429
7 4 30 1.7198 1.0180
7 4 33 7.7591 0.3952
7 4 36 -1.3322 -2.3010
7 4 39 1.4424 0.7321
7 5 -40 8.6808 -3.0629
7 5 -37 0.5238 -1.7645
7 5 -34 4.0414 3.7972
7 5 -31 -4.5673 -1.5595
7 5 -28 6.3296 -0.9908
7 5 -25 12.3232 2.5989
7 5 -22 5.2848 -2.4356
7 5 -19 10.4613 2.2571
7 5 -16 8.1417 -2.1864
7 5 -13 -14.7693 0.8483
7 5 -10 -9.5224 1.2792
7 5 -7 -4.3672 -4.0262
7 5 -4 -24.5469 4.5687
7 5 -1 -19.9849 -1.9447
7 5 2 33.8895 -0.7575
7 5 5 24.5785 2.3749
7 5 8 9.8192 -2.1055
7 5 11 17.2582 1.9859
7 5 14 1.4204 -1.6967
7 5 17 -19.9911 1.0402
7 5 20 -3.5510 0.5780
7 5 23 -3.6707 -1.9765
7 5 26 -5.8356 2.8483
7 5 29 0.7345 -0.3445
7 5 32 1.7127 -2.2050
7 5 35 -0.1214 -0.0685
7 5 38 -11.5819 4.0937
7 6 -38 7.3041 1.7530
7 6 -35 -0.7203 -0.3082
7 6 -32 -0.1410 0.2154
7 6 -29 -1.7088 0.0141
7 6 -26 2.5318 1.1333
7 6 -23 -3.8223 -0.3877
7 6 -20 -8.3953 -1.8574
7 6 -17 -10.7643 3.0886
7 6 -14 -5.7444 -1.8272
7 6 -11 6.1094 0.3737
7 6 -8 20.8432 0.9854
7 6 -5 22.1645 -1.1852
7 6 -2 -9.2731 1.5900
7 6 1 -50.5420 -2.4887
7 6 4 -17.5472 2.9255
7 6 7 -16.8153 -0.9889
7 6 10 -9.6072 -2.0306
7 6 13 16.8033 2.8555
7 6 16 12.8992 -3.0126
7 6 19 -9.8733 1.5151
7 6 22 7.4460 -0.5489
7 6 25 3.4445 0.1966
7 6 28 -3.1734 0.4004
7 6 31 -2.4630 -3.0781
7 6 34 9.3771 2.1709
7 6 37 16.7257 1.0379
7 7 -36 -0.0755 -2.7049
7 7 -33 2.0401 -0.1578
7 7 -30 2.6641 1.6078
7 7 -27 -0.6789 -1.3794
7 7 -24 7.1137 0.5098
7 7 -21 7.5441 -0.1452
7 7 -18 2.8680 -0.2667
7 7 -15 9.7739 0.2324
7 7 -12 0.7577 -1.3464
7 7 -9 -23.9184 2.1931
7 7 -6 -18.9152 -1.9265
7 7 -3 8.3892 0.2673
7 7 0 27.9040 1.5351
7 7 3 5.7508 -2.4516
7 7 6 24.3793 1.7873
7 7 9 2.3842 -1.1703
7 7 12 -16.9598 0.7091
7 7 15 -2.1120 0.0970
7 7 18 8.8910 -2.0462
7 7 21 -4.4057 2.8466
7 7 24 2.9103 -1.6129
7 7 27 -2.3291 -0.6885
7 7 30 4.2572 0.9021
7 7 33 -3.9153 0.7407
7 7 36 -7.4982 -1.8476
7 8 -37 1.4033 3.1708
7 8 -34 -4.3094 2.1032
7 8 -31 -4.6847 -0.9750
7 8 -28 -1.4884 -2.1364
7 8 -25 -2.3449 0.9392
7 8 -22 -1.0624 -0.1233
7 8 -19 6.7229 0.0286
7 8 -16 -5.5711 0.8724
7 8 -13 -6.1658 -0.8098
7 8 -10 9.1058 0.6876
7 8 -7 1.8041 -0.5684
7 8 -4 -0.4083 -0.5605
7 8 -1 -1.2638 1.9189
7 8 2 -1.6232 -1.9267
7 8 5 -20.9272 0.8829
7 8 8 5.9238 0.3050
7 8 11 -3.4724 -1.2328
7 8 14 -8.7279 1.2748
7 8 17 3.4599 -1.0629
7 8 20 8.9606 1.8412
7 8 23 2.1693 -0.8540
7 8 26 8.1860 -0.9662
7 8 29 -6.8719 4.0706
7 8 32 -3.4310 -1.6053
7 8 35 2.6153 -4.1753
7 9 -35 8.0676 -4.0110
7 9 -32 8.5706 -1.3963
7 9 -29 5.0534 3.3216
7 9 -26 -8.2407 -0.7675
7 9 -23 -6.3646 0.9721
7 9 -20 -5.3069 -0.5435
7 9 -17 3.2513 -0.8515
7 9 -14 9.0072 1.9308
7 9 -11 5.5232 -1.7001
7 9 -8 8.3672 1.3969
7 9 -5 -6.6444 -0.6718
7 9 -2 -12.5433 -0.2246
7 9 1 -6.1179 1.4931
7 9 4 -0.1485 -1.8829
7 9 7 -5.2661 2.3030
7 9 10 23.6014 -1.1890
7 9 13 10.4510 -0.4438
7 9 16 -4.1010 1.8913
7 9 19 -1.8180 -1.7095
7 9 22 -3.1371 0.1365
7 9 25 -12.8479 0.3510
7 9 28 -2.4622 1.3951
7 9 31 -0.9284 -2.2065
7 9 34 0.2367 -4.1096
7 10 -33 -0.6159 0.4417
7 10 -30 -2.6259 -1.8140
7 10 -27 9.1529 -2.0705
7 10 -24 2.9091 0.9778
7 10 -21 -2.5644 1.3284
7 10 -18 -5.2096 -1.9133
7 10 -15 -3.2133 1.6904
7 10 -12 -3.4993 -1.0649
7 10 -9 -0.9778 -1.5322
7 10 -6 7.1374 2.0525
7 10 -3 2.5205 -1.5584
7 10 0 2.5666 1.0453
7 10 3 7.3635 -0.8965
7 10 6 -3.9989 -0.0264
7 10 9 -16.6389 0.6363
7 10 12 7.7285 -1.2323
7 10 15 3.8394 1.6873
7 10 18 -5.8737 -1.1061
7 10 21 3.4633 0.4527
7 10 24 9.5319 1.4291
7 10 27 5.2082 -0.7030
7 10 30 4.2970 -1.7069
7 10 33 -1.8769 -1.6844
7 11 -31 -3.1766 -0.3401
7 11 -28 0.7210 3.4909
7 11 -25 7.8167 0.0778
7 11 -22 1.7940 -3.9127
7 11 -19 0.9804 3.2579
7 11 -16 0.3499 -1.3057
7 11 -13 9.8815 -0.6437
7 11 -10 0.6785 1.7510
7 11 -7 -5.5756 -1.5829
7 11 -4 3.1737 1.3635
7 11 -1 -1.8215 -1.3946
7 11 2 -9.1189 0.8665
7 11 5 0.7644 -0.0464
7 11 8 3.4183 -0.9011
7 11 11 -5.4812 1.9676
7 11 14 0.0457 -1.0731
7 11 17 -4.0940 -1.2368
7 11 20 -8.8616 0.2087
7 11 23 4.6526 0.9176
7 11 26 5.1648 -1.0873
7 11 29 3.1646 0.0748
7 11 32 -6.3433 3.9468
7 12 -29 -2.7083 -3.5808
7 12 -26 -2.4244 -1.0513
7 12 -23 -1.0529 3.1551
7 12 -20 3.3685 0.2097
7 12 -17 -3.0973 -2.2033
7 12 -14 -12.2933 1.0720
7 12 -11 2.0192 0.3820
7 12 -8 2.7089 -2.0594
7 12 -5 0.4234 0.6315
7 12 -2 5.1823 0.7426
7 12 1 -1.6852 -0.3275
7 12 4 -5.1561 -0.3599
7 12 7 6.0788 0.6132
7 12 10 3.4708 0.8693
7 12 13 1.1888 -1.0466
7 12 16 9.5826 -0.5131
7 12 19 3.6859 1.0774
7 12 22 0.0189 0.3432
7 12 25 9.6744 -2.2113
7 12 28 -12.5363 0.1876
7 13 -27 1.9834 0.7925
7 13 -24 14.1543 -0.7355
7 13 -21 -5.0420 -2.7769
7 13 -18 -2.3877 1.8807
7 13 -15 3.1905 1.7585
7 13 -12 -6.5069 -3.5609
7 13 -9 0.8747 2.3456
7 13 -6 -0.7208 -1.1715
7 13 -3 -7.8847 -0.1693
7 13 0 4.5117 1.5993
7 13 3 2.3736 -2.1566
7 13 6 -11.3023 1.3761
7 13 9 -1.0493 -0.3877
7 13 12 3.2461 -0.6074
7 13 15 -8.3730 0.2282
7 13 18 -5.3062 -1.1310
7 13 21 -2.2438 0.0890
7 13 24 -8.2516 0.8695
7 13 27 5.7374 4.4162
7 14 -25 -5.0531 -3.0258
7 14 -22 5.3401 2.2550
7 14 -19 -5.6949 0.2015
7 14 -16 -8.5879 -1.8342
7 14 -13 -1.3355 1.4294
7 14 -10 -1.7203 0.7409
7 14 -7 -0.1595 -1.7417
7 14 -4 4.9263 1.5841
7 14 -1 -5.5375 0.1134
7 14 2 -0.8421 -1.8553
7 14 5 3.1906 1.4342
7 14 8 -2.5068 0.2923
7 14 11 2.8107 -0.8205
7 14 14 1.0926 0.0900
7 14 17 -7.2383 -0.4810
7 14 20 -8.9133 0.2619
7 14 23 -1.6436 3.7338
7 15 -20 10.7672 -1.6844
7 15 -17 4.4359 1.8636
7 15 -14 0.9016 1.6466
7 15 -11 -1.3253 -2.8041
7 15 -8 1.6255 1.0042
7 15 -5 5.2829 1.2230
7 15 -2 4.2660 -1.8410
7 15 1 -10.3174 1.4214
7 15 4 -7.1363 -0.8135
7 15 7 2.8065 -0.5886
7 15 10 -12.2113 -0.2766
7 15 13 -7.5001 -0.1068
7 15 16 8.7669 -0.2661
7 15 19 10.0435 -0.4708
7 16 -15 -2.7924 -1.6637
7 16 -12 4.5673 1.9408
7 16 -9 5.0612 2.1025
7 16 -6 -7.7209 -2.0286
7 16 -3 -2.0605 0.3841
7 16 0 13.6095 1.5772
7 16 3 7.0172 -2.3118
7 16 6 -4.2359 0.9623
7 16 9 2.0434 1.1497
7 16 12 2.2500 -3.7115
7 16 15 -6.4591 -3.4387
7 17 -10 -2.4594 -2.8079
7 17 -7 0.8637 -0.7564
7 17 -4 0.3019 -2.1922
7 17 -1 -1.6201 1.5777
7 17 2 4.9008 -1.3646
7 17 5 2.8127 -1.6872
7 17 8 -0.0048 1.5351
7 17 11 -8.0143 2.9726
8 1 -41 2.9992 -2.4976
8 1 -38 4.4429 2.6632
8 1 -35 1.0203 -2.8334
8 1 -32 -2.6338 1.6655
8 1 -29 10.6586 0.8023
8 1 -26 9.2515 -3.8971
8 1 -23 8.2054 6.1639
8 1 -20 -2.7424 -5.5891
8 1 -17 -7.6333 2.5919
8 1 -14 -15.3595 1.8436
8 1 -11 -16.6057 -6.3369
8 1 -8 -3.7764 8.1880
8 1 -5 8.0856 -6.2071
8 1 -2 -0.8733 3.4431
8 1 1 11.1056 1.0322
8 1 4 -20.5075 -5.5174
8 1 7 -28.7753 7.1821
8 1 10 -23.2345 -6.8817
8 1 13 -0.1107 3.4198
8 1 16 -1.0651 1.8063
8 1 19 2.8430 -4.1347
8 1 22 14.7651 5.5110
8 1 25 6.4371 -4.3464
8 1 28 -0.9926 1.8789
8 1 31 5.1382 0.5010
8 1 34 0.0019 -2.5920
8 1 37 -1.4767 2.9059
8 1 40 -6.9166 -4.8723
8 2 -39 0.4675 -0.4276
8 2 -36 -1.8673 0.2079
8 2 -33 -0.4377 -2.9413
8 2 -30 -5.2948 3.1181
8 2 -27 -2.1373 -0.1298
8 2 -24 -4.4203 -2.9270
8 2 -21 -9.1711 5.2308
8 2 -18 -9.6158 -5.2370
8 2 -15 -6.6446 2.7628
8 2 -12 -9.9988 0.2977
8 2 -9 -2.3834 -3.4373
8 2 -6 23.5522 6.3984
8 2 -3 49.7391 -7.5432
8 2 0 59.6102 4.7864
8 2 3 49.3420 0.1180
8 2 6 -11.5348 -4.1861
8 2 9 -22.3160 6.8326
8 2 12 -27.6083 -6.3805
8 2 15 -5.8793 3.6492
8 2 18 14.9017 -0.6583
8 2 21 0.6032 -2.5690
8 2 24 -5.9928 4.7815
8 2 27 -3.5826 -4.8092
8 2 30 -3.9585 3.0230
8 2 33 -3.8066 -0.5791
8 2 36 -1.9530 -3.4794
8 2 39 10.0427 3.5018
8 3 -40 6.3461 -6.3332
8 3 -37 4.7032 -0.5952
8 3 -34 1.5646 5.1072
8 3 -31 -2.1800 -5.5229
8 3 -28 -3.2483 2.2308
8 3 -25 -0.3272 -0.4149
8 3 -22 -0.0623 -2.8552
8 3 -19 9.6824 6.0393
8 3 -16 3.8615 -7.4055
8 3 -13 -11.1895 6.4524
8 3 -10 11.0958 -1.7725
8 3 -7 5.1672 -4.1513
8 3 -4 -16.1711 8.5531
8 3 -1 -29.2209 -9.0994
8 3 2 -17.4643 6.3943
8 3 5 13.1117 -2.2640
8 3 8 3.9451 -2.5380
8 3 11 16.9379 5.9773
8 3 14 6.0387 -8.5814
8 3 17 -8.4584 7.8790
8 3 20 0.3337 -3.3226
8 3 23 0.0435 -2.4056
8 3 26 0.2499 5.4819
8 3 29 -3.6644 -5.9424
8 3 32 3.5099 3.5491
8 3 35 11.5632 -2.2681
8 3 38 5.0771 1.3093
8 3 41 2.4606 6.7210
8 4 -38 3.9839 4.2040
8 4 -35 -0.2708 -2.3893
8 4 -32 1.8539 0.6729
8 4 -29 -1.0058 -1.3604
8 4 -26 2.7636 3.1127
8 4 -23 9.6576 -1.5205
8 4 -20 -7.3605 -2.2924
8 4 -17 -11.6517 4.7516
8 4 -14 -4.9988 -4.8347
8 4 -11 -18.8721 3.6067
8 4 -8 14.2453 -1.2169
8 4 -5 36.9025 -0.7730
8 4 -2 19.6067 2.8810
8 4 1 -3.9343 -5.4848
8 4 4 7.7674 5.8879
8 4 7 17.8135 -3.7746
8 4 10 11.8816 0.1744
8 4 13 9.5523 3.5407
8 4 16 -7.1304 -4.8462
8 4 19 -16.7129 3.9394
8 4 22 -7.4349 -2.2733
8 4 25 -6.5294 1.6398
8 4 28 0.1247 0.8051
8 4 31 0.6262 -2.6310
8 4 34 -0.3553 3.9536
8 4 37 -2.3309 -1.2132
8 4 40 -2.9445 -2.6608
8 5 -39 -7.6596 -3.8353
8 5 -36 -0.4898 -3.2595
8 5 -33 -1.7093 0.1793
8 5 -30 -1.6000 1.0938
8 5 -27 -8.2630 -2.7200
8 5 -24 -7.3314 2.0949
8 5 -21 -0.3683 -0.5992
8 5 -18 10.3185 0.5709
8 5 -15 24.3147 0.1363
8 5 -12 13.9410 -2.3431
8 5 -9 -19.6372 3.8623
8 5 -6 -19.1678 -4.0193
8 5 -3 -0.2376 1.2930
8 5 0 15.9946 1.3276
8 5 3 -0.5138 -2.8423
8 5 6 -1.1416 3.2818
8 5 9 -18.3689 -3.2258
8 5 12 -20.5240 2.4368
8 5 15 -0.5600 -1.0077
8 5 18 10.1759 -1.2383
8 5 21 5.2589 3.4524
8 5 24 7.5993 -3.7170
8 5 27 3.3686 1.6846
8 5 30 -2.9974 0.2427
8 5 33 -21.7922 0.7531
8 5 36 -14.3319 -2.1359
8 5 39 3.5134 -7.3991
8 6 -37 -1.6176 3.7988
8 6 -34 -0.6326 1.7652
8 6 -31 -0.8274 -1.7364
8 6 -28 -2.2668 0.8743
8 6 -25 -7.1396 -1.0156
8 6 -22 1.0697 1.1364
8 6 -19 -0.8974 -1.1602
8 6 -16 -7.3394 -0.5145
8 6 -13 5.9079 2.2752
8 6 -10 0.0313 -2.1812
8 6 -7 -16.9932 1.4697
8 6 -4 -2.5400 -0.1394
8 6 -1 3.9666 -0.6957
8 6 2 16.9859 0.8579
8 6 5 14.4634 -1.3235
8 6 8 19.8492 1.7739
8 6 11 0.5996 -0.9702
8 6 14 -6.1334 -0.1490
8 6 17 -1.0788 1.3450
8 6 20 -2.7761 -0.8571
8 6 23 -8.7025 -0.4161
8 6 26 0.0251 -0.1598
8 6 29 -4.4709 2.1967
8 6 32 12.9603 -0.6446
8 6 35 4.1607 -1.5999
8 6 38 -6.2507 0.8240
8 7 -35 1.9287 -4.5488
8 7 -32 4.4293 -0.4515
8 7 -29 2.3001 0.4201
8 7 -26 -0.9812 0.8358
8 7 -23 -5.7538 0.1453
8 7 -20 -6.1424 -0.6800
8 7 -17 -2.7983 0.8918
8 7 -14 -5.5536 -0.6732
8 7 -11 16.6728 -0.4936
8 7 -8 30.1995 0.9196
8 7 -5 4.2718 -0.4557
8 7 -2 -5.1640 0.0349
8 7 1 -18.2110 0.0092
8 7 4 -16.9182 -0.4478
8 7 7 -13.9396 1.0849
8 7 10 11.7057 -0.7531
8 7 13 3.7439 0.3073
8 7 16 -10.8676 1.1469
8 7 19 -0.0610 -1.5644
8 7 22 5.5870 0.3575
8 7 25 -3.9206 1.1416
8 7 28 6.9887 0.6422
8 7 31 -1.8378 -0.3427
8 7 34 3.2481 1.0772
8 7 37 -2.8984 5.9529
8 8 -33 -8.9740 3.7759
8 8 -30 -2.5797 -0.7961
8 8 -27 6.5128 -1.6539
8 8 -24 1.7448 0.3070
8 8 -21 5.7980 0.2201
8 8 -18 4.1726 0.1021
8 8 -15 -1.1037 -0.4798
8 8 -12 -12.6075 0.5025
8 8 -9 -9.4758 -0.5375
8 8 -6 2.7760 0.3318
8 8 -3 -3.4764 0.4937
8 8 0 10.5218 -1.3083
8 8 3 9.3033 1.6506
8 8 6 2.7377 -0.7227
8 8 9 -5.7050 -0.0762
8 8 12 14.7450 0.6994
8 8 15 11.4627 -1.0861
8 8 18 -5.9312 0.1864
8 8 21 -2.5315 -1.1931
8 8 24 -1.3959 1.7642
8 8 27 -1.8174 -1.3343
8 8 30 4.3948 -1.4239
8 8 33 -0.2223 4.0472
8 9 -34 -0.1350 -3.8380
8 9 -31 -0.9900 -2.7336
8 9 -28 -4.4212 3.5938
8 9 -25 1.7243 0.2168
8 9 -22 -0.3124 -0.5656
8 9 -19 -0.8989 0.5175
8 9 -16 3.1796 -0.8449
8 9 -13 1.5166 1.3025
8 9 -10 -11.5404 -0.9983
8 9 -7 -5.6437 1.0407
8 9 -4 12.5584 0.2836
8 9 -1 2.9103 -2.2673
8 9 2 1.6250 3.0817
8 9 5 3.3293 -1.5574
8 9 8 -4.7301 -0.5843
8 9 11 -19.4244 2.1218
8 9 14 1.7957 -2.5511
8 9 17 6.6820 1.7938
8 9 20 -6.6619 1.0180
8 9 23 4.3847 -1.0678
8 9 26 1.3992 -0.8532
8 9 29 -6.2217 -0.4283
8 9 32 -6.5104 6.2518
8 10 -32 3.1590 6.3993
8 10 -29 3.4038 -0.1276
8 10 -26 -1.9972 -3.2741
8 10 -23 -0.6989 1.0567
8 10 -20 2.6331 1.1838
8 10 -17 -0.0989 0.4875
8 10 -14 -2.9125 -1.3351
8 10 -11 3.0752 2.1633
8 10 -8 -5.1946 -0.0964
8 10 -5 -6.7226 -1.3527
8 10 -2 0.2863 2.2270
8 10 1 -8.1421 -2.4928
8 10 4 -4.1304 1.0075
8 10 7 5.4754 0.1581
8 10 10 -1.6540 -1.2772
8 10 13 -13.1339 1.0800
8 10 16 6.5839 -1.4210
8 10 19 20.0323 2.0962
8 10 22 0.4800 -1.4513
8 10 25 -7.7434 -0.3302
8 10 28 -6.4857 3.1668
8 10 31 4.6730 1.4184
8 11 -30 1.0421 -5.4746
8 11 -27 4.1259 1.4051
8 11 -24 3.8023 1.8548
8 11 -21 -3.3335 -3.0942
8 11 -18 -0.5970 0.8878
8 11 -15 3.9870 0.4572
8 11 -12 -0.5829 0.2390
8 11 -9 5.1272 0.1469
8 11 -6 -4.3433 -0.5360
8 11 -3 -5.4865 1.6487
8 11 0 12.6368 -2.1710
8 11 3 8.9300 1.4693
8 11 6 -6.1407 1.6134
8 11 9 1.4737 -2.7217
8 11 12 2.2189 1.2774
8 11 15 -4.3345 -0.3710
8 11 18 1.2055 0.7161
8 11 21 -1.3715 -0.6872
8 11 24 -14.1218 -1.2710
8 11 27 2.3427 1.6646
8 11 30 2.2562 -4.7345
8 12 -28 -2.2213 2.7325
8 12 -25 -10.9551 -4.4563
8 12 -22 3.5239 2.1921
8 12 -19 2.3108 1.1033
8 12 -16 5.0036 -1.4701
8 12 -13 10.5691 0.1684
8 12 -10 1.4691 -0.2466
8 12 -7 3.6596 1.5001
8 12 -4 -3.5972 -0.7454
8 12 -1 -7.7028 0.0993
8 12 2 2.4202 0.3526
8 12 5 7.4412 -0.1987
8 12 8 -2.8494 0.1655
8 12 11 2.7333 -0.8872
8 12 14 3.1825 1.2516
8 12 17 -11.1942 -0.5896
8 12 20 -4.5267 -0.0505
8 12 23 9.5836 1.1114
8 12 26 -4.1156 2.3227
8 13 -23 -8.3159 0.8086
8 13 -20 5.3406 -2.8792
8 13 -17 2.8418 2.6548
8 13 -14 -4.1071 1.1165
8 13 -11 -2.9272 -1.3976
8 13 -8 0.5036 1.6426
8 13 -5 6.7258 -0.7046
8 13 -2 3.1110 0.0282
8 13 1 -8.5504 0.8512
8 13 4 0.2818 -0.2890
8 13 7 8.9520 0.5158
8 13 10 -6.9260 -2.1344
8 13 13 -2.0107 1.3788
8 13 16 20.0001 0.3151
8 13 19 16.5897 -0.4779
8 13 22 2.0877 -0.4258
8 13 25 1.4130 -6.3337
8 14 -21 -5.4278 0.2309
8 14 -18 4.0272 -0.5808
8 14 -15 5.1512 -2.9996
8 14 -12 3.2033 2.9610
8 14 -9 -8.8933 0.3909
8 14 -6 -3.4313 -2.4289
8 14 -3 1.4271 0.6621
8 14 0 7.1517 -0.4497
8 14 3 -3.5085 0.9879
8 14 6 -10.8244 -0.5939
8 14 9 5.0344 1.2357
8 14 12 -3.5055 0.6710
8 14 15 -13.1772 0.5426
8 14 18 -6.5403 -0.0083
8 14 21 -0.5192 -0.6400
8 15 -16 2.5826 -0.1904
8 15 -13 4.8415 -1.3665
8 15 -10 8.4550 -2.0471
8 15 -7 -0.1843 1.8656
8 15 -4 -4.0540 1.5972
8 15 -1 -7.7041 -2.6463
8 15 2 2.0574 1.3502
8 15 5 10.2539 0.5436
8 15 8 -2.4168 -1.1294
8 15 11 8.6626 0.0906
8 15 14 8.4537 -1.1758
8 15 17 -7.5494 6.4214
8 16 -11 -1.9335 -0.6380
8 16 -8 1.7365 2.0230
8 16 -5 3.8777 -0.9377
8 16 -2 4.4233 0.1506
8 16 1 -11.8729 -1.1329
8 16 4 -13.5133 1.5107
8 16 7 5.2145 1.5106
8 16 10 3.1351 -2.5959
8 16 13 -5.6790 2.4171
8 17 -3 -0.2194 5.8967
8 17 0 13.4072 -5.1178
9 1 -40 -5.5071 -4.6978
9 1 -37 -4.7168 2.5826
9 1 -34 -4.3869 0.3388
9 1 -31 2.8841 -3.0891
9 1 -28 -3.1734 4.6915
9 1 -25 5.1902 -5.1584
9 1 -22 16.3200 3.9696
9 1 -19 19.2704 -0.5419
9 1 -16 -1.1014 -3.9074
9 1 -13 -0.4093 6.8414
9 1 -10 10.1296 -7.8002
9 1 -7 -13.7381 6.0358
9 1 -4 -32.8106 -1.2305
9 1 -1 8.9492 -3.7205
9 1 2 14.4431 7.0973
9 1 5 -5.9251 -8.9652
9 1 8 7.0346 6.7703
9 1 11 22.8401 -2.0026
9 1 14 -10.7235 -2.5928
9 1 17 -11.8815 5.8716
9 1 20 4.9122 -6.6392
9 1 23 2.7749 4.9477
9 1 26 1.9039 -2.1619
9 1 29 4.8715 -0.9464
9 1 32 4.9429 3.2872
9 1 35 -2.4433 -3.3454
9 1 38 -2.5240 3.7799
9 1 41 9.3260 0.6826
9 2 -38 -0.0898 0.9171
9 2 -35 -0.1850 -0.1216
9 2 -32 0.2568 -0.3802
9 2 -29 1.6588 -2.1950
9 2 -26 -0.0462 5.3700
9 2 -23 -4.6767 -5.4239
9 2 -20 -3.6356 3.3008
9 2 -17 9.0296 0.1875
9 2 -14 2.6400 -4.0625
9 2 -11 -6.7941 6.7323
9 2 -8 6.5575 -7.4717
9 2 -5 -16.2783 5.0518
9 2 -2 -43.0259 -1.0379
9 2 1 -12.7011 -3.8178
9 2 4 1.9373 7.6490
9 2 7 8.5886 -7.5048
9 2 10 13.1977 4.6737
9 2 13 10.8614 -0.7297
9 2 16 -13.5149 -3.0265
9 2 19 -11.9257 4.6565
9 2 22 9.0730 -4.8431
9 2 25 4.4070 3.3323
9 2 28 -4.4831 -1.3881
9 2 31 -2.4709 -1.0244
9 2 34 3.0013 4.2187
9 2 37 -11.1623 -2.7140
9 2 40 -19.5158 -1.5833
9 3 -39 0.4343 -5.0875
9 3 -36 0.1130 -4.8442
9 3 -33 -6.1056 4.6173
9 3 -30 -2.8425 0.4221
9 3 -27 0.3876 -2.4823
9 3 -24 -4.7324 2.4495
9 3 -21 -3.8202 -3.0500
9 3 -18 3.4982 3.2174
9 3 -15 8.4490 -1.1059
9 3 -12 14.9920 -1.9888
9 3 -9 -9.6111 4.1695
9 3 -6 -5.4394 -5.1262
9 3 -3 -2.8985 3.7310
9 3 0 -6.6231 -0.2509
9 3 3 12.7002 -2.4112
9 3 6 2.1294 3.3203
9 3 9 -13.8478 -3.9040
9 3 12 -4.6268 3.2714
9 3 15 13.2487 -1.3245
9 3 18 3.1806 -1.2686
9 3 21 -4.5947 3.3821
9 3 24 1.7791 -3.1514
9 3 27 2.2908 1.6192
9 3 30 1.5388 0.6781
9 3 33 -8.7237 0.3629
9 3 36 3.1800 0.8444
9 3 39 4.6251 -3.7622
9 4 -37 -0.2193 4.6346
9 4 -34 5.9968 -2.5884
9 4 -31 5.0470 1.1663
9 4 -28 1.3028 -1.6714
9 4 -25 2.5571 0.4158
9 4 -22 0.3958 3.6469
9 4 -19 -1.3489 -6.2825
9 4 -16 0.2332 5.3190
9 4 -13 -3.1248 -2.4102
9 4 -10 3.5622 -1.4737
9 4 -7 -8.1772 4.5097
9 4 -4 1.2620 -6.1747
9 4 -1 -2.4450 5.9746
9 4 2 -15.2707 -3.8650
9 4 5 -15.9190 -0.3638
9 4 8 -9.7047 4.6932
9 4 11 -13.6539 -6.5168
9 4 14 -2.2346 5.8152
9 4 17 18.6106 -2.7428
9 4 20 7.1921 -0.6484
9 4 23 4.5635 2.1294
9 4 26 5.9766 -3.9071
9 4 29 1.9639 4.7783
9 4 32 8.4645 -2.2703
9 4 35 -1.3681 -1.7008
9 4 38 0.2550 2.0172
9 5 -38 2.7335 1.8766
9 5 -35 -2.3199 -1.1694
9 5 -32 -1.7533 -2.1627
9 5 -29 5.1030 2.2323
9 5 -26 6.2260 -1.3786
9 5 -23 4.2713 -1.4061
9 5 -20 3.9070 3.1804
9 5 -17 -9.5718 -3.3948
9 5 -14 -22.5137 3.0258
9 5 -11 -2.1222 -2.0434
9 5 -8 20.3070 -0.0957
9 5 -5 4.5025 2.5629
9 5 -2 8.8014 -4.0797
9 5 1 0.7568 4.3872
9 5 4 -7.5288 -2.6982
9 5 7 7.0008 0.2347
9 5 10 30.2562 1.7924
9 5 13 12.0768 -3.1923
9 5 16 -5.1330 3.8222
9 5 19 -0.2612 -3.5191
9 5 22 -8.2329 1.2783
9 5 25 -0.6649 1.9519
9 5 28 2.9642 -2.8440
9 5 31 -2.9542 0.3544
9 5 34 10.2413 -0.5215
9 5 37 10.3102 4.9917
9 6 -36 1.4533 4.1587
9 6 -33 1.8789 2.5826
9 6 -30 0.0579 0.5806
9 6 -27 -2.3582 1.7780
9 6 -24 -0.0118 -2.4822
9 6 -21 -0.3964 1.6456
9 6 -18 8.5102 -0.4305
9 6 -15 16.6886 -1.1090
9 6 -12 -0.4637 3.0663
9 6 -9 -4.1409 -3.5841
9 6 -6 0.0698 3.2104
9 6 -3 -18.7542 -1.5740
9 6 0 -5.7781 -0.4299
9 6 3 1.9796 3.0930
9 6 6 -10.1041 -4.4230
9 6 9 -12.5449 3.5610
9 6 12 6.1646 -1.9675
9 6 15 1.5350 0.6712
9 6 18 -3.7849 1.1022
9 6 21 1.8906 -2.3929
9 6 24 -2.9002 4.2332
9 6 27 2.0297 -4.0270
9 6 30 11.7096 0.4356
9 6 33 0.1759 3.4042
9 6 36 -4.2299 0.9554
9 7 -34 7.1351 -2.6217
9 7 -31 0.8604 -2.2574
9 7 -28 3.0700 -0.7383
9 7 -25 10.1391 1.7135
9 7 -22 -1.4630 -0.9179
9 7 -19 -9.1615 0.2447
9 7 -16 -3.2692 0.4435
9 7 -13 2.2122 -1.3925
9 7 -10 -9.6732 1.3483
9 7 -7 -5.5837 -1.2052
9 7 -4 10.0353 0.3896
9 7 -1 -2.9663 -0.1317
9 7 2 11.6061 -0.1440
9 7 5 14.5239 -0.0373
9 7 8 -7.7724 -0.8687
9 7 11 -13.2075 1.9663
9 7 14 3.1473 -2.1099
9 7 17 7.4710 0.3795
9 7 20 4.7270 0.9945
9 7 23 4.4465 -1.7760
9 7 26 -6.3680 -0.3020
9 7 29 -9.0417 -0.8096
9 7 32 -6.4338 0.2114
9 7 35 -5.6718 -4.7991
9 8 -32 4.2479 4.9167
9 8 -29 2.0184 1.1772
9 8 -26 -8.7062 -0.6922
9 8 -23 -0.1975 -2.4922
9 8 -20 -1.3196 1.8037
9 8 -17 -7.9093 -0.1339
9 8 -14 0.1663 -1.6010
9 8 -11 9.5074 2.3929
9 8 -8 3.1254 -2.8453
9 8 -5 1.2353 0.7335
9 8 -2 4.8639 1.4742
9 8 1 -16.7035 -1.9513
9 8 4 -4.2106 1.5919
9 8 7 13.6168 -1.9190
9 8 10 1.4145 1.3889
9 8 13 -10.4403 -0.5286
9 8 16 -6.2913 -0.6277
9 8 19 0.1799 1.7875
9 8 22 -2.7066 -3.2769
9 8 25 13.9161 0.9485
9 8 28 6.0457 1.1358
9 8 31 5.5201 -2.4766
9 8 34 8.9930 -3.3114
9 9 -30 -2.5498 -5.2012
9 9 -27 0.7391 0.5348
9 9 -24 0.8502 3.1758
9 9 -21 5.0412 -1.5730
9 9 -18 5.5283 -1.4508
9 9 -15 -6.1528 1.7824
9 9 -12 -0.8997 -0.6330
9 9 -9 9.8771 -0.3637
9 9 -6 -0.3069 0.3186
9 9 -3 -0.8850 -0.4332
9 9 0 9.4548 0.0881
9 9 3 -6.3699 -0.2043
9 9 6 -5.1146 0.5974
9 9 9 5.2166 -0.9107
9 9 12 2.1227 0.5515
9 9 15 -3.7398 1.4675
9 9 18 -10.9676 -1.6580
9 9 21 -2.5745 -0.1566
9 9 24 -6.9426 1.5052
9 9 27 3.9798 0.6834
9 9 30 -0.6395 -3.5170
9 10 -28 -3.4422 1.1623
9 10 -25 -0.8390 -2.5142
9 10 -22 -3.0286 -0.5009
9 10 -19 -3.0972 0.4235
9 10 -16 4.0557 2.5011
9 10 -13 -1.6334 -3.5354
9 10 -10 0.7335 1.0739
9 10 -7 8.3987 0.9189
9 10 -4 -1.1028 -2.8786
9 10 -1 -4.8657 3.5085
9 10 2 4.1801 -1.8184
9 10 5 -0.6263 -0.6363
9 10 8 5.1850 0.5391
9 10 11 14.7377 -0.7666
9 10 14 -0.3648 2.1229
9 10 17 -7.5609 -2.1653
9 10 20 -5.2950 -0.1000
9 10 23 3.0901 1.8373
9 10 26 7.6831 -2.5805
9 10 29 16.7940 -2.6819
9 11 -26 -5.9489 2.8285
9 11 -23 1.9744 1.9664
9 11 -20 8.5256 -0.6845
9 11 -17 -0.2020 -3.2084
9 11 -14 -7.6204 2.0976
9 11 -11 -14.8283 -0.1126
9 11 -8 -9.7901 -0.8306
9 11 -5 4.6206 1.0988
9 11 -2 0.6763 -1.5475
9 11 1 -3.1069 1.0611
9 11 4 -1.3818 -0.8584
9 11 7 -2.5887 -0.3112
9 11 10 -7.9999 1.8693
9 11 13 -2.2914 -1.4605
9 11 16 -0.5468 0.3785
9 11 19 -2.9791 0.0455
9 11 22 6.1920 0.8851
9 11 25 6.4685 0.5072
9 11 28 -14.9659 1.9939
9 12 -24 2.1522 -6.2593
9 12 -21 -7.4384 1.1654
9 12 -18 -6.6931 1.1507
9 12 -15 5.6087 -1.3307
9 12 -12 6.1144 0.1344
9 12 -9 0.2155 -1.6994
9 12 -6 3.5938 2.7689
9 12 -3 10.9356 -1.9850
9 12 0 2.4270 0.9172
9 12 3 -3.1248 0.1502
9 12 6 -6.5887 -3.1930
9 12 9 0.0209 3.4864
9 12 12 1.1769 -1.7218
9 12 15 -3.5374 -0.2959
9 12 18 -1.4243 2.0004
9 12 21 -6.7163 -2.5489
9 12 24 -9.7980 -0.7694
9 13 -22 -3.5626 1.8093
9 13 -19 -3.7990 -3.4721
9 13 -16 -5.6984 -0.0719
9 13 -13 3.9714 1.3448
9 13 -10 12.0989 0.1080
9 13 -7 -6.0742 -2.6363
9 13 -4 -12.5426 1.1255
9 13 -1 -6.1383 0.3186
9 13 2 5.0492 -1.0227
9 13 5 12.5663 1.3713
9 13 8 -0.5050 -0.4005
9 13 11 3.7851 0.5048
9 13 14 0.9566 -0.5497
9 13 17 -5.7135 -1.2376
9 13 20 -0.8948 -0.5749
9 13 23 1.6851 3.5492
9 14 -17 -3.7759 3.0897
9 14 -14 -10.9540 -4.6723
9 14 -11 -7.3431 0.0223
9 14 -8 10.6014 1.1831
9 14 -5 5.6778 -0.8445
9 14 -2 10.0081 -0.7200
9 14 1 5.0376 0.1946
9 14 4 -4.1619 0.8903
9 14 7 12.3244 -2.0147
9 14 10 -0.7125 2.5982
9 14 13 5.6217 0.6821
9 14 16 11.0089 -4.0582
9 14 19 -1.3792 -1.5761
9 15 -12 -10.1157 3.1625
9 15 -9 -13.9288 -3.6317
9 15 -6 -0.5273 2.8491
9 15 -3 0.9331 -0.1692
9 15 0 8.5480 0.5177
9 15 3 6.7636 1.1953
9 15 6 -12.8699 -2.1500
9 15 9 -1.8472 0.6616
9 15 12 -5.5751 3.5781
9 16 -4 -3.6319 -4.9357
9 16 -1 -18.4888 2.7752
9 16 2 -6.7487 -0.4951
9 16 5 6.3975 -5.0827
10 1 -39 8.6537 -0.9861
10 1 -36 4.0060 -0.8722
10 1 -33 -0.1019 4.0597
10 1 -30 -2.8470 -2.9514
10 1 -27 4.2361 1.3304
10 1 -24 3.9366 1.7593
10 1 -21 -0.7487 -5.0073
10 1 -18 -9.9858 6.4786
10 1 -15 -1.2558 -5.9885
10 1 -12 2.3896 2.9322
10 1 -9 -2.4412 2.3335
10 1 -6 25.3423 -6.6723
10 1 -3 39.7274 9.1454
10 1 0 -5.0452 -7.7974
10 1 3 -40.1828 3.1530
10 1 6 -19.2477 2.1541
10 1 9 -8.5195 -6.0219
10 1 12 -0.9067 8.4027
10 1 15 26.3138 -7.2729
10 1 18 17.6210 3.5554
10 1 21 -4.5697 0.8070
10 1 24 -3.1152 -5.0009
10 1 27 2.5347 6.5840
10 1 30 -8.2457 -4.8963
10 1 33 -13.5821 1.7230
10 1 36 3.4498 0.2866
10 1 39 17.6362 -6.4073
10 2 -37 -4.1969 1.6725
10 2 -34 0.1577 -0.7033
10 2 -31 2.0041 2.0537
10 2 -28 -1.6579 -4.8158
10 2 -25 -4.3138 4.8241
10 2 -22 2.5051 -1.3166
10 2 -19 5.6178 -3.0928
10 2 -16 -6.2105 5.9525
10 2 -13 -7.4264 -7.1214
10 2 -10 -0.8673 5.4397
10 2 -7 -16.4810 -2.0081
10 2 -4 3.5770 -2.5711
10 2 -1 39.5142 6.5991
10 2 2 16.7355 -8.0998
10 2 5 -2.9245 6.7777
10 2 8 4.5612 -2.5249
10 2 11 -13.5421 -2.1153
10 2 14 -16.9786 5.5010
10 2 17 8.1674 -6.8530
10 2 20 6.8309 5.5624
10 2 23 -9.5374 -1.9724
10 2 26 -1.9853 -1.0073
10 2 29 11.1366 3.5919
10 2 32 8.5603 -4.4371
10 2 35 -3.1213 1.5066
10 2 38 -2.4191 0.6049
10 3 -38 1.3297 1.8164
10 3 -35 2.6940 -1.7555
10 3 -32 1.5543 -2.0774
10 3 -29 -0.6175 4.9219
10 3 -26 -2.4046 -5.2968
10 3 -23 -2.7985 2.5661
10 3 -20 -1.3328 -0.2520
10 3 -17 -5.7267 -2.1636
10 3 -14 3.9621 4.9979
10 3 -11 10.0230 -6.9037
10 3 -8 17.1238 6.4352
10 3 -5 -2.3673 -2.8300
10 3 -2 -11.3606 -1.9064
10 3 1 1.4777 5.6589
10 3 4 2.3552 -7.2276
10 3 7 4.4557 6.4243
10 3 10 12.7222 -3.7460
10 3 13 -1.5974 -0.2200
10 3 16 -15.0764 4.2036
10 3 19 -4.4297 -5.8570
10 3 22 1.6061 4.8386
10 3 25 -1.2692 -2.7071
10 3 28 -6.5031 0.2003
10 3 31 -6.6646 0.3467
10 3 34 8.6139 -2.9527
10 3 37 5.0309 6.7952
10 4 -36 1.1996 1.1533
10 4 -33 5.2288 1.8634
10 4 -30 -0.2056 -0.4842
10 4 -27 0.7742 0.0130
10 4 -24 -1.1594 -0.7228
10 4 -21 -7.3393 2.6484
10 4 -18 -1.5004 -1.9724
10 4 -15 0.3249 -0.8859
10 4 -12 5.4767 3.2698
10 4 -9 3.0359 -3.2305
10 4 -6 3.9923 2.6027
10 4 -3 -13.1497 -1.3494
10 4 0 -5.5547 -0.2995
10 4 3 7.9244 1.8671
10 4 6 -0.3963 -2.3613
10 4 9 0.6491 2.8102
10 4 12 11.7004 -1.5916
10 4 15 -1.0990 -0.0371
10 4 18 -12.2461 0.8992
10 4 21 4.5785 -1.3725
10 4 24 -5.1265 1.9698
10 4 27 -3.5687 -3.1636
10 4 30 9.2810 -0.6614
10 4 33 2.5668 2.8863
10 4 36 -2.6722 0.3202
10 5 -34 -12.1298 1.2214
10 5 -31 -8.9200 -1.8602
10 5 -28 0.5126 0.0180
10 5 -25 3.5881 2.0033
10 5 -22 0.4949 -3.5851
10 5 -19 -3.2662 2.3112
10 5 -16 -1.6060 -0.2663
10 5 -13 -4.9659 -0.7755
10 5 -10 -10.6339 1.2988
10 5 -7 -4.2137 -2.7245
10 5 -4 13.4866 3.3598
10 5 -1 6.1175 -2.4095
10 5 2 1.2213 0.8411
10 5 5 3.8336 0.9423
10 5 8 -15.1773 -3.0425
10 5 11 -29.8910 3.5401
10 5 14 -6.9565 -3.4203
10 5 17 8.7409 0.6905
10 5 20 3.1121 2.0679
10 5 23 9.9595 -2.7122
10 5 26 -5.3061 1.3092
10 5 29 -12.1232 0.0982
10 5 32 -8.7118 1.6024
10 5 35 -1.5058 -3.0994
10 6 -35 0.4091 -3.6479
10 6 -32 3.6549 0.2055
10 6 -29 -2.0913 2.1056
10 6 -26 -3.8187 -2.3197
10 6 -23 1.5062 0.7345
10 6 -20 3.9015 0.3232
10 6 -17 -0.3170 0.0280
10 6 -14 -5.1714 -0.0245
10 6 -11 -0.5770 -0.0636
10 6 -8 -1.6226 1.5626
10 6 -5 1.9850 -2.3251
10 6 -2 14.5037 1.6947
10 6 1 5.4352 -0.9620
10 6 4 -0.7009 -0.7334
10 6 7 6.9752 2.6524
10 6 10 -0.7789 -2.6852
10 6 13 -9.2765 0.7934
10 6 16 -1.7202 0.4927
10 6 19 -3.7993 0.4326
10 6 22 -0.2615 -0.9493
10 6 25 9.0803 -0.2475
10 6 28 -5.5748 2.8739
10 6 31 -1.8519 -3.4707
10 6 34 0.8210 -2.5488
10 7 -33 -7.9836 0.3482
10 7 -30 -5.6019 -2.5132
10 7 -27 -3.1145 -1.6433
10 7 -24 -3.6767 2.8091
10 7 -21 10.1748 0.0377
10 7 -18 12.7508 -0.8423
10 7 -15 4.8328 1.0899
10 7 -12 2.4041 -0.7787
10 7 -9 -2.8002 0.7055
10 7 -6 -11.3373 -0.1552
10 7 -3 -12.5019 0.7647
10 7 0 -1.7373 -0.5058
10 7 3 -8.0301 -1.0013
10 7 6 -5.3326 2.7151
10 7 9 12.7770 -3.1432
10 7 12 3.2524 1.8333
10 7 15 -0.7390 0.6406
10 7 18 4.0639 -2.6473
10 7 21 -8.2627 3.1333
10 7 24 -15.1032 -0.7612
10 7 27 3.6167 1.0529
10 7 30 -1.2583 -1.6703
10 7 33 0.2574 -0.7185
10 8 -31 -0.5653 0.4655
10 8 -28 -2.8150 4.5845
10 8 -25 2.5796 0.3433
10 8 -22 -5.7460 -3.7226
10 8 -19 -8.3541 1.5327
10 8 -16 -0.6740 0.4133
10 8 -13 -1.7944 -0.9045
10 8 -10 2.1773 0.4559
10 8 -7 3.2972 0.2939
10 8 -4 -6.0894 -0.2702
10 8 -1 -2.5409 0.0626
10 8 2 14.1088 0.5039
10 8 5 2.6398 -0.4229
10 8 8 -3.5762 0.8439
10 8 11 11.5878 -0.6346
10 8 14 -4.0712 0.1515
10 8 17 -0.5831 -1.5763
10 8 20 6.4810 0.9783
10 8 23 7.2025 2.1503
10 8 26 -6.0140 -2.4354
10 8 29 -2.9036 1.9242
10 8 32 -8.2286 3.8096
10 9 -29 4.3280 -2.4258
10 9 -26 3.8665 -4.8955
10 9 -23 2.5309 2.8116
10 9 -20 1.6714 1.2253
10 9 -17 3.0223 -2.3953
10 9 -14 6.5450 0.9032
10 9 -11 -4.6330 -0.6211
10 9 -8 -6.8607 0.9470
10 9 -5 4.5105 -0.6905
10 9 -2 1.7035 -0.3659
10 9 1 -6.2365 1.7729
10 9 4 4.0114 -2.4365
10 9 7 0.0722 2.9457
10 9 10 -6.3607 -0.5080
10 9 13 12.2182 -1.6043
10 9 16 -0.8152 2.6081
10 9 19 6.7096 -1.3268
10 9 22 7.5147 1.1543
10 9 25 -6.4452 -2.4879
10 9 28 -14.6410 1.1511
10 10 -27 -2.0411 4.2024
10 10 -24 -4.8124 1.4001
10 10 -21 -3.4697 -2.1018
10 10 -18 -1.0048 0.8290
10 10 -15 -1.1100 1.6936
10 10 -12 3.9363 -1.2389
10 10 -9 -3.2426 0.3288
10 10 -6 -4.9385 -0.1182
10 10 -3 -0.4211 -0.0956
10 10 0 -1.8483 0.3116
10 10 3 0.0786 -0.0783
10 10 6 -1.5364 0.6302
10 10 9 -9.6850 0.3767
10 10 12 -6.5566 -1.4779
10 10 15 25.8301 0.2272
10 10 18 11.0807 1.1096
10 10 21 -12.4038 -0.9908
10 10 24 -3.2138 0.5716
10 10 27 5.1685 2.7568
10 11 -25 5.8181 -1.8835
10 11 -22 -0.9928 1.0839
10 11 -19 -3.0589 0.6160
10 11 -16 -3.3294 -2.8311
10 11 -13 8.1478 2.0465
10 11 -10 16.1609 0.6963
10 11 -7 1.9737 -2.2692
10 11 -4 -7.8229 2.3099
10 11 -1 0.0798 -2.3008
10 11 2 -6.8197 0.6848
10 11 5 -2.3995 1.4966
10 11 8 9.4671 -1.4035
10 11 11 4.0183 0.4197
10 11 14 -14.0609 -0.6059
10 11 17 -4.0727 1.2201
10 11 20 8.3701 -0.9646
10 11 23 2.1902 -0.6253
10 11 26 -1.6207 -0.7381
10 12 -23 6.7302 1.4090
10 12 -20 8.6782 -0.9606
10 12 -17 8.7059 1.1165
10 12 -14 -11.5943 0.1993
10 12 -11 -11.4417 -3.0253
10 12 -8 1.3949 1.8662
10 12 -5 1.6216 0.0402
10 12 -2 -0.4922 -0.6156
10 12 1 6.0118 0.9717
10 12 4 1.5793 -0.1840
10 12 7 2.0304 -0.0725
10 12 10 -1.0576 -0.7706
10 12 13 2.8231 -0.1131
10 12 16 2.0912 0.5423
10 12 19 5.5126 0.4192
10 12 22 3.7484 2.3526
10 13 -18 -2.7892 1.0092
10 13 -15 6.2936 -0.8292
10 13 -12 -1.0584 -0.0465
10 13 -9 -8.3775 1.8941
10 13 -6 0.5748 -1.7395
10 13 -3 0.3038 1.5809
10 13 0 -1.8994 0.5691
10 13 3 -2.3444 -2.7483
10 13 6 -19.7533 2.6667
10 13 9 -2.6738 -1.5024
10 13 12 -0.6285 -0.4941
10 13 15 2.7702 -0.4425
10 13 18 -5.5618 2.6111
10 14 -13 8.8808 3.4174
10 14 -10 8.1108 0.5579
10 14 -7 -0.8723 -2.4363
10 14 -4 -6.3828 1.8719
10 14 -1 -15.1709 0.1449
10 14 2 -8.2974 -1.3850
10 14 5 14.1038 0.1413
10 14 8 -4.7203 0.8504
10 14 11 -0.7910 -3.2900
10 14 14 -6.2020 -4.2871
10 15 -8 1.7031 6.4864
10 15 -5 -2.9157 -0.8212
10 15 -2 7.2455 -0.6365
10 15 1 4.6130 1.4224
10 15 4 -3.1975 -2.1345
10 15 7 8.7748 7.6847
11 1 -38 -6.4141 4.4471
11 1 -35 -0.6922 -3.0675
11 1 -32 -0.8192 1.7035
11 1 -29 -0.7963 1.9347
11 1 -26 4.5384 -3.1797
11 1 -23 5.1312 4.6803
11 1 -20 -4.9293 -5.5327
11 1 -17 -0.4146 4.1257
11 1 -14 5.4682 -0.1421
11 1 -11 0.6338 -3.6086
11 1 -8 0.8227 6.7833
11 1 -5 -6.6403 -7.0591
11 1 -2 -21.8620 4.4466
11 1 1 -15.4943 -0.6187
11 1 4 18.7136 -3.0343
11 1 7 21.6558 5.1849
11 1 10 15.6872 -5.5006
11 1 13 3.6127 3.9563
11 1 16 -17.0284 -1.1318
11 1 19 -16.1231 -1.5931
11 1 22 6.6930 3.2088
11 1 25 2.1692 -3.6316
11 1 28 -3.9136 2.3093
11 1 31 6.0439 -1.8024
11 1 34 8.3029 -0.6143
11 1 37 6.3723 5.5916
11 2 -36 -5.7579 0.2668
11 2 -33 -1.3258 -1.6455
11 2 -30 3.3879 -0.3004
11 2 -27 3.3442 -0.3464
11 2 -24 3.5199 -2.9286
11 2 -21 3.2371 5.8397
11 2 -18 -1.8831 -5.8217
11 2 -15 -8.0176 2.9422
11 2 -12 -3.7087 0.9353
11 2 -9 0.9448 -4.6662
11 2 -6 6.5296 6.8486
11 2 -3 10.5316 -6.7259
11 2 0 -6.0424 4.0942
11 2 3 -21.2244 -0.2005
11 2 6 -15.8452 -4.4670
11 2 9 -12.3397 6.4233
11 2 12 5.3730 -6.7115
11 2 15 8.3642 4.0055
11 2 18 0.4336 0.2460
11 2 21 1.1476 -3.3855
11 2 24 8.8506 4.8868
11 2 27 -1.3109 -4.6813
11 2 30 -3.9172 2.6370
11 2 33 -2.9678 1.7018
11 2 36 -5.6019 -2.6657
11 3 -37 -0.2386 4.9705
11 3 -34 -11.6746 3.4001
11 3 -31 -6.9266 -4.3336
11 3 -28 -2.9182 4.1848
11 3 -25 2.4779 0.0002
11 3 -22 10.6408 -2.2889
11 3 -19 11.5099 4.2348
11 3 -16 14.0675 -4.6191
11 3 -13 -10.4154 4.5804
11 3 -10 -23.8676 -2.1039
11 3 -7 -20.0128 -1.6010
11 3 -4 2.0516 5.1235
11 3 -1 17.8147 -6.8732
11 3 2 15.1065 5.7001
11 3 5 11.9014 -2.0597
11 3 8 3.7410 -2.1335
11 3 11 -4.7524 4.9467
11 3 14 3.5577 -5.3175
11 3 17 5.3128 4.1417
11 3 20 -6.9737 -1.1675
11 3 23 -7.4315 -1.4759
11 3 26 2.3781 2.4350
11 3 29 -0.9592 -1.9339
11 3 32 -1.1296 3.1500
11 3 35 -3.6359 -5.6882
11 4 -35 12.5999 -6.8984
11 4 -32 7.8165 3.0494
11 4 -29 4.1820 -0.8628
11 4 -26 -7.8134 2.7378
11 4 -23 -7.6755 -2.3966
11 4 -20 1.9196 -0.3228
11 4 -17 -3.2151 3.7369
11 4 -14 5.6547 -6.4922
11 4 -11 6.5842 5.7453
11 4 -8 7.6116 -3.2495
11 4 -5 -3.5943 -0.6971
11 4 -2 -9.1989 4.2279
11 4 1 -6.2515 -6.3067
11 4 4 -9.0362 5.7663
11 4 7 0.6354 -3.5048
11 4 10 4.1772 0.7107
11 4 13 0.2170 1.9635
11 4 16 -1.0961 -3.7846
11 4 19 1.0422 4.9813
11 4 22 -5.3999 -5.0184
11 4 25 4.5675 2.2240
11 4 28 3.0437 3.1628
11 4 31 -15.1911 -4.9163
11 4 34 -12.8465 -0.9423
11 5 -33 4.7500 3.1748
11 5 -30 3.9693 -2.2584
11 5 -27 1.5431 -3.3221
11 5 -24 0.5561 3.4369
11 5 -21 0.7426 -1.9768
11 5 -18 -0.4471 -0.3438
11 5 -15 3.8633 1.4652
11 5 -12 7.3974 -2.4079
11 5 -9 1.9600 2.0416
11 5 -6 -0.5431 -2.4454
11 5 -3 -3.6224 1.6988
11 5 0 -11.1526 -0.7355
11 5 3 -3.3249 -1.2876
11 5 6 12.0107 2.6759
11 5 9 22.9957 -3.6980
11 5 12 18.4581 2.5225
11 5 15 4.5291 -0.0581
11 5 18 -6.6367 -1.8250
11 5 21 -7.5928 1.5148
11 5 24 -6.9032 -0.7171
11 5 27 8.5824 1.1558
11 5 30 12.1156 -2.0207
11 5 33 12.7239 1.6615
11 6 -31 -0.8481 -0.4947
11 6 -28 3.1884 3.3174
11 6 -25 3.3925 -0.6653
11 6 -22 -6.3228 0.8200
11 6 -19 -4.5372 -1.8728
11 6 -16 -4.0883 1.9486
11 6 -13 -0.0599 -0.8056
11 6 -10 5.6586 -0.8894
11 6 -7 4.2997 3.4369
11 6 -4 -0.3659 -4.1386
11 6 -1 -1.1997 2.4469
11 6 2 -2.6057 0.0118
11 6 5 -6.3923 -1.1209
11 6 8 -5.9385 1.7158
11 6 11 6.8216 -0.9470
11 6 14 6.2264 2.5052
11 6 17 -2.0964 -2.1731
11 6 20 4.6894 1.5822
11 6 23 4.7696 1.2463
11 6 26 -2.8754 -3.1319
11 6 29 15.5379 3.0984
11 6 32 1.1800 3.4170
11 7 -32 -0.0174 6.4054
11 7 -29 7.8767 -0.2914
11 7 -26 5.1449 -2.6906
11 7 -23 -3.1654 1.2320
11 7 -20 -3.9467 0.7467
11 7 -17 2.4337 -1.3111
11 7 -14 1.0204 0.1563
11 7 -11 -6.0670 0.7753
11 7 -8 -2.5021 -0.6713
11 7 -5 5.2156 -0.0479
11 7 -2 8.8451 0.6227
11 7 1 5.0326 0.0620
11 7 4 -0.6399 -0.7220
11 7 7 -2.3917 0.6665
11 7 10 -6.5358 -0.2597
11 7 13 5.8174 -1.3758
11 7 16 3.2961 0.6375
11 7 19 -3.4837 0.6225
11 7 22 -0.6035 -0.5482
11 7 25 8.0150 -0.1838
11 7 28 -2.2325 1.3017
11 7 31 1.7900 2.6485
11 8 -30 -2.7947 -5.7326
11 8 -27 -4.4712 1.7316
11 8 -24 2.9991 0.2992
11 8 -21 1.7199 -0.6874
11 8 -18 0.6775 -0.5862
11 8 -15 1.6374 0.8924
11 8 -12 3.2087 0.3155
11 8 -9 5.1615 -1.9964
11 8 -6 2.9630 2.1693
11 8 -3 -0.9037 -0.4421
11 8 0 -1.0138 -1.2565
11 8 3 -5.6597 1.5178
11 8 6 -8.2142 -1.9257
11 8 9 -7.9400 0.9711
11 8 12 -16.2529 -1.0805
11 8 15 6.5775 0.5774
11 8 18 -0.5189 1.1111
11 8 21 -5.7393 -3.5494
11 8 24 -4.6874 1.7842
11 8 27 -3.7034 -0.2935
11 8 30 4.9088 -3.8132
11 9 -28 -1.5053 3.3254
11 9 -25 -5.6902 -2.3835
11 9 -22 -0.8486 1.8523
11 9 -19 -6.4047 1.7082
11 9 -16 -4.1296 -2.3642
11 9 -13 3.4729 1.4045
11 9 -10 3.8996 -0.6186
11 9 -7 -0.3536 0.6675
11 9 -4 -2.7182 0.0924
11 9 -1 -3.5314 -0.9883
11 9 2 2.3184 1.3797
11 9 5 7.6376 -0.5714
11 9 8 4.0343 -0.8730
11 9 11 6.0687 1.3279
11 9 14 -16.7144 0.1509
11 9 17 -2.4257 0.4259
11 9 20 0.8513 -0.4726
11 9 23 1.5311 0.0575
11 9 26 11.3492 2.8216
11 10 -26 7.3367 2.6415
11 10 -23 4.9344 -0.5882
11 10 -20 7.2109 -2.7803
11 10 -17 -4.0890 3.7677
11 10 -14 -8.5133 -1.0170
11 10 -11 -3.0351 0.8495
11 10 -8 5.9723 -1.5566
11 10 -5 12.3249 0.7639
11 10 -2 8.3744 1.5856
11 10 1 7.1335 -2.6361
11 10 4 2.0059 2.4494
11 10 7 3.2317 -2.4993
11 10 10 0.3755 0.4218
11 10 13 2.0122 2.6851
11 10 16 -17.8685 -4.9837
11 10 19 -4.7161 1.5074
11 10 22 9.2434 0.0381
11 10 25 3.5959 -2.1718
11 11 -21 -9.7426 3.0916
11 11 -18 0.3504 2.1739
11 11 -15 6.9147 -3.2978
11 11 -12 -4.1389 1.6653
11 11 -9 -11.4853 3.0397
11 11 -6 -11.1287 -2.7248
11 11 -3 -0.5727 0.4707
11 11 0 -0.0819 0.4560
11 11 3 0.3221 -0.5947
11 11 6 1.7055 0.2443
11 11 9 1.8154 0.3185
11 11 12 2.0740 0.9768
11 11 15 14.9105 -0.6409
11 11 18 -0.4440 0.5589
11 11 21 -6.4923 1.3178
11 12 -19 -1.8234 -3.9556
11 12 -16 -3.9094 4.8086
11 12 -13 3.8996 1.6070
11 12 -10 5.8544 -2.8059
11 12 -7 7.8220 3.0340
11 12 -4 2.6257 -0.0959
11 12 -1 -1.7315 -0.6159
11 12 2 -3.3569 -0.5634
11 12 5 2.5800 0.6817
11 12 8 -3.8409 0.6510
11 12 11 -3.7688 -1.3892
11 12 14 -8.4198 4.5450
11 12 17 3.2900 -1.9681
11 12 20 -5.9297 -6.1558
11 13 -14 0.7979 -3.0745
11 13 -11 1.8229 -0.4064
11 13 -8 -2.1879 1.0035
11 13 -5 0.0873 -1.1394
11 13 -2 3.6058 0.6737
11 13 1 6.8195 -0.5292
11 13 4 -5.1799 0.8668
11 13 7 8.2369 -1.2707
11 13 10 2.5782 0.3960
11 13 13 3.4916 3.0085
11 14 -9 -1.2313 -6.9317
11 14 -6 6.9757 -0.1625
11 14 -3 10.7661 -0.0960
11 14 0 2.7029 -1.6713
11 14 3 1.3153 2.5611
11 14 6 -8.5356 -0.5102
11 14 9 3.6053 -4.6810
12 1 -37 9.8742 2.8263
12 1 -34 3.8139 -0.9639
12 1 -31 1.0479 -1.0638
12 1 -28 -2.2594 3.3631
12 1 -25 -0.2856 -4.1194
12 1 -22 -7.5271 2.1526
12 1 -19 -3.0568 -0.1601
12 1 -16 5.8713 -3.5907
12 1 -13 6.4875 6.9599
12 1 -10 6.1775 -7.6954
12 1 -7 7.5538 5.0002
12 1 -4 -3.7102 0.1276
12 1 -1 -4.4502 -5.3719
12 1 2 14.5645 7.7303
12 1 5 5.4700 -7.2847
12 1 8 -4.5323 5.2932
12 1 11 -6.0184 -1.1758
12 1 14 -6.5038 -3.2908
12 1 17 2.0683 5.8066
12 1 20 14.4119 -6.5436
12 1 23 2.7368 4.6769
12 1 26 1.5078 -1.0039
12 1 29 -3.7727 -1.1293
12 1 32 -7.9772 4.5983
12 1 35 -0.5043 -6.6200
12 2 -35 7.0215 -1.4156
12 2 -32 1.4207 0.0254
12 2 -29 3.1051 -0.9276
12 2 -26 -1.1106 3.3459
12 2 -23 0.0530 -4.8784
12 2 -20 -5.2128 4.1731
12 2 -17 -6.2367 -0.8098
12 2 -14 7.5897 -3.4544
12 2 -11 9.2000 5.4291
12 2 -8 10.6216 -5.7355
12 2 -5 9.3327 4.3269
12 2 -2 -10.5704 -1.7601
12 2 1 -15.4705 -0.8182
12 2 4 8.0797 3.6681
12 2 7 6.9302 -5.6893
12 2 10 -7.9429 5.2920
12 2 13 -6.2090 -3.1382
12 2 16 5.3179 -0.5634
12 2 19 2.9987 3.2255
12 2 22 -4.8197 -3.8429
12 2 25 -10.7026 3.8346
12 2 28 0.8320 -0.7061
12 2 31 4.5578 -1.7646
12 2 34 0.0689 1.4845
12 3 -33 6.3761 4.4964
12 3 -30 -2.3904 -0.3648
12 3 -27 2.5066 -2.3943
12 3 -24 1.4454 3.7699
12 3 -21 -2.5405 -3.7410
12 3 -18 -0.6495 1.6330
12 3 -15 -8.3190 0.3251
12 3 -12 4.6722 -1.4272
12 3 -9 1.5729 3.5157
12 3 -6 1.2959 -4.8559
12 3 -3 3.5713 4.8104
12 3 0 -4.0256 -2.0959
12 3 3 -7.1481 -1.1800
12 3 6 -7.5492 4.3660
12 3 9 -0.0166 -5.0070
12 3 12 1.5276 4.1372
12 3 15 -0.1456 -0.8432
12 3 18 3.4127 -2.4036
12 3 21 13.7790 2.2604
12 3 24 11.1350 -0.5536
12 3 27 1.3092 1.7865
12 3 30 9.2516 -2.9436
12 3 33 12.0544 2.9968
12 4 -34 -14.7579 -7.6610
12 4 -31 -12.0296 -2.3928
12 4 -28 -8.9020 0.2073
12 4 -25 2.6560 -0.1311
12 4 -22 0.2438 0.8365
12 4 -19 -3.3189 -2.4786
12 4 -16 2.4310 3.3966
12 4 -13 -0.4346 -2.2488
12 4 -10 1.5350 -0.5894
12 4 -7 -4.3614 3.8787
12 4 -4 2.0380 -4.7548
12 4 -1 13.6862 3.6213
12 4 2 7.6930 -0.8877
12 4 5 1.4143 -1.0478
12 4 8 1.4700 2.0574
12 4 11 0.2753 -2.4326
12 4 14 -7.6466 1.8676
12 4 17 -3.0055 -2.3858
12 4 20 0.3790 1.2815
12 4 23 -1.0266 1.8913
12 4 26 -8.8535 -4.3499
12 4 29 -5.5217 2.3458
12 4 32 8.2806 2.2948
12 5 -32 7.4072 4.0915
12 5 -29 7.0821 1.9082
12 5 -26 -5.2795 -1.5564
12 5 -23 0.0782 -0.3625
12 5 -20 2.6451 3.3783
12 5 -17 5.8363 -3.6304
12 5 -14 -2.0168 2.5808
12 5 -11 -1.4969 -0.4468
12 5 -8 2.4998 -1.2043
12 5 -5 -3.0044 1.8646
12 5 -2 -1.4332 -2.0990
12 5 1 4.5636 3.6970
12 5 4 0.6005 -3.8994
12 5 7 -17.0272 1.7300
12 5 10 -18.3886 1.6666
12 5 13 -7.9857 -4.2353
12 5 16 5.6855 4.2603
12 5 19 13.5463 -2.1284
12 5 22 11.8270 -0.3722
12 5 25 10.9475 -0.0254
12 5 28 -12.4324 -0.2597
12 5 31 -14.1581 2.9258
12 6 -30 -4.8391 -3.1928
12 6 -27 -7.9246 1.3143
12 6 -24 -5.7107 0.8579
12 6 -21 3.6328 -1.4831
12 6 -18 -2.3679 -0.5733
12 6 -15 -7.2067 0.5758
12 6 -12 -8.3174 0.8626
12 6 -9 0.9312 -2.2630
12 6 -6 5.3438 1.3936
12 6 -3 0.8036 0.0373
12 6 0 -2.5899 -1.4783
12 6 3 2.6081 2.1143
12 6 6 5.9415 -1.1572
12 6 9 -6.0258 0.7493
12 6 12 -4.5718 -0.2773
12 6 15 -0.8696 1.3651
12 6 18 1.6397 -0.2462
12 6 21 -3.1155 -2.9278
12 6 24 -16.1829 2.5562
12 6 27 -0.3887 -0.6592
12 6 30 -5.2973 -3.1000
12 7 -28 4.1897 0.1953
12 7 -25 5.2474 -2.8156
12 7 -22 3.8781 -0.7054
12 7 -19 -5.7974 2.8267
12 7 -16 -1.5644 -0.3178
12 7 -13 5.5351 -1.9469
12 7 -10 -1.2098 1.7398
12 7 -7 1.1671 -0.6316
12 7 -4 1.6574 -0.1113
12 7 -1 -2.0415 -0.7267
12 7 2 1.9155 0.6431
12 7 5 7.8358 -0.2582
12 7 8 8.9676 -1.5007
12 7 11 4.3889 2.0915
12 7 14 -3.3140 -2.6661
12 7 17 -7.9898 0.9395
12 7 20 -0.9222 -0.8865
12 7 23 12.5090 -0.4405
12 7 26 5.7135 1.0729
12 7 29 -1.4114 -5.3745
12 8 -26 1.9357 3.3392
12 8 -23 -4.4498 1.9269
12 8 -20 7.7336 -0.2820
12 8 -17 3.2085 -1.7601
12 8 -14 -5.2811 0.9045
12 8 -11 -3.3781 1.1661
12 8 -8 -6.0500 -1.7293
12 8 -5 -5.7737 1.1881
12 8 -2 -0.0505 -0.5752
12 8 1 -6.4194 -0.2715
12 8 4 -6.5698 0.6520
12 8 7 7.8506 -1.3598
12 8 10 3.0244 1.8328
12 8 13 -0.4223 -0.3626
12 8 16 -0.6562 -1.3063
12 8 19 6.4407 2.7206
12 8 22 7.0920 -0.4851
12 8 25 -0.2948 -1.4520
12 8 28 2.1531 2.6490
12 9 -24 4.0777 -5.0597
12 9 -21 -2.3526 -1.5492
12 9 -18 6.1798 1.5621
12 9 -15 -1.8229 -0.9973
12 9 -12 -7.9513 -2.3271
12 9 -9 -3.1797 1.9315
12 9 -6 -0.7594 -1.5537
12 9 -3 4.2071 -0.0511
12 9 0 6.4094 0.9654
12 9 3 1.8725 -1.6652
12 9 6 -11.8185 1.8037
12 9 9 -1.2312 -0.7952
12 9 12 1.6498 0.0073
12 9 15 9.3446 -0.2635
12 9 18 -1.3629 -0.2296
12 9 21 -17.6148 1.3063
12 9 24 -15.6479 -3.6147
12 10 -22 4.5004 2.9776
12 10 -19 1.1245 -1.6977
12 10 -16 8.9748 0.0905
12 10 -13 7.2136 -0.3665
12 10 -10 4.1730 -0.5750
12 10 -7 4.6343 -0.7258
12 10 -4 -11.9199 0.1247
12 10 -1 -13.9281 1.4982
12 10 2 -4.1435 -1.6351
12 10 5 3.7601 0.4182
12 10 8 -2.2231 0.4812
12 10 11 6.4187 -2.0423
12 10 14 1.6754 0.3682
12 10 17 4.1746 -0.1956
12 10 20 7.6083 -0.7820
12 10 23 9.1633 4.1128
12 11 -20 2.7480 -4.0515
12 11 -17 -3.1265 -0.5388
12 11 -14 -1.2185 1.8809
12 11 -11 -2.6367 -1.0439
12 11 -8 -4.2626 0.8801
12 11 -5 3.8512 0.5398
12 11 -2 2.1054 -3.3550
12 11 1 -3.6974 2.6537
12 11 4 -3.7460 -0.3268
12 11 7 -4.1282 -0.4801
12 11 10 -13.3559 1.2013
12 11 13 -6.0545 -0.9962
12 11 16 -5.3701 2.8886
12 11 19 5.6996 0.0382
12 12 -15 -2.1461 -4.8867
12 12 -12 -0.4710 -0.4970
12 12 -9 2.2869 -1.5862
12 12 -6 -0.1086 -1.1363
12 12 -3 2.2843 -1.3884
12 12 0 -1.8279 2.7206
12 12 3 1.8372 -0.2195
12 12 6 7.1714 -2.4704
12 12 9 16.2826 0.4576
12 12 12 5.4547 -1.6930
12 12 15 3.7762 -5.9677
12 13 -7 -7.9931 3.0726
12 13 -4 -12.2082 1.7292
12 13 -1 2.4036 -1.5862
12 13 2 4.8091 1.1933
12 13 5 4.1918 -0.9845
12 13 8 -10.6250 1.2436
13 1 -36 -8.1282 -3.7391
13 1 -33 2.0339 2.7824
13 1 -30 1.3112 -1.8913
13 1 -27 5.5051 1.3598
13 1 -24 -8.6490 0.5719
13 1 -21 3.3667 -3.1859
13 1 -18 4.0339 5.4842
13 1 -15 -3.2955 -6.1425
13 1 -12 -7.8508 3.8487
13 1 -9 -9.6237 0.1664
13 1 -6 -12.6288 -4.7496
13 1 -3 -2.3424 6.9205
13 1 0 12.6876 -6.9019
13 1 3 -7.1734 3.7650
13 1 6 -9.8526 0.6530
13 1 9 8.8128 -3.6102
13 1 12 5.8523 4.8480
13 1 15 -2.8431 -5.1235
13 1 18 -4.2026 3.5308
13 1 21 -8.6792 -0.4073
13 1 24 2.2079 -1.8351
13 1 27 12.5237 2.8140
13 1 30 6.4725 -5.7147
13 1 33 5.8800 3.4529
13 1 36 2.5654 4.9100
13 2 -34 -2.3746 -5.7687
13 2 -31 0.4997 0.0755
13 2 -28 -6.6541 -2.1932
13 2 -25 2.9964 2.4881
13 2 -22 -3.7612 -0.6950
13 2 -19 -2.3696 -2.5393
13 2 -16 5.1931 5.7591
13 2 -13 2.0329 -6.5051
13 2 -10 -1.1879 4.2988
13 2 -7 -3.1040 -0.7138
13 2 -4 -2.7051 -3.1701
13 2 -1 -2.7287 6.1258
13 2 2 1.0980 -7.1935
13 2 5 -1.5952 5.4796
13 2 8 3.3275 -2.0742
13 2 11 11.5422 -1.9899
13 2 14 6.0075 5.5032
13 2 17 -0.0839 -6.2033
13 2 20 -0.0162 5.5227
13 2 23 -0.8047 -2.0948
13 2 26 -2.7145 -3.8916
13 2 29 3.1334 4.3666
13 2 32 -2.2734 -1.6047
13 2 35 -4.0574 -1.1364
13 3 -32 4.0255 1.4166
13 3 -29 10.1990 2.6602
13 3 -26 0.6352 -5.8132
13 3 -23 3.0069 3.5859
13 3 -20 0.5031 -0.2748
13 3 -17 -9.0511 -2.5670
13 3 -14 -11.2575 3.8392
13 3 -11 -9.5593 -4.3981
13 3 -8 3.5015 4.7256
13 3 -5 7.3171 -3.1367
13 3 -2 2.8964 -0.2697
13 3 1 5.6771 3.6654
13 3 4 3.0325 -6.2115
13 3 7 -10.0618 5.8590
13 3 10 -9.6119 -2.7388
13 3 13 -1.2518 -0.5452
13 3 16 -2.1524 2.7826
13 3 19 -4.9458 -2.6378
13 3 22 -4.2943 1.4432
13 3 25 0.9151 -3.3028
13 3 28 0.1414 3.4258
13 3 31 -11.9871 1.0449
13 3 34 -14.3397 -8.7238
13 4 -30 -1.0396 -2.5374
13 4 -27 9.5685 2.3216
13 4 -24 -1.0955 -0.9000
13 4 -21 0.3456 1.8700
13 4 -18 2.5773 -1.6941
13 4 -15 6.4639 0.4488
13 4 -12 5.2910 2.1889
13 4 -9 -0.5687 -4.6974
13 4 -6 -3.3073 5.2875
13 4 -3 -9.1904 -2.5693
13 4 0 -8.9822 -1.0126
13 4 3 -4.9739 2.6138
13 4 6 7.4824 -2.6345
13 4 9 0.7198 2.1225
13 4 12 0.0867 -2.9866
13 4 15 -1.4395 1.7021
13 4 18 -5.0968 0.1486
13 4 21 -8.8707 -2.2730
13 4 24 -9.1986 3.6887
13 4 27 -0.9222 -1.1249
13 4 30 5.0112 -2.3563
13 4 33 8.8124 1.6861
13 5 -31 -3.2620 0.3612
13 5 -28 -2.2742 2.5367
13 5 -25 16.7453 -0.4909
13 5 -22 0.4065 -2.9047
13 5 -19 -5.3247 4.3240
13 5 -16 -2.5921 -1.9970
13 5 -13 2.1569 -1.0531
13 5 -10 -6.5825 2.2678
13 5 -7 -5.2733 -2.3959
13 5 -4 1.7608 2.1524
13 5 -1 -0.0666 -1.9189
13 5 2 1.3307 1.2178
13 5 5 0.5896 -0.2216
13 5 8 15.7596 -1.2599
13 5 11 2.8813 2.1879
13 5 14 0.7168 -1.4713
13 5 17 -4.7935 0.0470
13 5 20 -5.7130 0.4054
13 5 23 3.9987 0.8047
13 5 26 -0.5024 -0.8300
13 5 29 12.8408 -4.0047
13 6 -29 -3.8128 -4.6803
13 6 -26 -8.8728 -1.8667
13 6 -23 5.4887 3.0070
13 6 -20 4.5648 -1.7285
13 6 -17 -0.7498 0.1821
13 6 -14 -0.6967 -0.1604
13 6 -11 9.5081 0.6605
13 6 -8 -1.3771 -0.1489
13 6 -5 -4.2186 -1.8062
13 6 -2 -5.0624 2.3226
13 6 1 -5.2730 -2.0985
13 6 4 -2.7531 1.0880
13 6 7 -5.7910 0.2302
13 6 10 10.7160 -0.6326
13 6 13 0.4247 1.5756
13 6 16 -2.3617 -2.0268
13 6 19 -7.8807 1.8052
13 6 22 -6.0753 -0.3798
13 6 25 8.5779 -1.3529
13 6 28 -3.4705 2.7664
13 7 -27 -2.3448 5.3697
13 7 -24 -6.0776 1.0523
13 7 -21 1.2673 -2.6265
13 7 -18 6.3330 1.5212
13 7 -15 3.4822 1.4247
13 7 -12 -4.0210 -1.0526
13 7 -9 -3.1925 1.6581
13 7 -6 -2.0270 -0.6178
13 7 -3 5.1199 0.2799
13 7 0 8.4621 0.4373
13 7 3 3.9432 -0.5313
13 7 6 0.1759 1.5035
13 7 9 -1.5743 -1.2741
13 7 12 4.1851 0.0534
13 7 15 -1.8358 -0.0798
13 7 18 10.5815 0.5049
13 7 21 0.2110 1.9508
13 7 24 -10.7176 -0.9495
13 7 27 -5.2376 1.8977
13 8 -25 -0.6291 -4.2132
13 8 -22 -1.7269 1.1386
13 8 -19 -0.6270 -0.7627
13 8 -16 2.1540 -0.2010
13 8 -13 4.4262 1.5508
13 8 -10 9.5057 -0.2560
13 8 -7 2.4354 -0.1839
13 8 -4 -5.5526 0.1277
13 8 -1 -4.7822 1.3090
13 8 2 -0.2610 -1.5205
13 8 5 4.1274 0.8160
13 8 8 -9.6370 1.7371
13 8 11 -4.4721 -2.5183
13 8 14 13.1403 3.4880
13 8 17 -0.0683 -0.8169
13 8 20 -1.3020 -0.7688
13 8 23 -1.6263 2.6549
13 9 -23 -3.2403 2.0111
13 9 -20 -10.2182 -1.9305
13 9 -17 -7.4709 -0.1041
13 9 -14 3.2514 1.1752
13 9 -11 1.5759 -2.4490
13 9 -8 -2.5167 2.8988
13 9 -5 3.5198 -0.3161
13 9 -2 2.3440 -1.9237
13 9 1 -2.6368 2.2209
13 9 4 -10.2856 -0.7247
13 9 7 6.8257 0.1023
13 9 10 5.1279 -0.8079
13 9 13 -5.3642 0.3477
13 9 16 -4.0215 1.3768
13 9 19 0.8089 -4.1079
13 9 22 10.1999 0.5832
13 10 -18 -1.3708 1.6681
13 10 -15 -2.1547 -1.6057
13 10 -12 -0.7788 1.9732
13 10 -9 1.2627 -1.8203
13 10 -6 1.3962 0.2602
13 10 -3 10.3973 2.1063
13 10 0 14.8232 -0.0692
13 10 3 8.9844 -0.5291
13 10 6 -2.9332 -0.6431
13 10 9 1.2156 2.2570
13 10 12 -9.2099 -1.2882
13 10 15 -8.0162 -0.2650
13 10 18 -3.5794 4.3249
13 11 -13 0.4908 2.3664
13 11 -10 6.6796 0.1473
13 11 -7 2.6824 -2.0763
13 11 -4 -6.4016 1.7768
13 11 -1 -0.9285 -0.5470
13 11 2 9.4575 -0.8117
13 11 5 2.8708 0.0852
13 11 8 -8.3341 0.0512
13 11 11 15.2411 -0.2743
13 11 14 16.3431 -1.5628
13 12 -8 1.5844 2.7561
13 12 -5 7.7602 -2.0218
13 12 -2 -3.5146 1.1720
13 12 1 -12.8380 -1.7053
13 12 4 -8.1523 0.6701
13 12 7 -1.2421 4.5108
14 1 -32 -3.5991 4.3014
14 1 -29 7.9598 -0.1619
14 1 -26 0.1911 -1.4469
14 1 -23 8.8333 3.8894
14 1 -20 1.3768 -4.2505
14 1 -17 0.4107 3.3011
14 1 -14 -5.0340 0.1652
14 1 -11 3.6332 -3.5800
14 1 -8 4.9538 6.1640
14 1 -5 -0.8049 -6.5518
14 1 -2 4.5262 4.0155
14 1 1 0.9327 -0.0313
14 1 4 0.1989 -3.1791
14 1 7 -2.0577 5.0792
14 1 10 -9.1058 -5.1217
14 1 13 -8.2767 3.5270
14 1 16 -2.6433 -0.3390
14 1 19 4.8093 -1.7943
14 1 22 7.8134 2.3447
14 1 25 1.2853 -3.1492
14 1 28 -16.5472 3.5232
14 1 31 -8.5309 -1.4043
14 1 34 -0.8907 -5.7780
14 2 -33 -0.2540 -0.0560
14 2 -30 -1.9896 -1.0089
14 2 -27 0.0953 0.4954
14 2 -24 -10.6100 -0.4377
14 2 -21 -1.1354 3.1535
14 2 -18 4.5167 -4.7256
14 2 -15 7.3713 3.7862
14 2 -12 0.6679 -0.3128
14 2 -9 2.1076 -3.0420
14 2 -6 -4.3273 4.7024
14 2 -3 -3.2208 -4.9637
14 2 0 5.0119 3.4806
14 2 3 6.0144 -1.1240
14 2 6 4.4969 -1.3783
14 2 9 -3.6087 3.2768
14 2 12 -0.8725 -4.0752
14 2 15 3.2662 3.9057
14 2 18 -2.7636 -1.5218
14 2 21 -5.7707 -1.7735
14 2 24 -2.6967 3.5310
14 2 27 6.1769 -2.0887
14 2 30 2.6105 -0.4187
14 2 33 3.7950 0.2974
14 3 -31 -2.8178 3.3770
14 3 -28 -5.7659 4.8778
14 3 -25 6.6214 -2.2212
14 3 -22 3.7159 -2.9057
14 3 -19 3.9049 4.0567
14 3 -16 3.4274 -4.0614
14 3 -13 7.3971 2.2931
14 3 -10 5.0595 -1.2846
14 3 -7 5.1478 -1.3966
14 3 -4 -2.3283 3.2449
14 3 -1 -6.7256 -5.3501
14 3 2 -6.7857 5.1395
14 3 5 -1.6537 -2.8099
14 3 8 11.5274 -1.6202
14 3 11 3.9134 4.4967
14 3 14 4.1435 -4.3552
14 3 17 0.8309 2.0751
14 3 20 1.2716 -0.8843
14 3 23 5.9126 1.0941
14 3 26 11.7546 1.0732
14 3 29 6.8522 -4.2102
14 3 32 -1.2204 3.4806
14 4 -29 0.0342 -5.5345
14 4 -26 -16.9157 -0.4918
14 4 -23 -4.8745 1.2571
14 4 -20 -1.8303 -0.8816
14 4 -17 0.7925 0.7958
14 4 -14 -4.0734 -2.3658
14 4 -11 -8.5895 3.8687
14 4 -8 -3.8008 -2.3472
14 4 -5 7.6505 -0.4848
14 4 -2 13.2011 3.0016
14 4 1 9.6488 -4.1201
14 4 4 7.1939 3.8215
14 4 7 -1.6140 -2.6023
14 4 10 2.6014 1.0659
14 4 13 -6.5247 1.0353
14 4 16 5.9923 -2.4038
14 4 19 10.4751 3.9313
14 4 22 1.7329 -1.3817
14 4 25 -5.0979 -0.5894
14 4 28 -6.8387 0.8038
14 5 -27 5.3601 5.5909
14 5 -24 -11.4247 0.2114
14 5 -21 6.3446 -2.2081
14 5 -18 7.1512 1.0773
14 5 -15 5.5336 1.4782
14 5 -12 1.9162 -2.9879
14 5 -9 6.7914 1.5217
14 5 -6 2.4325 -0.6340
14 5 -3 0.1420 0.7959
14 5 0 -0.2170 0.4080
14 5 3 -7.3771 -2.2447
14 5 6 -7.6729 2.6894
14 5 9 -9.7989 -2.0188
14 5 12 9.5529 0.8290
14 5 15 5.7164 -0.3746
14 5 18 5.2778 0.7020
14 5 21 6.3884 -0.5241
14 5 24 -3.6400 -2.4645
14 5 27 -3.1592 6.0558
14 6 -25 11.0205 -4.5874
14 6 -22 -13.8209 1.3276
14 6 -19 -8.0248 -0.3106
14 6 -16 -4.2499 -1.2275
14 6 -13 8.8816 0.3822
14 6 -10 6.1080 -0.7052
14 6 -7 3.4962 0.2851
14 6 -4 -1.6030 -0.6615
14 6 -1 0.2155 0.8733
14 6 2 4.7988 -0.5426
14 6 5 3.3529 0.1020
14 6 8 3.7656 -0.4861
14 6 11 -8.7289 -0.8209
14 6 14 -1.2860 1.8840
14 6 17 -4.1506 -2.2515
14 6 20 1.6465 0.3087
14 6 23 5.1010 0.8196
14 6 26 4.2714 0.7020
14 7 -23 4.7124 2.8932
14 7 -20 -5.4817 -1.4391
14 7 -17 2.4682 1.3085
14 7 -14 -8.6113 -0.2352
14 7 -11 -13.4448 -1.2521
14 7 -8 4.0224 0.6016
14 7 -5 10.2427 0.6483
14 7 -2 0.7745 -0.8202
14 7 1 -3.8843 0.5977
14 7 4 -7.2886 -0.5433
14 7 7 -8.4177 0.0811
14 7 10 -4.3298 -0.3038
14 7 13 -7.8194 0.1306
14 7 16 2.7358 0.6131
14 7 19 -3.5601 -0.7509
14 7 22 1.6313 2.3884
14 7 25 -0.6015 -3.8548
14 8 -21 9.2161 2.4718
14 8 -18 -4.7029 0.5015
14 8 -15 0.9576 -1.0687
14 8 -12 3.3098 0.9616
14 8 -9 -5.2026 0.3875
14 8 -6 -3.0510 -0.2902
14 8 -3 0.5585 -1.0047
14 8 0 -2.7657 0.7073
14 8 3 5.2327 -0.3259
14 8 6 9.6224 -1.9760
14 8 9 8.7032 1.8215
14 8 12 2.1712 -0.0732
14 8 15 -10.0399 -0.4411
14 8 18 -0.1121 -1.0326
14 8 21 2.6127 -4.3002
14 9 -19 7.4089 -5.7248
14 9 -16 -1.8996 -1.1407
14 9 -13 5.4822 1.8762
14 9 -10 4.6132 -0.4936
14 9 -7 -1.0216 0.6725
14 9 -4 -4.1861 1.0786
14 9 -1 -0.3949 -2.6071
14 9 2 3.9044 0.4021
14 9 5 6.1465 0.9718
14 9 8 -4.3422 -0.4016
14 9 11 -3.0277 -0.2868
14 9 14 9.8999 -3.6282
14 9 17 6.1606 1.3613
14 10 -14 -9.7921 -6.3172
14 10 -11 -9.3276 -1.2569
14 10 -8 -1.7606 0.8756
14 10 -5 0.7178 -0.2234
14 10 -2 -9.7932 -0.2412
14 10 1 -17.7182 -0.6615
14 10 4 -11.2246 2.4012
14 10 7 6.0347 -2.5424
14 10 10 0.8188 1.0196
14 10 13 -3.9707 4.9185
14 11 -9 -5.7174 -5.9499
14 11 -6 -8.8570 -0.9606
14 11 -3 5.4531 1.7187
14 11 0 9.2620 -1.3778
14 11 3 2.7016 0.0913
14 11 6 1.9251 0.1394
14 11 9 10.2131 -6.0737
15 1 -31 0.2832 -2.7547
15 1 -28 0.4746 3.6022
15 1 -25 6.3158 -2.7464
15 1 -22 4.1022 2.0495
15 1 -19 3.4425 0.3657
15 1 -16 -10.1408 -2.5901
15 1 -13 -1.6135 5.5032
15 1 -10 -3.3883 -6.0953
15 1 -7 0.6851 5.2363
15 1 -4 1.4315 -1.1721
15 1 -1 -7.0645 -2.6781
15 1 2 -9.1169 6.5034
15 1 5 4.8279 -6.3337
15 1 8 9.7522 4.7805
15 1 11 0.7106 -1.7166
15 1 14 1.5596 -1.3809
15 1 17 1.7457 3.9001
15 1 20 -11.0722 -4.4159
15 1 23 -6.3630 5.0781
15 1 26 -7.3458 -2.4228
15 1 29 0.5005 -1.4937
15 1 32 7.6665 6.9887
15 2 -29 -7.1864 -1.7468
15 2 -26 -7.4957 0.9567
15 2 -23 -0.3989 -2.9483
15 2 -20 -8.5225 3.4837
15 2 -17 -0.6771 -1.0278
15 2 -14 -4.3220 -2.7619
15 2 -11 -3.0803 5.4413
15 2 -8 -8.7416 -6.3006
15 2 -5 2.2854 4.8295
15 2 -2 0.4946 -1.2340
15 2 1 -4.8771 -2.4506
15 2 4 -6.6555 4.6066
15 2 7 -2.2388 -4.9991
15 2 10 6.9709 4.0523
15 2 13 -2.4003 -2.9149
15 2 16 -0.6394 -1.2564
15 2 19 9.7606 3.5526
15 2 22 6.0151 -3.6778
15 2 25 -0.5523 1.9366
15 2 28 -7.5627 -0.4599
15 2 31 -8.4026 0.8369
15 3 -30 5.6112 -5.8035
15 3 -27 9.8318 -1.1614
15 3 -24 0.2243 4.0309
15 3 -21 0.4959 -4.4674
15 3 -18 -3.1633 2.5015
15 3 -15 -0.1035 0.4162
15 3 -12 5.1679 -1.9060
15 3 -9 7.8970 3.7516
15 3 -6 -3.5760 -4.0333
15 3 -3 -1.2704 3.0964
15 3 0 5.7368 -1.2607
15 3 3 5.7304 -0.8292
15 3 6 -9.8179 2.9551
15 3 9 -10.9000 -3.0298
15 3 12 7.1534 2.0411
15 3 15 -2.2635 -0.5164
15 3 18 -4.0755 0.8147
15 3 21 1.3476 -0.7844
15 3 24 -3.0720 -1.2597
15 3 27 -8.3569 4.0510
15 3 30 -6.3354 -3.3889
15 4 -28 1.7583 0.5462
15 4 -25 5.3369 -0.7661
15 4 -22 -3.3035 2.6686
15 4 -19 -1.6997 -2.0674
15 4 -16 -5.4438 1.9124
15 4 -13 -3.0319 -0.9668
15 4 -10 -2.5140 1.1928
15 4 -7 -4.9911 2.7624
15 4 -4 -4.8661 -4.0715
15 4 -1 -7.7742 3.5800
15 4 2 -11.9914 -1.1030
15 4 5 1.8603 0.1024
15 4 8 3.7807 1.4761
15 4 11 -6.5460 -2.6848
15 4 14 -5.4223 3.3986
15 4 17 -5.6670 -0.9543
15 4 20 -8.8570 -0.9715
15 4 23 2.8948 1.0655
15 4 26 12.8696 0.4440
15 5 -26 -2.6380 -0.1936
15 5 -23 8.6542 0.6574
15 5 -20 -4.7320 -0.1654
15 5 -17 -0.0740 -2.3909
15 5 -14 -12.7738 2.9998
15 5 -11 -6.3219 -2.3131
15 5 -8 1.7444 0.2290
15 5 -5 -0.4612 2.2691
15 5 -2 -0.6367 -2.7562
15 5 1 1.6697 2.1953
15 5 4 5.5744 -1.4039
15 5 7 3.8424 0.5755
15 5 10 0.6042 0.4163
15 5 13 5.8371 -1.2989
15 5 16 3.2489 -0.4756
15 5 19 -4.5099 -2.3663
15 5 22 -8.3340 1.6313
15 5 25 -6.4093 -3.7074
15 6 -24 -1.0087 -3.7293
15 6 -21 10.5991 2.4519
15 6 -18 -2.2982 0.5278
15 6 -15 13.7360 -2.3901
15 6 -12 3.5886 1.7009
15 6 -9 -10.7931 -0.1821
15 6 -6 -11.1191 0.1309
15 6 -3 -3.3441 -1.5362
15 6 0 3.9696 1.0101
15 6 3 -1.6001 0.9839
15 6 6 -0.1018 -2.6034
15 6 9 1.6788 3.2753
15 6 12 -1.4791 -1.6473
15 6 15 -2.7016 -0.4261
15 6 18 5.8956 1.4503
15 6 21 9.1838 -0.1826
15 6 24 3.8806 2.4479
15 7 -19 5.9456 -0.7546
15 7 -16 -7.7994 -0.5204
15 7 -13 0.3147 1.2775
15 7 -10 7.5543 -0.6122
15 7 -7 3.7502 -2.2450
15 7 -4 -0.9217 1.7735
15 7 -1 3.2813 -1.2800
15 7 2 3.5218 0.9143
15 7 5 -2.2775 0.9177
15 7 8 3.7891 -1.0820
15 7 11 6.9422 0.7879
15 7 14 9.5593 -0.8166
15 7 17 3.4613 3.7596
15 7 20 -7.1248 -2.0751
15 8 -17 3.0428 6.0675
15 8 -14 -8.3327 -2.5366
15 8 -11 -2.0168 -0.4188
15 8 -8 1.5101 -1.2396
15 8 -5 -2.7509 -0.0720
15 8 -2 -6.7194 0.9813
15 8 1 -0.0628 -0.8542
15 8 4 2.0868 1.2615
15 8 7 -8.4546 -1.5759
15 8 10 -2.9044 0.6609
15 8 13 -5.5495 -1.2263
15 8 16 -7.6499 -3.4009
15 9 -12 -3.9137 2.9099
15 9 -9 -8.4922 2.1520
15 9 -6 3.7661 -2.1861
15 9 -3 12.6648 -0.3288
15 9 0 0.6445 1.4535
15 9 3 -8.3247 -0.4282
15 9 6 -2.5686 2.0108
15 9 9 -4.7096 -3.3728
15 9 12 2.6623 2.9376
15 10 -7 9.4926 6.8319
15 10 -4 -5.2990 -1.0277
15 10 -1 2.3459 0.7742
15 10 2 6.2769 -0.1630
15 10 5 0.6071 -1.5056
15 10 8 -5.1086 7.2126
16 1 -30 8.3429 -5.4154
16 1 -27 1.2349 2.3671
16 1 -24 -2.9617 1.1570
16 1 -21 -2.7776 -2.5834
16 1 -18 -8.8848 4.3278
16 1 -15 4.5821 -4.0422
16 1 -12 2.8950 1.4971
16 1 -9 4.8032 0.3764
16 1 -6 2.9967 -3.2553
16 1 -3 5.2088 5.6510
16 1 0 3.4250 -5.6406
16 1 3 3.9455 3.2569
16 1 6 -4.6791 -0.3274
16 1 9 -13.3871 -3.0433
16 1 12 -4.0546 5.1175
16 1 15 2.9574 -3.8162
16 1 18 0.6197 2.2295
16 1 21 5.9852 -0.1885
16 1 24 -0.9560 -3.4722
16 1 27 4.3544 3.1314
16 1 30 10.7582 -4.6521
16 2 -28 -0.5318 1.4723
16 2 -25 2.8569 -0.1465
16 2 -22 9.0529 -0.4164
16 2 -19 12.7301 -0.5578
16 2 -16 0.4501 2.3458
16 2 -13 1.8463 -4.6728
16 2 -10 0.9435 3.9051
16 2 -7 2.9391 -1.5987
16 2 -4 -0.9159 -1.9034
16 2 -1 0.1794 4.2157
16 2 2 2.8439 -5.2601
16 2 5 9.6239 3.7752
16 2 8 9.0832 -1.5068
16 2 11 -0.3754 -0.9136
16 2 14 -3.5053 2.7005
16 2 17 -6.1101 -4.1305
16 2 20 -6.4518 0.7934
16 2 23 1.9660 -0.2483
16 2 26 0.1183 2.0909
16 2 29 4.8336 2.5864
16 3 -26 4.1855 -0.3660
16 3 -23 -2.8770 3.3539
16 3 -20 -3.4269 -1.8271
16 3 -17 1.1619 -0.9913
16 3 -14 -3.9316 4.3147
16 3 -11 -5.0885 -4.6161
16 3 -8 -3.3686 1.9519
16 3 -5 1.7869 -1.4017
16 3 -2 -0.6345 -0.2318
16 3 1 -1.1009 2.4783
16 3 4 -8.0051 -3.8729
16 3 7 0.0057 3.1242
16 3 10 -1.8742 -1.9972
16 3 13 -1.3836 1.2997
16 3 16 4.1159 -0.1723
16 3 19 9.0243 -1.1851
16 3 22 0.0648 5.0558
16 3 25 3.8197 -4.8985
16 4 -24 -1.8230 -6.5173
16 4 -21 6.1054 0.2615
16 4 -18 4.6116 1.6774
16 4 -15 11.3238 -1.4110
16 4 -12 4.2396 0.2246
16 4 -9 4.2471 -1.2191
16 4 -6 5.7635 1.5059
16 4 -3 0.2792 -2.2598
16 4 0 1.4025 1.1627
16 4 3 8.6694 0.5848
16 4 6 -6.4860 -2.4735
16 4 9 0.4696 2.8718
16 4 12 3.0248 -1.8344
16 4 15 7.9601 0.0764
16 4 18 -0.4526 1.0572
16 4 21 4.3924 0.1033
16 4 24 0.7017 -2.4274
16 5 -22 -4.2634 4.8804
16 5 -19 1.5745 0.6386
16 5 -16 -5.6495 -2.4975
16 5 -13 8.5653 1.1316
16 5 -10 5.5585 0.5171
16 5 -7 -1.1806 -2.4423
16 5 -4 6.7154 3.6021
16 5 -1 3.8266 -1.9558
16 5 2 1.5231 -1.2001
16 5 5 7.6389 1.5466
16 5 8 3.5538 -0.0630
16 5 11 -5.5955 -0.5683
16 5 14 -20.8390 -0.7343
16 5 17 -5.8228 0.9289
16 5 20 0.3755 -2.8960
16 5 23 -1.3214 3.7132
16 6 -20 -2.4104 -4.3377
16 6 -17 4.5131 4.6439
16 6 -14 -10.0141 1.1287
16 6 -11 -4.4271 -1.5764
16 6 -8 4.1681 1.9944
16 6 -5 5.6252 -0.4968
16 6 -2 -6.1404 0.6279
16 6 1 -15.7821 -0.5114
16 6 4 -6.6904 0.9170
16 6 7 -3.5349 -0.4562
16 6 10 -0.1551 -0.7117
16 6 13 5.4608 2.2413
16 6 16 -3.8736 1.6375
16 6 19 -2.5264 1.4200
16 7 -15 4.9099 -4.5129
16 7 -12 2.8512 -1.2904
16 7 -9 5.1146 1.2294
16 7 -6 -1.7069 -0.2940
16 7 -3 6.3150 0.7450
16 7 0 7.3912 0.0865
16 7 3 0.9671 -1.3088
16 7 6 6.2855 1.0640
16 7 9 0.6359 0.7914
16 7 12 0.5353 2.3518
16 7 15 4.9283 -2.4320
16 8 -13 2.5148 2.3563
16 8 -10 -3.3476 -1.7455
16 8 -7 -3.6730 0.9512
16 8 -4 -3.5182 1.2888
16 8 -1 3.1471 0.9057
16 8 2 3.2734 -1.6167
16 8 5 -4.6087 -0.0610
16 8 8 5.5368 2.4636
16 8 11 -0.3970 -2.4157
16 9 -5 -2.2675 -5.3867
16 9 -2 -9.7400 -0.0896
16 9 1 2.0334 1.6595
16 9 4 11.5570 -3.9951
17 1 -26 1.5578 -1.9102
17 1 -23 4.0398 4.4463
17 1 -20 -0.9517 -3.5405
17 1 -17 0.5745 1.0627
17 1 -14 0.3528 0.4493
17 1 -11 -1.7780 -2.4301
17 1 -8 -3.1520 4.8310
17 1 -5 -0.2090 -4.6978
17 1 -2 -0.2965 3.9598
17 1 1 -3.6991 -1.6556
17 1 4 0.8791 -1.1053
17 1 7 6.9861 3.9540
17 1 10 9.3624 -4.6332
17 1 13 2.5813 4.4109
17 1 16 -0.9175 -0.8245
17 1 19 0.3612 -0.9700
17 1 22 -1.6178 2.0658
17 1 25 3.0488 -2.6559
17 1 28 -0.8627 1.9926
17 2 -24 -6.6533 -4.7790
17 2 -21 -13.9862 0.6220
17 2 -18 -2.6042 -2.4533
17 2 -15 6.2227 2.1541
17 2 -12 0.0393 -1.1391
17 2 -9 -1.7488 -1.8514
17 2 -6 -1.4380 5.0152
17 2 -3 -2.7333 -5.7288
17 2 0 0.9998 3.6767
17 2 3 2.8753 -0.1314
17 2 6 -8.6847 -2.0345
17 2 9 -12.7130 3.4315
17 2 12 -3.0399 -4.4390
17 2 15 6.5311 1.3204
17 2 18 -0.0015 0.4977
17 2 21 0.4376 -0.8113
17 2 24 -8.5144 -1.3490
17 3 -22 10.5237 4.2014
17 3 -19 -0.1000 3.4054
17 3 -16 -12.1446 -3.9010
17 3 -13 -0.4695 3.5895
17 3 -10 1.8049 -1.8324
17 3 -7 -0.1794 -2.5393
17 3 -4 0.6344 4.2111
17 3 -1 7.2768 -3.2950
17 3 2 -2.0769 1.3825
17 3 5 9.1018 -0.2006
17 3 8 9.4367 -0.2114
17 3 11 6.7234 0.6477
17 3 14 -6.5263 -0.6420
17 3 17 -4.9573 3.2721
17 3 20 -12.5418 -1.3979
17 3 23 -2.6083 1.4038
17 4 -20 -2.5842 -7.0847
17 4 -17 1.7457 2.2012
17 4 -14 -4.3797 -2.5389
17 4 -11 -2.1384 2.5316
17 4 -8 0.3920 -0.6336
17 4 -5 -1.3006 -0.8163
17 4 -2 -5.3835 0.2064
17 4 1 0.4940 -1.7198
17 4 4 -7.7520 3.0131
17 4 7 5.3293 -3.3420
17 4 10 3.0161 1.1842
17 4 13 6.9675 1.8405
17 4 16 2.5544 -1.4593
17 4 19 5.7199 -0.0279
17 4 22 2.5828 -0.7212
17 5 -18 0.3519 1.3099
17 5 -15 2.8898 0.1393
17 5 -12 -1.8486 -0.6732
17 5 -9 -4.4803 1.6323
17 5 -6 -4.8715 -1.4080
17 5 -3 -2.4090 0.4809
17 5 0 3.5907 0.3402
17 5 3 3.1779 -0.5789
17 5 6 -17.0751 0.6890
17 5 9 -6.6913 -1.9624
17 5 12 9.4334 -0.7036
17 5 15 17.2458 -1.7604
17 5 18 2.5197 2.9578
17 6 -16 1.9221 2.7878
17 6 -13 4.0645 2.8733
17 6 -10 -4.5692 -0.3421
17 6 -7 -1.6549 0.4353
17 6 -4 -1.7037 -1.3573
17 6 -1 2.2996 1.6830
17 6 2 7.7885 -1.4933
17 6 5 8.7904 0.1018
17 6 8 -0.6766 -0.2511
17 6 11 -3.0735 1.2941
17 6 14 -6.8703 -0.0552
17 7 -11 4.7313 2.1670
17 7 -8 1.3891 0.6238
17 7 -5 1.2308 -1.2929
17 7 -2 -6.9258 -2.0434
17 7 1 -7.8209 1.3942
17 7 4 1.3586 -2.5093
17 7 7 2.2428 0.4662
17 7 10 -4.4769 -4.1475
17 8 0 3.1591 -3.4422
18 1 -25 7.8336 -5.6714
18 1 -22 4.8437 2.7168
18 1 -19 -5.4567 0.5920
18 1 -16 -2.5699 -3.0315
18 1 -13 -2.6784 3.3380
18 1 -10 2.3393 -2.6051
18 1 -7 -1.8754 2.8742
18 1 -4 -1.3734 -1.2014
18 1 -1 -0.9456 -2.1136
18 1 2 4.6449 4.5473
18 1 5 2.5208 -5.8158
18 1 8 2.8591 3.7043
18 1 11 8.5443 -0.8592
18 1 14 7.1195 -2.0895
18 1 17 -3.2293 3.3354
18 1 20 -2.1295 -2.3664
18 1 23 7.4145 2.9649
18 2 -23 -6.7812 0.2129
18 2 -20 4.1147 1.8000
18 2 -17 9.4117 -1.3097
18 2 -14 2.7427 -0.7066
18 2 -11 -0.8642 3.4900
18 2 -8 2.6770 -2.8406
18 2 -5 2.7547 3.8078
18 2 -2 -2.9657 -2.5187
18 2 1 -9.1411 0.3452
18 2 4 -10.0010 2.8032
18 2 7 7.3043 -3.4602
18 2 10 2.3110 3.0307
18 2 13 -4.6596 -1.6073
18 2 16 0.4467 -0.5837
18 2 19 11.2748 -1.3174
18 2 22 -4.3609 0.9367
18 3 -21 -3.4674 0.1302
18 3 -18 -4.2188 4.8306
18 3 -15 3.8507 0.5029
18 3 -12 1.7525 -0.7574
18 3 -9 0.6145 2.9058
18 3 -6 -0.4501 -2.9619
18 3 -3 2.4548 3.8568
18 3 0 -3.9730 -1.5722
18 3 3 5.0617 -0.1802
18 3 6 -11.8520 0.7699
18 3 9 -5.6573 -0.9552
18 3 12 -4.1170 4.0822
18 3 15 -3.1919 -1.4308
18 3 18 2.5754 -0.7955
18 3 21 12.9965 -5.4489
18 4 -16 -3.1008 0.8467
18 4 -13 -2.0412 0.5373
18 4 -10 -1.7345 0.2933
18 4 -7 -3.8426 0.6799
18 4 -4 -1.0176 -2.4718
18 4 -1 7.3784 2.7255
18 4 2 -3.3966 -1.4946
18 4 5 11.5858 -0.3011
18 4 8 -2.6264 0.7935
18 4 11 -1.5939 -1.2643
18 4 14 -1.8391 -1.4474
18 4 17 -7.2321 0.9860
18 5 -14 -3.6209 -3.3889
18 5 -11 0.2349 -2.1508
18 5 -8 8.7644 2.7763
18 5 -5 5.1069 1.8869
18 5 -2 -5.7529 -3.1275
18 5 1 -4.5698 2.5021
18 5 4 -1.5693 0.9237
18 5 7 18.8307 2.7490
18 5 10 -2.5288 -1.5908
18 5 13 -7.5035 3.0669
18 6 -9 -3.1343 -4.3737
18 6 -6 -3.1311 0.0240
18 6 -3 2.0958 2.2208
18 6 0 4.2108 -1.3838
18 6 3 -7.3604 2.4052
18 6 6 -15.9926 -2.2263
18 6 9 7.7081 1.7971
19 1 -21 1.6059 -4.7104
19 1 -18 4.1403 4.6876
19 1 -15 1.5993 -4.6956
19 1 -12 -0.6766 1.5847
19 1 -9 -5.3440 0.3884
19 1 -6 3.9263 -3.2333
19 1 -3 4.3388 4.8939
19 1 0 9.1829 -5.1906
19 1 3 6.0499 2.7168
19 1 6 -9.5215 -0.1535
19 1 9 -6.9094 -2.7155
19 1 12 -2.9273 3.3234
19 1 15 -2.5582 -2.6178
19 1 18 -3.7339 1.7191
19 1 21 -0.5201 -0.7309
19 2 -19 3.4787 -7.4728
19 2 -16 -9.6391 1.8419
19 2 -13 -9.2463 -3.8102
19 2 -10 -0.7204 2.0359
19 2 -7 -4.1749 0.2723
19 2 -4 -9.2601 -2.5494
19 2 -1 -3.3798 4.5599
19 2 2 7.3885 -4.2232
19 2 5 15.2841 3.9745
19 2 8 -6.2640 -0.5996
19 2 11 3.5808 -3.1229
19 2 14 10.1434 1.5722
19 2 17 0.0851 -0.4476
19 3 -14 10.3555 -2.6448
19 3 -11 6.8722 -8.7755
19 3 -8 2.7881 1.3071
19 3 -5 3.9389 0.4980
19 3 -2 -0.6553 -0.5797
19 3 1 -1.0644 1.2810
19 3 4 -9.3232 -3.1129
19 3 7 5.9685 0.8579
19 3 10 -4.5415 -1.6571
19 3 13 -3.5280 -1.8417
19 3 16 2.6140 -4.3507
19 4 -12 -0.3874 7.1482
19 4 -9 -0.8533 -4.5143
19 4 -6 1.5762 0.2463
19 4 -3 5.1603 1.3593
19 4 0 0.3245 0.0772
19 4 3 1.3864 -1.5623
19 4 6 -11.6040 1.1425
19 4 9 4.5768 2.6404
19 4 12 -3.0268 -0.4155
19 5 -4 -2.4722 -2.8681
19 5 -1 -0.7055 0.5841
19 5 2 4.2582 1.2248
19 5 5 9.0171 -4.5965
20 1 -17 0.5723 3.1295
20 1 -14 1.4397 3.4191
20 1 -11 3.7639 -1.2021
20 1 -8 7.4652 4.5579
20 1 -5 4.1489 -2.6227
20 1 -2 -1.9189 1.7801
20 1 1 -11.0045 0.4240
20 1 4 -11.7936 -1.9087
20 1 7 7.8222 2.6399
20 1 10 2.7741 -1.5768
20 1 13 -10.2942 1.6464
20 1 16 -15.1431 1.1754
20 2 -12 -1.9444 7.7257
20 2 -9 -4.3436 -0.1332
20 2 -6 -1.6920 -2.6172
20 2 -3 8.3202 -4.2696
20 2 0 10.9185 3.6767
20 2 3 3.2388 -1.8384
20 2 6 -4.5265 1.2441
20 2 9 10.6905 -0.5518
20 2 12 6.4522 -0.1030
20 3 -7 0.0828 4.7142
20 3 -4 -6.1439 1.3790
20 3 -1 -9.7095 -6.9106
20 3 2 -4.2387 5.3658
20 3 5 2.8867 -2.1576
20 3 8 -5.3003 3.0824
21 1 -10 5.3519 -7.0368
21 1 -7 6.3110 2.5634
21 1 -4 -3.4569 -1.4103
21 1 -1 0.3114 -5.7847
21 1 2 3.8341 6.0872
21 1 5 6.5314 -4.8864
21 1 8 -3.7466 1.6694
21 2 -2 -0.9977 6.4605
21 2 1 2.3836 -4.0216
21 2 4 1.4662 2.2552
0 0 0 0.0 0.0
;
_shelx_fab_checksum              9
_olex2_submission_special_instructions 'No special instructions were received'
_oxdiff_exptl_absorpt_empirical_details
;
Empirical correction (ABSPACK) includes:
- Absorption correction using spherical harmonics
- Frame scaling
;
_oxdiff_exptl_absorpt_empirical_full_max 1.316
_oxdiff_exptl_absorpt_empirical_full_min 0.868
loop_
_space_group_symop_operation_xyz
'x, y, z'
'-y, x-y, z'
'-x+y, -x, z'
'x+2/3, y+1/3, z+1/3'
'-y+2/3, x-y+1/3, z+1/3'
'-x+y+2/3, -x+1/3, z+1/3'
'x+1/3, y+2/3, z+2/3'
'-y+1/3, x-y+2/3, z+2/3'
'-x+y+1/3, -x+2/3, z+2/3'
'-x, -y, -z'
'y, -x+y, -z'
'x-y, x, -z'
'-x+2/3, -y+1/3, -z+1/3'
'y+2/3, -x+y+1/3, -z+1/3'
'x-y+2/3, x+1/3, -z+1/3'
'-x+1/3, -y+2/3, -z+2/3'
'y+1/3, -x+y+2/3, -z+2/3'
'x-y+1/3, x+2/3, -z+2/3'
loop_
_atom_site_label
_atom_site_type_symbol
_atom_site_fract_x
_atom_site_fract_y
_atom_site_fract_z
_atom_site_U_iso_or_equiv
_atom_site_adp_type
_atom_site_occupancy
_atom_site_site_symmetry_order
_atom_site_calc_flag
_atom_site_refinement_flags_posn
_atom_site_refinement_flags_adp
_atom_site_refinement_flags_occupancy
_atom_site_disorder_assembly
_atom_site_disorder_group
Bi1 Bi 0.333333 0.666667 0.46799(2) 0.03664(9) Uani 1 3 d S T P . .
Mg1 Mg 0.500000 0.500000 0.500000 0.0297(3) Uani 1 2 d S . P . .
N1 N 0.39493(13) 0.50814(13) 0.50992(6) 0.0334(6) Uani 1 1 d . . . . .
N2 N 0.55741(14) 0.59762(13) 0.52794(6) 0.0329(6) Uani 1 1 d . . . . .
N3 N 0.47746(14) 0.44082(13) 0.54687(6) 0.0324(6) Uani 1 1 d . . . . .
C1 C 0.33340(16) 0.57732(16) 0.50040(8) 0.0341(7) Uani 1 1 d . . . . .
C2 C 0.38679(16) 0.55919(16) 0.49285(8) 0.0339(7) Uani 1 1 d . . . . .
H2 H 0.419834 0.584802 0.474289 0.041 Uiso 1 1 calc R U . . .
C3 C 0.34726(17) 0.47229(18) 0.53595(9) 0.0411(8) Uani 1 1 d . . . . .
H3 H 0.351884 0.436083 0.548537 0.049 Uiso 1 1 calc R U . . .
C4 C 0.29166(18) 0.4855(2) 0.54535(9) 0.0463(9) Uani 1 1 d . . . . .
H4 H 0.258877 0.458404 0.563748 0.056 Uiso 1 1 calc R U . . .
C5 C 0.28442(18) 0.53889(18) 0.52755(8) 0.0406(8) Uani 1 1 d . . . . .
H5 H 0.246974 0.549068 0.533689 0.049 Uiso 1 1 calc R U . . .
C6 C 0.43789(17) 0.36562(17) 0.55020(8) 0.0355(7) Uani 1 1 d . . . . .
C7 C 0.4321(2) 0.34760(19) 0.58741(8) 0.0481(9) Uani 1 1 d . . . . .
H7 H 0.407897 0.299984 0.597203 0.058 Uiso 1 1 calc R U . . .
C8 C 0.4672(2) 0.4107(2) 0.60553(9) 0.0493(9) Uani 1 1 d . . . . .
H8 H 0.472481 0.415454 0.630375 0.059 Uiso 1 1 calc R U . . .
C9 C 0.49552(17) 0.46992(18) 0.58023(8) 0.0367(7) Uani 1 1 d . . . . .
C10 C 0.53416(17) 0.54529(18) 0.58867(8) 0.0365(7) Uani 1 1 d . . . . .
C11 C 0.5442(2) 0.56632(19) 0.62736(8) 0.0444(8) Uani 1 1 d . . . . .
C12 C 0.4844(2) 0.5519(2) 0.64820(10) 0.0618(11) Uani 1 1 d . . . . .
H12 H 0.436738 0.526074 0.638569 0.074 Uiso 1 1 calc R U . . .
C13 C 0.4942(3) 0.5751(3) 0.68303(10) 0.0775(14) Uani 1 1 d . . . . .
H13 H 0.453212 0.565009 0.697138 0.093 Uiso 1 1 calc R U . . .
C14 C 0.5634(3) 0.6127(3) 0.69713(11) 0.0878(16) Uani 1 1 d . . . . .
H14 H 0.569990 0.629455 0.720759 0.105 Uiso 1 1 calc R U . . .
C15 C 0.6227(3) 0.6260(3) 0.67721(11) 0.0867(15) Uani 1 1 d . . . . .
H15 H 0.670183 0.650691 0.687145 0.104 Uiso 1 1 calc R U . . .
C16 C 0.6127(2) 0.6026(2) 0.64183(9) 0.0644(11) Uani 1 1 d . . . . .
H16 H 0.653797 0.612109 0.627909 0.077 Uiso 1 1 calc R U . . .
C17 C 0.56237(17) 0.60431(17) 0.56429(8) 0.0365(7) Uani 1 1 d . . . . .
C18 C 0.59852(19) 0.68109(19) 0.57342(9) 0.0443(8) Uani 1 1 d . . . . .
H18 H 0.608300 0.700914 0.596515 0.053 Uiso 1 1 calc R U . . .
C19 C 0.61574(19) 0.71922(18) 0.54289(9) 0.0433(8) Uani 1 1 d . . . . .
H19 H 0.640489 0.770747 0.540664 0.052 Uiso 1 1 calc R U . . .
C20 C 0.58941(17) 0.66684(16) 0.51417(8) 0.0337(7) Uani 1 1 d . . . . .
C21 C 0.59320(17) 0.68497(17) 0.47781(8) 0.0357(7) Uani 1 1 d . . . . .
C22 C 0.6321(2) 0.76469(18) 0.46885(9) 0.0470(9) Uani 1 1 d . . . . .
C23 C 0.5940(3) 0.7985(2) 0.45793(11) 0.0754(14) Uani 1 1 d . . . . .
H23 H 0.542766 0.770376 0.454721 0.091 Uiso 1 1 calc R U . . .
C24 C 0.6303(5) 0.8739(3) 0.45150(15) 0.110(2) Uani 1 1 d . . . . .
H24 H 0.602988 0.896207 0.444516 0.132 Uiso 1 1 calc R U . . .
C25 C 0.7021(6) 0.9146(3) 0.45501(18) 0.137(3) Uani 1 1 d . . . . .
H25 H 0.726408 0.965096 0.449458 0.164 Uiso 1 1 calc R U . . .
C26 C 0.7398(4) 0.8830(3) 0.46661(19) 0.146(3) Uani 1 1 d . . . . .
H26 H 0.790824 0.912256 0.470272 0.176 Uiso 1 1 calc R U . . .
C27 C 0.7054(3) 0.8077(3) 0.47342(14) 0.0967(17) Uani 1 1 d . . . . .
H27 H 0.733409 0.786786 0.481242 0.116 Uiso 1 1 calc R U . . .
Cl1S Cl 0.39633(8) 0.64103(8) 0.61441(4) 0.1004(4) Uani 1 1 d . . . . .
C1S C 0.333333 0.666667 0.6009(2) 0.084(2) Uani 1 3 d S T P . .
H1S H 0.333332 0.666667 0.574550 0.100 Uiso 1 3 calc R U P . .
loop_
_atom_site_aniso_label
_atom_site_aniso_U_11
_atom_site_aniso_U_22
_atom_site_aniso_U_33
_atom_site_aniso_U_23
_atom_site_aniso_U_13
_atom_site_aniso_U_12
Bi1 0.03018(9) 0.03018(9) 0.04955(14) 0.000 0.000 0.01509(5)
Mg1 0.0339(8) 0.0260(7) 0.0323(7) 0.0051(6) 0.0062(6) 0.0174(6)
N1 0.0333(15) 0.0276(14) 0.0397(14) 0.0015(12) 0.0065(12) 0.0155(12)
N2 0.0341(14) 0.0283(14) 0.0364(14) 0.0010(11) 0.0031(11) 0.0158(12)
N3 0.0338(14) 0.0325(14) 0.0349(14) 0.0026(11) 0.0037(11) 0.0195(12)
C1 0.0285(16) 0.0250(16) 0.0466(18) -0.0047(14) -0.0007(14) 0.0118(14)
C2 0.0307(17) 0.0247(16) 0.0457(18) 0.0012(14) 0.0068(14) 0.0135(14)
C3 0.0358(19) 0.0386(19) 0.051(2) 0.0093(16) 0.0033(16) 0.0200(16)
C4 0.0382(19) 0.059(2) 0.0440(19) 0.0120(17) 0.0122(15) 0.0261(18)
C5 0.0351(18) 0.044(2) 0.0486(19) -0.0006(16) 0.0042(15) 0.0241(16)
C6 0.0350(18) 0.0305(17) 0.0422(18) 0.0073(14) 0.0108(14) 0.0173(15)
C7 0.064(2) 0.040(2) 0.0435(19) 0.0150(16) 0.0186(18) 0.0283(19)
C8 0.064(2) 0.051(2) 0.0364(18) 0.0113(17) 0.0081(17) 0.031(2)
C9 0.0403(19) 0.0409(19) 0.0348(17) 0.0038(15) 0.0048(14) 0.0247(16)
C10 0.0349(18) 0.0440(19) 0.0362(17) -0.0020(15) 0.0047(14) 0.0238(16)
C11 0.056(2) 0.046(2) 0.0359(17) -0.0005(16) 0.0029(17) 0.0294(19)
C12 0.070(3) 0.071(3) 0.053(2) -0.002(2) 0.006(2) 0.042(2)
C13 0.098(4) 0.088(3) 0.047(2) -0.003(2) 0.020(3) 0.048(3)
C14 0.120(5) 0.099(4) 0.044(2) -0.019(2) 0.005(3) 0.054(4)
C15 0.087(4) 0.107(4) 0.058(3) -0.030(3) -0.023(3) 0.042(3)
C16 0.062(3) 0.085(3) 0.045(2) -0.015(2) -0.0023(19) 0.036(2)
C17 0.0364(18) 0.0389(19) 0.0392(17) -0.0036(15) 0.0012(14) 0.0225(16)
C18 0.047(2) 0.045(2) 0.0409(19) -0.0117(16) -0.0026(16) 0.0225(18)
C19 0.045(2) 0.0300(18) 0.056(2) -0.0057(16) 0.0056(17) 0.0191(16)
C20 0.0347(17) 0.0288(17) 0.0428(18) 0.0021(14) 0.0057(14) 0.0197(14)
C21 0.0340(17) 0.0324(17) 0.0447(18) 0.0042(14) 0.0114(14) 0.0196(15)
C22 0.058(2) 0.0309(18) 0.049(2) 0.0085(16) 0.0138(18) 0.0199(18)
C23 0.107(4) 0.061(3) 0.083(3) 0.036(2) 0.056(3) 0.060(3)
C24 0.204(7) 0.080(4) 0.090(4) 0.048(3) 0.077(5) 0.104(5)
C25 0.224(10) 0.037(3) 0.109(5) 0.020(3) 0.032(6) 0.035(5)
C26 0.130(6) 0.059(4) 0.158(6) 0.029(4) -0.022(5) -0.022(4)
C27 0.077(4) 0.056(3) 0.119(4) 0.029(3) -0.006(3) 0.005(3)
Cl1S 0.0971(10) 0.1103(11) 0.1071(10) 0.0092(8) -0.0131(8) 0.0619(9)
C1S 0.077(4) 0.077(4) 0.096(6) 0.000 0.000 0.0387(18)
loop_
_atom_type_symbol
_atom_type_description
_atom_type_scat_dispersion_real
_atom_type_scat_dispersion_imag
_atom_type_scat_source
C C 0.0033 0.0016 'International Tables Vol C Tables 4.2.6.8 and 6.1.1.4'
H H 0.0000 0.0000 'International Tables Vol C Tables 4.2.6.8 and 6.1.1.4'
Bi Bi -4.1077 10.2566 'International Tables Vol C Tables 4.2.6.8 and 6.1.1.4'
Cl Cl 0.1484 0.1585 'International Tables Vol C Tables 4.2.6.8 and 6.1.1.4'
Mg Mg 0.0486 0.0363 'International Tables Vol C Tables 4.2.6.8 and 6.1.1.4'
N N 0.0061 0.0033 'International Tables Vol C Tables 4.2.6.8 and 6.1.1.4'
loop_
_exptl_crystal_face_index_h
_exptl_crystal_face_index_k
_exptl_crystal_face_index_l
_exptl_crystal_face_perp_dist
1 -1 -5 0.1234
2 -2 5 0.1287
-25 12 28 0.0689
4 -5 0 0.1236
-5 -1 -1 0.1252
-4 5 0 0.0636
-2 2 -5 0.0886
-1 1 5 0.0664
2 -21 31 0.1411
5 1 1 0.1972
0 -22 -28 0.1352
loop_
_geom_angle_atom_site_label_1
_geom_angle_atom_site_label_2
_geom_angle_atom_site_label_3
_geom_angle
_geom_angle_site_symmetry_1
_geom_angle_site_symmetry_3
_geom_angle_publ_flag
C1 Bi1 C1 93.13(10) 3_565 2_665 ?
C1 Bi1 C1 93.12(11) 3_565 . ?
C1 Bi1 C1 93.12(10) 2_665 . ?
N1 Mg1 N1 180.0 . 10_666 ?
N2 Mg1 N1 92.87(9) . 10_666 ?
N2 Mg1 N1 87.13(9) . . ?
N2 Mg1 N1 92.87(9) 10_666 . ?
N2 Mg1 N1 87.13(9) 10_666 10_666 ?
N2 Mg1 N2 180.00(11) 10_666 . ?
N2 Mg1 N3 89.62(10) . 10_666 ?
N2 Mg1 N3 90.38(9) . . ?
N2 Mg1 N3 90.38(9) 10_666 10_666 ?
N2 Mg1 N3 89.62(10) 10_666 . ?
N3 Mg1 N1 88.09(9) . . ?
N3 Mg1 N1 91.90(9) 10_666 . ?
N3 Mg1 N1 91.90(9) . 10_666 ?
N3 Mg1 N1 88.10(9) 10_666 10_666 ?
N3 Mg1 N3 180.0 10_666 . ?
C2 N1 Mg1 119.32(19) . . ?
C2 N1 C3 116.6(3) . . ?
C3 N1 Mg1 123.3(2) . . ?
C17 N2 Mg1 125.7(2) . . ?
C20 N2 Mg1 126.5(2) . . ?
C20 N2 C17 107.3(2) . . ?
C6 N3 Mg1 126.4(2) . . ?
C9 N3 Mg1 125.9(2) . . ?
C9 N3 C6 107.7(2) . . ?
C2 C1 Bi1 117.3(2) . . ?
C2 C1 C5 117.3(3) . . ?
C5 C1 Bi1 125.3(2) . . ?
N1 C2 C1 124.8(3) . . ?
N1 C2 H2 117.6 . . ?
C1 C2 H2 117.6 . . ?
N1 C3 H3 118.3 . . ?
N1 C3 C4 123.3(3) . . ?
C4 C3 H3 118.3 . . ?
C3 C4 H4 120.3 . . ?
C3 C4 C5 119.3(3) . . ?
C5 C4 H4 120.3 . . ?
C1 C5 H5 120.6 . . ?
C4 C5 C1 118.7(3) . . ?
C4 C5 H5 120.6 . . ?
N3 C6 C7 108.3(3) . . ?
N3 C6 C21 125.9(3) . 10_666 ?
C21 C6 C7 125.8(3) 10_666 . ?
C6 C7 H7 126.2 . . ?
C8 C7 C6 107.7(3) . . ?
C8 C7 H7 126.2 . . ?
C7 C8 H8 126.2 . . ?
C7 C8 C9 107.7(3) . . ?
C9 C8 H8 126.2 . . ?
N3 C9 C8 108.7(3) . . ?
N3 C9 C10 125.9(3) . . ?
C10 C9 C8 125.5(3) . . ?
C9 C10 C11 117.7(3) . . ?
C9 C10 C17 126.4(3) . . ?
C17 C10 C11 115.8(3) . . ?
C12 C11 C10 120.4(3) . . ?
C16 C11 C10 120.4(3) . . ?
C16 C11 C12 119.1(3) . . ?
C11 C12 H12 119.8 . . ?
C13 C12 C11 120.3(4) . . ?
C13 C12 H12 119.8 . . ?
C12 C13 H13 120.0 . . ?
C14 C13 C12 120.0(4) . . ?
C14 C13 H13 120.0 . . ?
C13 C14 H14 119.8 . . ?
C15 C14 C13 120.3(4) . . ?
C15 C14 H14 119.8 . . ?
C14 C15 H15 120.2 . . ?
C14 C15 C16 119.5(5) . . ?
C16 C15 H15 120.2 . . ?
C11 C16 C15 120.6(4) . . ?
C11 C16 H16 119.7 . . ?
C15 C16 H16 119.7 . . ?
N2 C17 C10 125.5(3) . . ?
N2 C17 C18 108.8(3) . . ?
C10 C17 C18 125.7(3) . . ?
C17 C18 H18 126.3 . . ?
C19 C18 C17 107.3(3) . . ?
C19 C18 H18 126.3 . . ?
C18 C19 H19 126.2 . . ?
C18 C19 C20 107.5(3) . . ?
C20 C19 H19 126.2 . . ?
N2 C20 C19 109.0(3) . . ?
N2 C20 C21 126.0(3) . . ?
C21 C20 C19 125.0(3) . . ?
C6 C21 C20 125.5(3) 10_666 . ?
C6 C21 C22 117.8(3) 10_666 . ?
C20 C21 C22 116.6(3) . . ?
C23 C22 C21 121.1(4) . . ?
C27 C22 C21 121.6(4) . . ?
C27 C22 C23 117.2(4) . . ?
C22 C23 H23 119.6 . . ?
C22 C23 C24 120.8(5) . . ?
C24 C23 H23 119.6 . . ?
C23 C24 H24 119.4 . . ?
C25 C24 C23 121.3(6) . . ?
C25 C24 H24 119.4 . . ?
C24 C25 H25 120.6 . . ?
C24 C25 C26 118.8(6) . . ?
C26 C25 H25 120.6 . . ?
C25 C26 H26 119.2 . . ?
C25 C26 C27 121.6(7) . . ?
C27 C26 H26 119.2 . . ?
C22 C27 C26 120.4(6) . . ?
C22 C27 H27 119.8 . . ?
C26 C27 H27 119.8 . . ?
Cl1S C1S Cl1S 111.8(3) 2_665 3_565 ?
Cl1S C1S Cl1S 111.8(3) 2_665 . ?
Cl1S C1S Cl1S 111.8(3) 3_565 . ?
Cl1S C1S H1S 107.1 2_665 . ?
Cl1S C1S H1S 107.1 . . ?
Cl1S C1S H1S 107.1 3_565 . ?
loop_
_geom_bond_atom_site_label_1
_geom_bond_atom_site_label_2
_geom_bond_distance
_geom_bond_site_symmetry_2
_geom_bond_publ_flag
Bi1 C1 2.236(3) 3_565 ?
Bi1 C1 2.236(3) 2_665 ?
Bi1 C1 2.236(3) . ?
Mg1 N1 2.324(2) 10_666 ?
Mg1 N1 2.324(2) . ?
Mg1 N2 2.069(2) . ?
Mg1 N2 2.069(2) 10_666 ?
Mg1 N3 2.069(2) 10_666 ?
Mg1 N3 2.069(2) . ?
N1 C2 1.330(4) . ?
N1 C3 1.331(4) . ?
N2 C17 1.372(4) . ?
N2 C20 1.361(4) . ?
N3 C6 1.372(4) . ?
N3 C9 1.363(4) . ?
C1 C2 1.380(4) . ?
C1 C5 1.385(4) . ?
C2 H2 0.9400 . ?
C3 H3 0.9400 . ?
C3 C4 1.373(4) . ?
C4 H4 0.9400 . ?
C4 C5 1.376(5) . ?
C5 H5 0.9400 . ?
C6 C7 1.438(4) . ?
C6 C21 1.403(4) 10_666 ?
C7 H7 0.9400 . ?
C7 C8 1.335(5) . ?
C8 H8 0.9400 . ?
C8 C9 1.436(4) . ?
C9 C10 1.405(4) . ?
C10 C11 1.504(4) . ?
C10 C17 1.411(4) . ?
C11 C12 1.378(5) . ?
C11 C16 1.359(5) . ?
C12 H12 0.9400 . ?
C12 C13 1.376(5) . ?
C13 H13 0.9400 . ?
C13 C14 1.366(7) . ?
C14 H14 0.9400 . ?
C14 C15 1.356(7) . ?
C15 H15 0.9400 . ?
C15 C16 1.396(5) . ?
C16 H16 0.9400 . ?
C17 C18 1.437(4) . ?
C18 H18 0.9400 . ?
C18 C19 1.341(5) . ?
C19 H19 0.9400 . ?
C19 C20 1.439(4) . ?
C20 C21 1.411(4) . ?
C21 C22 1.487(4) . ?
C22 C23 1.368(5) . ?
C22 C27 1.350(6) . ?
C23 H23 0.9400 . ?
C23 C24 1.393(7) . ?
C24 H24 0.9400 . ?
C24 C25 1.314(10) . ?
C25 H25 0.9400 . ?
C25 C26 1.334(10) . ?
C26 H26 0.9400 . ?
C26 C27 1.393(8) . ?
C27 H27 0.9400 . ?
Cl1S C1S 1.733(3) . ?
C1S H1S 0.9900 . ?
loop_
_geom_torsion_atom_site_label_1
_geom_torsion_atom_site_label_2
_geom_torsion_atom_site_label_3
_geom_torsion_atom_site_label_4
_geom_torsion
_geom_torsion_site_symmetry_1
_geom_torsion_site_symmetry_2
_geom_torsion_site_symmetry_3
_geom_torsion_site_symmetry_4
_geom_torsion_publ_flag
Bi1 C1 C2 N1 179.1(2) . . . . ?
Bi1 C1 C5 C4 -179.6(2) . . . . ?
Mg1 N1 C2 C1 -169.3(2) . . . . ?
Mg1 N1 C3 C4 169.6(3) . . . . ?
Mg1 N2 C17 C10 5.5(4) . . . . ?
Mg1 N2 C17 C18 -172.4(2) . . . . ?
Mg1 N2 C20 C19 173.0(2) . . . . ?
Mg1 N2 C20 C21 -4.1(4) . . . . ?
Mg1 N3 C6 C7 -177.0(2) . . . . ?
Mg1 N3 C6 C21 1.5(4) . . . 10_666 ?
Mg1 N3 C9 C8 177.3(2) . . . . ?
Mg1 N3 C9 C10 -1.6(4) . . . . ?
N1 C3 C4 C5 -0.8(5) . . . . ?
N2 C17 C18 C19 -1.0(4) . . . . ?
N2 C20 C21 C6 2.5(5) . . . 10_666 ?
N2 C20 C21 C22 -179.1(3) . . . . ?
N3 C6 C7 C8 0.2(4) . . . . ?
N3 C9 C10 C11 175.9(3) . . . . ?
N3 C9 C10 C17 -1.2(5) . . . . ?
C2 N1 C3 C4 0.3(5) . . . . ?
C2 C1 C5 C4 0.1(5) . . . . ?
C3 N1 C2 C1 0.4(4) . . . . ?
C3 C4 C5 C1 0.5(5) . . . . ?
C5 C1 C2 N1 -0.6(5) . . . . ?
C6 N3 C9 C8 0.9(3) . . . . ?
C6 N3 C9 C10 -177.9(3) . . . . ?
C6 C7 C8 C9 0.4(4) . . . . ?
C6 C21 C22 C23 71.1(4) 10_666 . . . ?
C6 C21 C22 C27 -113.5(4) 10_666 . . . ?
C7 C8 C9 N3 -0.8(4) . . . . ?
C7 C8 C9 C10 178.0(3) . . . . ?
C8 C9 C10 C11 -2.8(5) . . . . ?
C8 C9 C10 C17 -179.9(3) . . . . ?
C9 N3 C6 C7 -0.7(3) . . . . ?
C9 N3 C6 C21 177.8(3) . . . 10_666 ?
C9 C10 C11 C12 -66.5(4) . . . . ?
C9 C10 C11 C16 116.3(4) . . . . ?
C9 C10 C17 N2 -0.9(5) . . . . ?
C9 C10 C17 C18 176.7(3) . . . . ?
C10 C11 C12 C13 -176.1(4) . . . . ?
C10 C11 C16 C15 176.3(4) . . . . ?
C10 C17 C18 C19 -178.9(3) . . . . ?
C11 C10 C17 N2 -178.1(3) . . . . ?
C11 C10 C17 C18 -0.6(5) . . . . ?
C11 C12 C13 C14 0.1(7) . . . . ?
C12 C11 C16 C15 -0.9(6) . . . . ?
C12 C13 C14 C15 -1.5(8) . . . . ?
C13 C14 C15 C16 1.7(8) . . . . ?
C14 C15 C16 C11 -0.5(7) . . . . ?
C16 C11 C12 C13 1.1(6) . . . . ?
C17 N2 C20 C19 0.2(3) . . . . ?
C17 N2 C20 C21 -176.9(3) . . . . ?
C17 C10 C11 C12 111.0(4) . . . . ?
C17 C10 C11 C16 -66.2(4) . . . . ?
C17 C18 C19 C20 1.0(4) . . . . ?
C18 C19 C20 N2 -0.8(4) . . . . ?
C18 C19 C20 C21 176.3(3) . . . . ?
C19 C20 C21 C6 -174.1(3) . . . 10_666 ?
C19 C20 C21 C22 4.3(5) . . . . ?
C20 N2 C17 C10 178.4(3) . . . . ?
C20 N2 C17 C18 0.5(3) . . . . ?
C20 C21 C22 C23 -107.5(4) . . . . ?
C20 C21 C22 C27 67.9(5) . . . . ?
C21 C6 C7 C8 -178.4(3) 10_666 . . . ?
C21 C22 C23 C24 176.4(4) . . . . ?
C21 C22 C27 C26 -176.6(5) . . . . ?
C22 C23 C24 C25 1.4(8) . . . . ?
C23 C22 C27 C26 -0.9(8) . . . . ?
C23 C24 C25 C26 -3.2(11) . . . . ?
C24 C25 C26 C27 3.0(12) . . . . ?
C25 C26 C27 C22 -0.9(11) . . . . ?
C27 C22 C23 C24 0.7(6) . . . . ?
loop_
_exptl_oxdiff_crystal_face_indexfrac_h
_exptl_oxdiff_crystal_face_indexfrac_k
_exptl_oxdiff_crystal_face_indexfrac_l
_exptl_oxdiff_crystal_face_x
_exptl_oxdiff_crystal_face_y
_exptl_oxdiff_crystal_face_z
0.9993 -0.9983 -5.0019 -0.0639 -0.0735 -0.0308
2.0017 -2.0011 4.9977 0.1200 -0.0182 -0.0163
-25.0034 12.0014 28.0042 0.1415 0.6176 0.7711
4.0021 -5.0000 -0.0055 0.0860 -0.1519 -0.0402
-4.9988 -1.0028 -0.9993 -0.0423 -0.0344 0.2112
-4.0021 5.0000 0.0055 -0.0860 0.1519 0.0402
-2.0017 2.0011 -4.9977 -0.1200 0.0182 0.0163
-0.9993 0.9983 5.0019 0.0639 0.0735 0.0308
2.0174 -21.0149 30.9822 0.7637 -0.3601 0.4923
4.9988 1.0028 0.9993 0.0423 0.0344 -0.2112
0.0013 -22.0033 -28.0032 -0.2142 -0.8947 0.4134
loop_
_smtbx_masks_void_nr
_smtbx_masks_void_average_x
_smtbx_masks_void_average_y
_smtbx_masks_void_average_z
_smtbx_masks_void_volume
_smtbx_masks_void_count_electrons
_smtbx_masks_void_content
1 -0.350 -0.456 0.717 5595.7 1113.5 '18 CHCl3'
