#------------------------------------------------------------------------------
#$Date: 2018-09-26 20:45:16 +0300 (Wed, 26 Sep 2018) $
#$Revision: 211179 $
#$URL: file:///home/coder/svn-repositories/cod/cif/2/02/07/2020704.cif $
#------------------------------------------------------------------------------
#
# This file is available in the Crystallography Open Database (COD),
# http://www.crystallography.net/. The original data for this entry
# were provided by IUCr Journals, http://journals.iucr.org/.
#
# The file may be used within the scientific community so long as
# proper attribution is given to the journal article from which the
# data were obtained.
#
data_2020704
loop_
_publ_author_name
'Erzina, Dina R.'
'Zamilatskov, Ilya A.'
'Kurochkina, Nadezhda M.'
'Ponomarev, Gelii V.'
'Tafeenko, Victor A.'
_publ_section_title
;
 Structural explanation of the spectral features of the nonsymmetrical
 complex
 {2,3,7,8,12,13,17,18-octaethyl-5-[(methylimino)methyl]porphyrinato-\k^4^<i>N</i>^21^,<i>N</i>^22^,<i>N</i>^23^,<i>N</i>^24^}palladium(II)
;
_journal_coeditor_code           CU3109
_journal_issue                   2
_journal_name_full               'Acta Crystallographica Section C'
_journal_page_first              68
_journal_page_last               71
_journal_paper_doi               10.1107/S2053229616020465
_journal_volume                  73
_journal_year                    2017
_chemical_formula_iupac          '[Pd (C38 H47 N5)]'
_chemical_formula_moiety         'C38 H47 N5 Pd1'
_chemical_formula_sum            'C38 H47 N5 Pd'
_chemical_formula_weight         680.20
_chemical_name_systematic
{2,3,7,8,12,13,17,18-Octaethyl-5-[(methylimino)methyl]porphyrinato-\k^4^<i>N</i>^21^,<i>N</i>^22^,<i>N</i>^23^,<i>N</i>^24^}palladium(II)
_space_group_crystal_system      monoclinic
_space_group_IT_number           15
_space_group_name_Hall           '-C 2yc'
_space_group_name_H-M_alt        'C 1 2/c 1'
_symmetry_space_group_name_Hall  '-C 2yc'
_symmetry_space_group_name_H-M   'C 1 2/c 1'
_atom_sites_solution_hydrogens   geom
_audit_creation_method           SHELXL-2013
_cell_angle_alpha                90
_cell_angle_beta                 117.2250(10)
_cell_angle_gamma                90
_cell_formula_units_Z            4
_cell_length_a                   29.525(2)
_cell_length_b                   4.9400(8)
_cell_length_c                   25.6630(11)
_cell_measurement_reflns_used    1454
_cell_measurement_temperature    295(2)
_cell_measurement_theta_max      64
_cell_measurement_theta_min      4
_cell_volume                     3328.4(6)
_computing_cell_refinement
;
X-AREA (Stoe & Cie, 2002)
;
_computing_data_collection
;
X-AREA (Stoe & Cie, 2002)
;
_computing_data_reduction
;
X-RED (Stoe & Cie, 2002)
;
_computing_molecular_graphics
;
DIAMOND (Brandenburg, 1999)
;
_computing_publication_material
;
SHELXL2013 (Sheldrick, 2015) and publCIF (Westrip, 2010)
;
_computing_structure_refinement
;
SHELXL2013 (Sheldrick, 2015)
;
_computing_structure_solution
;
SHELXS97 (Sheldrick, 2008)
;
_diffrn_ambient_temperature      295
_diffrn_detector_area_resol_mean 5.81
_diffrn_measured_fraction_theta_full 0.989
_diffrn_measured_fraction_theta_max 0.988
_diffrn_measurement_device_type  Stoe
_diffrn_measurement_method       'rotation method'
_diffrn_radiation_monochromator  none
_diffrn_radiation_type           'Cu K\a'
_diffrn_radiation_wavelength     1.54186
_diffrn_reflns_av_R_equivalents  0.0627
_diffrn_reflns_limit_h_max       24
_diffrn_reflns_limit_h_min       -36
_diffrn_reflns_limit_k_max       5
_diffrn_reflns_limit_k_min       -6
_diffrn_reflns_limit_l_max       31
_diffrn_reflns_limit_l_min       -30
_diffrn_reflns_number            12253
_diffrn_reflns_theta_full        67.686
_diffrn_reflns_theta_max         72.978
_diffrn_reflns_theta_min         3.367
_exptl_absorpt_coefficient_mu    4.749
_exptl_absorpt_correction_T_max  0.630
_exptl_absorpt_correction_T_min  0.481
_exptl_absorpt_correction_type   multi-scan
_exptl_absorpt_process_details
;
(Blessing, 1995)
;
_exptl_crystal_colour            red
_exptl_crystal_density_diffrn    1.357
_exptl_crystal_description       prism
_exptl_crystal_F_000             1424
_exptl_crystal_size_max          0.210
_exptl_crystal_size_mid          0.100
_exptl_crystal_size_min          0.100
_refine_diff_density_max         0.692
_refine_diff_density_min         -0.742
_refine_ls_extinction_method     none
_refine_ls_goodness_of_fit_ref   1.112
_refine_ls_hydrogen_treatment    constr
_refine_ls_matrix_type           full
_refine_ls_number_parameters     221
_refine_ls_number_reflns         3245
_refine_ls_number_restraints     1
_refine_ls_restrained_S_all      1.112
_refine_ls_R_factor_all          0.0835
_refine_ls_R_factor_gt           0.0632
_refine_ls_shift/su_max          0.000
_refine_ls_shift/su_mean         0.000
_refine_ls_structure_factor_coef Fsqd
_refine_ls_weighting_details
'w=1/[\s^2^(Fo^2^)+(0.0750P)^2^+16.3947P] where P=(Fo^2^+2Fc^2^)/3'
_refine_ls_weighting_scheme      calc
_refine_ls_wR_factor_gt          0.1662
_refine_ls_wR_factor_ref         0.1828
_reflns_number_gt                2366
_reflns_number_total             3245
_reflns_threshold_expression     'I > 2\s(I)'
_cod_data_source_file            cu3109sup1.cif
_cod_data_source_block           I
_cod_depositor_comments          'Adding full bibliography for 2020704.cif.'
_cod_original_formula_sum        'C38 H47 N5 Pd1'
_cod_database_code               2020704
_cod_database_fobs_code          2020704
_shelx_space_group_comment
;
The symmetry employed for this shelxl refinement is uniquely defined
by the following loop, which should always be used as a source of
symmetry information in preference to the above space-group names.
They are only intended as comments.
;
_shelx_hkl_file
;
 -29   1  -4   -0.43    1.85   0
 -26   0  -6   40.25    4.22   0
 -25   1  -7   18.66    2.81   0
 -24   2  -6   27.82    3.86   0
 -20   0 -10   56.39    4.52   0
 -17   1 -11   45.04    4.10   0
 -14   0 -12   49.92    4.55   0
 -13   1 -12   46.62    5.14   0
 -12   0 -12  136.27    6.79   0
  -8   0 -12  302.03    9.62   0
  -7   1 -12    7.38    3.19   0
  -6   0 -12  117.00    5.99   0
 -28   0  -4   19.28    3.14   0
 -27   1  -5   18.86    3.25   0
 -24   0  -7    0.55    2.01   0
 -23   1  -8   -0.01    1.94   0
 -22   2  -7   -0.38    1.81   0
 -21   1  -9   36.94    3.68   0
 -19   1 -10   -0.30    2.35   0
 -18   0 -10   58.31    4.94   0
 -16   0 -11    2.93    2.52   0
 -15   1 -11   94.89    6.05   0
 -11   1 -12    7.70    2.89   0
 -10   0 -12  441.78   10.96   0
  -9   1 -12    8.45    3.03   0
  -6   0 -11    1.70    2.54   0
  -5   1 -11  318.26    9.57   0
 -31   1  -1    6.41    1.85   0
 -31   1  -1    3.03    1.51   0
 -29   1  -3   13.89    2.76   0
 -28   2  -2   17.53    3.49   0
 -26   2  -4   22.94    3.35   0
 -25   1  -6    1.93    1.90   0
 -22   0  -8   74.64    4.87   0
 -20   0  -9    2.47    2.49   0
 -17   1 -10    2.96    2.52   0
 -16   0 -10   64.28    5.19   0
 -14   0 -11    1.05    2.43   0
 -13   1 -11  275.65    8.95   0
 -12   0 -11    0.87    2.46   0
 -10   0 -11   -1.93    3.21   0
  -8   0 -11    1.29    2.02   0
  -7   1 -11  250.37    8.27   0
 -28   0  -3    0.06    2.06   0
 -27   1  -4    3.69    2.31   0
 -26   0  -5    0.11    1.85   0
 -24   0  -6   64.68    5.01   0
 -24   2  -5    0.41    1.76   0
 -23   1  -7   33.16    3.35   0
 -22   2  -6   29.37    3.56   0
 -21   1  -8    1.79    2.39   0
 -19   1  -9   20.43    3.27   0
 -18   0  -9    0.80    2.38   0
 -15   1 -10   12.22    3.72   0
 -14   0 -10  152.66    6.98   0
 -11   1 -11  158.27    6.89   0
  -9   1 -11  152.04    6.86   0
 -33   1   2   -0.19    1.12   0
 -33   1   2    0.18    1.11   0
 -31   1   0    0.25    2.49   0
 -29   1  -2   -0.21    2.04   0
 -28   2  -1    0.62    2.51   0
 -26   2  -3    1.85    2.02   0
 -25   1  -5   41.31    3.63   0
 -22   0  -7   -0.38    2.48   0
 -20   0  -8  140.21    6.61   0
 -17   1  -9   24.67    3.31   0
 -16   0  -9   -3.32    3.07   0
 -13   1 -10   38.99    4.23   0
 -12   0 -10  372.80   10.07   0
 -11   1 -10    7.78    3.32   0
 -10   0 -10  333.75    9.55   0
  -9   1 -10   86.15    5.55   0
  -8   0 -10   21.05    2.91   0
  -7   1 -10   24.94    3.22   0
 -30   2   1   -0.04    1.36   0
 -30   2   1   -0.28    1.29   0
 -27   1  -3   43.13    3.95   0
 -26   0  -4   56.91    4.38   0
 -24   0  -5   -1.52    2.84   0
 -24   2  -4   27.39    3.26   0
 -23   1  -6   10.33    2.58   0
 -22   2  -5   -1.27    2.00   0
 -21   1  -7   28.15    3.50   0
 -20   0  -7    1.18    3.22   0
 -19   1  -8    8.05    2.88   0
 -18   0  -8   78.15    5.16   0
 -15   1  -9  133.48    6.41   0
 -14   0  -9    0.82    2.98   0
 -33   1   3   10.86    2.13   0
 -33   1   3    2.99    1.90   0
 -31   1   1   15.74    3.17   0
 -30   0   0    6.75    2.07   0
 -30   2   2   14.67    3.24   0
 -29   1  -1   22.58    2.88   0
 -28   0  -2   25.80    3.18   0
 -28   2   0   26.79    3.32   0
 -26   2  -2   41.97    3.79   0
 -25   1  -4    2.37    2.15   0
 -24   2  -3    0.84    2.81   0
 -22   0  -6  155.82    6.79   0
 -19   1  -7   26.68    3.98   0
 -17   1  -8   30.79    3.69   0
 -16   0  -8  154.86    6.97   0
 -13   1  -9  176.79    7.24   0
 -12   0  -9   -0.86    1.78   0
 -11   1  -9  476.86   11.50   0
 -10   0  -9    0.11    1.98   0
  -9   1  -9  330.14    9.45   0
 -27   1  -2    2.46    2.65   0
 -26   0  -3   -0.11    2.13   0
 -24   0  -4   63.35    5.08   0
 -23   1  -5   30.83    3.54   0
 -21   1  -6   15.05    3.01   0
 -20   0  -6   72.60    5.39   0
 -18   0  -7    0.06    2.41   0
 -15   1  -8    6.53    2.79   0
 -14   0  -8  141.35    6.73   0
 -35   1   7    0.93    1.29   0
 -33   1   4   -1.39    1.98   0
 -31   1   2    3.97    1.88   0
 -30   0   1    0.54    1.63   0
 -30   2   3    0.21    2.34   0
 -29   1   0   -0.16    1.86   0
 -28   0  -1    1.13    1.84   0
 -28   2   1    1.81    2.22   0
 -26   2  -1    9.80    2.27   0
 -25   1  -3   58.20    4.37   0
 -24   2  -2   58.18    4.74   0
 -22   0  -5    1.59    2.47   0
 -19   1  -6    4.05    3.25   0
 -17   1  -7   91.83    5.53   0
 -16   0  -7   -0.63    2.98   0
 -13   1  -8    4.48    2.47   0
 -12   0  -8  383.08   10.03   0
 -11   1  -8    5.15    2.66   0
 -10   0  -8  215.51    7.65   0
  -9   1  -8   14.31    2.75   0
 -33   1   5   21.16    3.49   0
 -32   2   6   11.00    3.08   0
 -28   0   0   68.99    4.95   0
 -27   1  -1   58.66    4.21   0
 -26   0  -2   31.44    3.51   0
 -26   2   0   55.71    4.65   0
 -24   0  -3   -0.04    2.43   0
 -23   1  -4    2.22    2.58   0
 -22   0  -4   67.92    5.23   0
 -21   1  -5   65.21    4.60   0
 -20   0  -5    0.17    2.91   0
 -18   0  -6   15.24    3.04   0
 -15   1  -7  131.65    6.22   0
 -14   0  -7    0.28    2.72   0
 -35   1   8    0.15    1.10   0
 -35   1   8   -0.21    1.06   0
 -32   0   4   22.90    2.78   0
 -31   1   3   16.73    2.61   0
 -30   0   2   30.17    3.30   0
 -30   2   4   15.07    2.59   0
 -29   1   1   35.03    3.28   0
 -28   2   2   32.08    3.26   0
 -26   0  -1   -1.36    2.78   0
 -25   1  -2   -0.53    2.28   0
 -24   2  -1    1.38    2.34   0
 -23   1  -3  119.48    6.27   0
 -19   1  -5  141.81    6.64   0
 -17   1  -6   24.42    3.60   0
 -16   0  -6   74.32    5.20   0
 -13   1  -7  396.24   10.24   0
 -12   0  -7   -2.76    2.15   0
 -11   1  -7  468.73   11.04   0
 -35   1   9    3.57    1.53   0
 -35   1   9    1.92    1.40   0
 -33   1   6   -0.46    2.00   0
 -32   0   5   -0.04    1.88   0
 -32   2   7    0.59    1.99   0
 -28   0   1    0.17    2.70   0
 -27   1   0   -0.80    2.07   0
 -26   2   1    0.22    2.05   0
 -24   0  -2   25.51    3.49   0
 -22   0  -3    1.30    2.62   0
 -21   1  -4    9.64    3.08   0
 -20   0  -4    5.46    2.72   0
 -18   0  -5   -0.19    2.37   0
 -15   1  -6    0.68    2.27   0
 -14   0  -6   61.86    4.62   0
 -32   2   8    8.80    3.09   0
 -31   1   4    2.17    1.88   0
 -30   0   3   -1.04    1.93   0
 -30   2   5    0.96    1.66   0
 -29   1   2   -0.55    1.93   0
 -28   2   3   -0.29    1.81   0
 -26   0   0   48.05    4.62   0
 -25   1  -1   92.33    5.29   0
 -24   2   0   49.16    4.21   0
 -23   1  -2   17.58    3.92   0
 -21   1  -3  154.91    6.98   0
 -19   1  -4    9.32    3.44   0
 -17   1  -5  114.29    5.93   0
 -16   0  -5    0.98    2.29   0
 -13   1  -6    5.11    2.41   0
 -12   0  -6  399.32   10.29   0
 -11   1  -6   15.03    3.04   0
 -35   1  10    0.28    1.31   0
 -35   1  10   -0.16    1.23   0
 -33   1   7   22.95    2.87   0
 -32   0   6   51.42    3.80   0
 -31   1   5   21.81    3.13   0
 -30   0   4   43.93    3.99   0
 -30   2   6   17.98    3.26   0
 -29   1   3   45.25    4.05   0
 -28   0   2  101.46    5.62   0
 -28   2   4   48.49    4.34   0
 -27   1   1   82.76    4.87   0
 -26   2   2   34.02    3.58   0
 -24   0  -1   -1.29    2.36   0
 -22   0  -2    1.38    3.13   0
 -20   0  -3    0.75    2.46   0
 -18   0  -4  186.79    7.27   0
 -15   1  -5  172.40    6.99   0
 -14   0  -5    0.39    2.38   0
 -35   1  11   13.37    2.69   0
 -33   1   8   -0.90    1.91   0
 -32   2   9   -0.40    1.93   0
 -26   0   1   -1.44    2.48   0
 -25   1   0   -1.71    2.57   0
 -24   2   1   32.29    3.82   0
 -23   1  -1  143.05    6.37   0
 -21   1  -2    2.04    3.24   0
 -19   1  -3  179.13    7.36   0
 -17   1  -4    3.02    2.38   0
 -16   0  -4  126.20    6.23   0
 -13   1  -5  609.64   12.81   0
 -34   0  10   17.58    2.53   0
 -32   0   7   -0.01    1.64   0
 -32   2  10   10.57    2.85   0
 -31   1   6   -0.25    1.93   0
 -30   0   5    0.62    1.97   0
 -30   2   7    2.15    1.75   0
 -29   1   4   -0.91    2.10   0
 -28   0   3   -0.94    2.19   0
 -28   2   5    1.01    2.05   0
 -27   1   2    4.40    2.62   0
 -26   2   3    4.63    2.40   0
 -25   1   1   87.46    5.59   0
 -24   0   0   37.95    3.94   0
 -22   0  -1    1.78    3.05   0
 -20   0  -2   42.94    4.16   0
 -18   0  -3    2.74    2.36   0
 -15   1  -4    5.94    1.92   0
 -34   0  11    0.49    2.03   0
 -33   1   9   23.51    2.77   0
 -32   0   8   59.30    4.21   0
 -31   1   7   43.09    4.14   0
 -30   2   8   37.95    3.89   0
 -28   2   6   71.08    5.12   0
 -27   1   3  142.04    6.54   0
 -26   0   2  118.16    6.24   0
 -26   2   4   54.21    4.43   0
 -23   1   0    9.24    2.96   0
 -21   1  -1  131.21    6.45   0
 -19   1  -2   22.95    3.52   0
 -17   1  -3  114.30    5.75   0
 -14   0  -4  378.47    9.94   0
 -13   1  -4    9.20    2.43   0
 -33   1  10    1.52    1.77   0
 -32   2  11   -1.51    2.00   0
 -30   0   6   28.82    3.26   0
 -29   1   5   47.78    3.93   0
 -28   0   4  106.58    5.70   0
 -25   1   2    5.61    2.89   0
 -24   0   1   -1.81    2.47   0
 -22   0   0   41.06    4.59   0
 -20   0  -1    2.16    2.64   0
 -18   0  -2  316.56    9.25   0
 -16   0  -3    0.04    1.54   0
 -15   1  -3  138.37    6.22   0
 -35   1  14   -1.49    2.25   0
 -34   0  12   21.60    2.93   0
 -33   1  11   28.18    3.35   0
 -32   0   9    0.90    1.80   0
 -32   2  12   15.60    2.80   0
 -31   1   8    0.92    2.09   0
 -30   0   7    0.88    2.56   0
 -30   2   9    4.29    2.11   0
 -29   1   6   -0.05    2.30   0
 -28   0   5   -2.20    3.18   0
 -28   2   7    1.37    2.15   0
 -27   1   4   13.46    3.10   0
 -26   0   3    1.90    2.72   0
 -26   2   5    0.35    2.43   0
 -23   1   1   47.80    4.35   0
 -21   1   0   48.17    4.27   0
 -19   1  -1  168.78    6.86   0
 -17   1  -2    3.11    2.36   0
 -34   0  13    0.83    1.84   0
 -32   0  10   50.00    3.84   0
 -32   2  13   -0.41    1.99   0
 -31   1   9   45.39    4.12   0
 -30   2  10   42.41    3.98   0
 -28   2   8   47.68    4.43   0
 -26   2   6   85.07    5.73   0
 -25   1   3   38.85    3.97   0
 -24   0   2   60.64    4.75   0
 -22   0   1    0.12    2.39   0
 -20   0   0  223.77    8.29   0
 -18   0  -1   -0.10    2.91   0
 -16   0  -2  337.50    9.54   0
 -15   1  -2    8.63    2.90   0
 -34   0  14   23.67    3.17   0
 -33   1  12    3.07    2.07   0
 -32   0  11    0.08    2.32   0
 -30   0   8   51.09    4.13   0
 -30   2  11   -0.09    2.08   0
 -29   1   7   58.15    4.32   0
 -28   0   6  151.63    6.61   0
 -27   1   5   93.60    5.37   0
 -26   0   4  182.00    7.39   0
 -24   0   3   -0.24    3.11   0
 -23   1   2    5.85    2.73   0
 -21   1   1  122.23    6.00   0
 -19   1   0   12.42    2.87   0
 -17   1  -1  108.09    5.68   0
 -35   1  18   -0.27    1.92   0
 -35   1  19   10.22    2.87   0
 -34   0  15   -0.48    1.92   0
 -33   1  13   22.24    2.86   0
 -31   1  10    1.70    2.14   0
 -30   0   9    0.22    2.78   0
 -29   1   8    2.82    2.46   0
 -28   2   9    2.35    2.26   0
 -27   1   6    3.25    2.65   0
 -26   0   5    1.14    3.39   0
 -25   1   4    5.78    2.56   0
 -23   1   3   45.95    4.65   0
 -22   0   2  204.27    7.78   0
 -20   0   1   -0.19    3.15   0
 -16   0  -1    0.26    1.93   0
 -35   1  20   -1.07    1.17   0
 -35   1  20    0.63    1.18   0
 -34   0  16   23.07    3.18   0
 -33   1  14    2.67    1.95   0
 -32   0  12   25.14    3.03   0
 -31   1  11   62.68    4.39   0
 -28   0   7   -2.12    2.69   0
 -28   2  10   59.63    4.64   0
 -25   1   5   22.48    4.00   0
 -24   0   4   29.79    4.15   0
 -21   1   2   94.48    5.54   0
 -19   1   1   68.21    4.66   0
 -18   0   0  297.86    9.06   0
 -17   1   0    2.24    1.84   0
 -15   1  -1   92.18    5.29   0
 -34   0  17    1.76    1.89   0
 -33   1  15   20.51    2.77   0
 -32   0  13    0.66    1.87   0
 -31   1  12   -0.87    2.22   0
 -30   0  10   73.36    4.85   0
 -29   1   9   65.24    4.62   0
 -28   0   8  188.07    7.44   0
 -28   2  11    0.55    3.59   0
 -27   1   7  108.15    5.80   0
 -26   0   6  176.65    7.36   0
 -23   1   4   12.29    3.48   0
 -22   0   3   -1.42    2.57   0
 -34   0  18   13.22    2.65   0
 -34   0  19   -0.51    2.32   0
 -32   0  14   37.68    3.69   0
 -30   0  11    0.38    2.29   0
 -29   1  10    1.87    2.57   0
 -27   1   8   16.74    4.09   0
 -25   1   6    7.78    2.78   0
 -24   0   5   -0.56    2.50   0
 -21   1   3  202.93    7.70   0
 -20   0   2  424.42   11.00   0
 -19   1   2    6.87    3.09   0
 -18   0   1   -0.54    2.08   0
 -17   1   1  222.86    8.06   0
 -34   0  20    8.13    2.47   0
 -34   0  21    0.35    2.39   0
 -34   0  22    5.53    2.95   0
 -32   0  15   -0.29    2.11   0
 -30   0  12   63.21    4.82   0
 -29   1  11   96.28    5.87   0
 -28   0   9    1.92    2.65   0
 -26   0   7   -0.31    2.72   0
 -23   1   5   44.38    4.23   0
 -22   0   4  367.08   10.39   0
 -34   0  23    0.05    1.17   0
 -34   0  23    0.15    1.22   0
 -33   1  19   20.31    2.96   0
 -33   1  20   -0.38    2.77   0
 -32   0  16   42.37    4.06   0
 -28   0  10  152.52    6.75   0
 -27   1   9   72.99    4.96   0
 -26   0   8  194.04    7.93   0
 -25   1   7   25.59    3.53   0
 -24   0   6   70.21    5.09   0
 -21   1   4   22.82    3.62   0
 -20   0   3    0.06    2.46   0
 -19   1   3  347.06   10.04   0
 -18   0   2  129.52    6.44   0
 -17   1   2   27.58    3.85   0
 -33   1  21   24.37    3.23   0
 -33   1  22    1.41    2.23   0
 -33   1  23   15.07    3.08   0
 -33   1  24    0.01    1.21   0
 -33   1  24    0.58    1.20   0
 -32   0  17   -0.34    2.12   0
 -30   0  13    3.72    2.34   0
 -29   1  12   -0.23    2.84   0
 -27   1  10    6.18    2.86   0
 -25   1   8    8.24    2.94   0
 -23   1   6    4.17    2.72   0
 -22   0   5    1.21    2.68   0
 -32   0  18   49.68    4.39   0
 -30   0  14   67.65    4.79   0
 -29   1  13  160.85    6.89   0
 -28   0  11   -0.74    2.51   0
 -27   1  11  125.96    6.81   0
 -26   0   9   -0.30    2.59   0
 -24   0   7   -0.05    2.55   0
 -23   1   7   35.63    4.41   0
 -21   1   5  360.96   10.03   0
 -20   0   4  349.11   10.16   0
 -19   1   4    1.70    3.35   0
 -18   0   3    0.81    2.02   0
 -32   0  19    1.00    2.22   0
 -32   0  20   57.73    4.89   0
 -31   1  18    0.10    2.02   0
 -30   0  15   -0.94    2.44   0
 -29   1  14   -1.49    2.81   0
 -28   0  12   18.89    3.45   0
 -26   0  10   55.32    4.94   0
 -25   1   9   62.24    4.84   0
 -24   0   8   65.81    4.95   0
 -22   0   6  464.73   11.81   0
 -17   1   3  414.70   10.86   0
 -32   0  21   -0.33    2.40   0
 -32   0  22   30.54    3.99   0
 -32   0  23    0.42    2.11   0
 -32   0  24   13.44    3.06   0
 -32   0  25   -0.26    2.01   0
 -31   1  19   23.23    3.07   0
 -31   1  20    1.50    2.07   0
 -31   1  26    1.36    2.70   0
 -30   0  16   73.27    5.08   0
 -29   1  15  113.36    6.07   0
 -28   0  13    0.20    2.44   0
 -27   1  12    2.55    2.88   0
 -25   1  10    0.14    2.83   0
 -23   1   8   35.62    4.06   0
 -21   1   6    9.13    2.92   0
 -20   0   5    1.00    2.46   0
 -19   1   5  360.21   10.59   0
 -18   0   4   23.86    3.45   0
 -31   1  21   45.29    3.89   0
 -31   1  22    0.61    2.40   0
 -31   1  23   47.75    4.32   0
 -31   1  24    0.53    2.63   0
 -31   1  25   20.73    3.37   0
 -30   0  17    0.12    2.41   0
 -29   1  16    7.05    2.84   0
 -27   1  13  168.88    7.52   0
 -26   0  11   -0.60    2.51   0
 -24   0   9    2.55    2.57   0
 -22   0   7    0.54    2.78   0
 -21   1   7  286.95    9.45   0
 -17   1   4    5.34    2.60   0
 -30   0  18   79.79    5.20   0
 -30   0  19    1.33    3.07   0
 -29   1  17   56.18    4.46   0
 -29   1  18   -1.05    3.14   0
 -27   1  14    6.60    3.11   0
 -26   0  12    3.35    2.65   0
 -25   1  11  110.35    6.29   0
 -23   1   9   74.84    5.29   0
 -22   0   8  381.49   11.02   0
 -20   0   6  401.44   10.89   0
 -19   1   6    3.60    3.23   0
 -30   0  20   86.36    5.53   0
 -30   0  21    0.11    3.06   0
 -30   0  27    0.06    2.65   0
 -29   1  19   32.60    3.85   0
 -29   1  28    0.26    1.30   0
 -27   1  15   74.57    5.48   0
 -25   1  12   14.89    3.54   0
 -24   0  10   51.47    4.63   0
 -23   1  10   31.20    4.67   0
 -21   1   8   31.86    3.57   0
 -30   0  22   47.82    4.58   0
 -30   0  23    0.49    2.25   0
 -30   0  24   36.64    4.24   0
 -30   0  25   -0.48    2.29   0
 -30   0  26   34.51    4.33   0
 -29   1  20   -1.95    2.32   0
 -29   1  21   42.90    4.16   0
 -29   1  22    0.06    2.96   0
 -29   1  26    0.73    3.04   0
 -29   1  27   19.20    3.48   0
 -28   0  17   -3.40    3.57   0
 -27   1  16   20.73    3.59   0
 -26   0  13   -0.57    2.66   0
 -25   1  13  124.97    6.66   0
 -24   0  11    0.31    2.54   0
 -22   0   9   -1.08    3.80   0
 -20   0   7    1.08    2.45   0
 -19   1   7  121.99    6.66   0
 -29   1  23   48.97    4.26   0
 -29   1  24    2.64    2.33   0
 -29   1  25   26.70    3.60   0
 -28   0  18  125.54    6.78   0
 -28   0  29   -0.25    2.33   0
 -27   1  17   46.20    4.48   0
 -27   1  29   12.27    3.39   0
 -26   0  14    6.67    3.30   0
 -23   1  11  122.07    6.51   0
 -21   1   9  249.42    8.89   0
 -28   0  19   -2.15    2.73   0
 -28   0  20  109.19    6.72   0
 -28   0  28    7.14    3.54   0
 -27   1  18   14.17    3.58   0
 -27   1  19   60.89    5.58   0
 -26   0  15   -2.02    2.84   0
 -24   0  12   26.99    3.85   0
 -23   1  12   16.26    3.96   0
 -22   0  10  363.84   10.75   0
 -21   1  10   16.74    4.20   0
 -20   0   8  507.90   12.47   0
 -19   1   8    0.79    1.90   0
 -28   0  21    0.84    2.57   0
 -28   0  22   66.02    5.51   0
 -28   0  26   28.63    4.35   0
 -28   0  27   -0.65    2.43   0
 -27   1  20    2.46    2.99   0
 -27   1  21   49.20    5.07   0
 -27   1  27   11.66    3.18   0
 -27   1  28    1.33    2.29   0
 -26   0  16  124.50    6.76   0
 -25   1  16   -2.02    4.08   0
 -24   0  13   -0.59    2.77   0
 -23   1  13  207.77    8.75   0
 -22   0  11   -1.81    3.61   0
 -28   0  23   -0.67    2.65   0
 -28   0  24   35.56    4.19   0
 -28   0  25    0.89    2.39   0
 -27   1  22    4.39    2.92   0
 -27   1  23   48.63    4.51   0
 -27   1  24    2.43    2.59   0
 -27   1  25   16.91    3.19   0
 -27   1  26    1.00    2.10   0
 -26   0  17    4.42    2.95   0
 -26   0  30    1.60    1.67   0
 -26   0  30    1.47    1.49   0
 -25   1  17   16.65    4.84   0
 -24   0  14   14.59    3.52   0
 -21   1  11  209.82    8.46   0
 -20   0   9    2.38    2.74   0
 -19   1   9  146.23    7.23   0
 -26   0  18  120.22    6.78   0
 -26   0  19   -1.58    3.88   0
 -26   0  29    0.37    2.44   0
 -25   1  18   14.79    3.81   0
 -25   1  29   14.99    3.46   0
 -24   0  15   -1.29    3.82   0
 -23   1  14   45.93    4.88   0
 -22   0  12   88.35    5.85   0
 -21   1  12   -1.68    3.81   0
 -20   0  10  510.42   12.91   0
 -26   0  20   96.10    6.06   0
 -26   0  28    7.42    3.04   0
 -25   1  19   35.93    4.79   0
 -25   1  20   -1.23    3.16   0
 -25   1  28    1.13    2.60   0
 -23   1  15  108.99    6.47   0
 -23   1  30    0.05    1.50   0
 -19   1  10   34.70    4.24   0
  -1  -5   8    3.47    3.14   0
  -1  -3  11  249.40   10.60   0
   0  -6   2    6.89    2.61   0
   0  -6   2    2.26    2.26   0
   0  -4  10   56.36    5.75   0
   1  -5   7   34.94    5.28   0
   1  -3  10    6.31    5.02   0
   2  -6   1    0.01    1.83   0
   2  -6   1    1.08    1.74   0
   2  -4   9   13.54    4.33   0
   3  -5   6    8.28    4.50   0
   3  -3   9   34.20    6.10   0
   4  -6  -1    0.02    1.74   0
   4  -4   8   43.34    5.51   0
   5  -5   5   43.15    5.03   0
   5  -3   8   13.44    4.53   0
   6  -6  -3    0.10    2.28   0
   6  -6  -3   -0.14    1.51   0
   6  -4   7   11.58    4.40   0
   7  -3   7   99.64    6.82   0
   9  -5   2    5.83    3.37   0
   9  -3   5   83.07    7.28   0
  -2  -6   2    2.69    2.20   0
  -2  -6   2    1.93    1.98   0
  -2  -4  10   60.21    6.80   0
   0  -6   1   -0.39    1.87   0
   0  -6   1   -0.32    1.91   0
   2  -6   0    1.92    2.95   0
   5  -5   4    3.89    4.52   0
   6  -6  -4    0.96    1.76   0
   6  -4   6   31.98    6.14   0
   7  -5   3   53.23    5.61   0
   7  -3   6    4.46    5.12   0
   8  -4   5   13.21    4.56   0
   9  -5   1   45.56    5.34   0
  10  -4   3    4.27    3.96   0
  -2  -6   1    0.90    1.86   0
  -2  -6   1    0.03    1.68   0
  -1  -5   7   54.30    5.55   0
  -1  -3  10   25.67    4.94   0
   0  -6   0    4.89    3.11   0
   0  -4   9    6.36    4.17   0
   1  -5   6   -0.80    3.56   0
   1  -3   9  175.88    9.82   0
   2  -6  -1   -0.56    2.88   0
   2  -4   8   43.06    5.75   0
   3  -5   5   25.30    4.61   0
   3  -3   8   11.97    5.85   0
   4  -6  -3    0.58    2.75   0
   4  -6  -3    1.07    1.98   0
   4  -4   7   10.06    4.55   0
   5  -3   7  106.09    7.29   0
   7  -5   2    3.50    4.68   0
   8  -4   4   67.01    7.19   0
   9  -5   0    2.63    4.82   0
   9  -3   4   10.79    4.99   0
  -2  -6   0    1.55    2.04   0
  -2  -6   0    1.33    1.89   0
  -2  -4   9    3.86    5.26   0
  -1  -5   6    7.94    4.73   0
   0  -6  -1   -0.53    2.01   0
   0  -6  -1   -0.54    1.96   0
   2  -6  -2   11.68    3.44   0
   3  -5   4    7.86    5.04   0
   4  -6  -4    3.04    2.20   0
   4  -6  -4    2.39    2.24   0
   5  -5   3   31.34    4.93   0
   6  -4   5    1.23    4.25   0
   7  -3   5  234.25   10.46   0
  10  -4   2   60.87    6.08   0
  -3  -5   6    1.85    4.66   0
  -2  -6  -1   -1.07    1.84   0
  -2  -6  -1   -1.00    1.82   0
  -1  -3   9  251.07   11.19   0
   0  -6  -2    5.41    2.72   0
   0  -6  -2    4.24    2.59   0
   0  -4   8   78.06    6.84   0
   1  -5   5   18.60    4.73   0
   2  -6  -3    1.57    2.99   0
   2  -4   7   34.21    5.68   0
   4  -6  -6    0.75    2.01   0
   4  -6  -5    0.13    1.86   0
   4  -6  -5    0.23    1.73   0
   4  -4   6   15.70    4.93   0
   5  -5   2   10.45    5.46   0
   5  -3   6   14.17    4.85   0
   7  -5   1   44.25    5.28   0
   8  -4   3    5.82    4.51   0
   9  -5  -1   16.67    4.36   0
   9  -3   3  165.50    8.72   0
  10  -4   1    6.75    5.61   0
  -2  -6  -3    0.83    1.79   0
  -2  -6  -2    3.86    2.25   0
  -2  -4   8  125.42    8.12   0
  -1  -5   5   29.94    5.16   0
   0  -6  -4   18.17    4.72   0
   0  -6  -3    0.57    2.97   0
   1  -5   4    2.60    3.86   0
   1  -3   8   19.80    5.00   0
   2  -6  -5    1.37    1.89   0
   2  -6  -5    0.67    1.86   0
   2  -6  -4   11.87    3.46   0
   3  -5   3    9.23    4.37   0
   3  -3   7  323.43   11.65   0
   4  -4   5   26.93    6.64   0
   6  -4   4   23.65    5.54   0
   7  -5   0    5.67    4.15   0
   7  -3   4   54.97    6.88   0
   9  -5  -2    3.21    3.65   0
  -3  -5   5   32.86    4.79   0
  -2  -6  -4    2.66    2.34   0
  -1  -5   4    1.45    5.05   0
  -1  -3   8    0.27    5.30   0
   0  -6  -5   -0.23    1.81   0
   0  -6  -5    0.40    1.93   0
   0  -4   7    9.71    4.86   0
   2  -6  -6    1.03    2.10   0
   2  -6  -6    1.05    2.09   0
   2  -4   6  131.51    8.32   0
   3  -5   2    1.07    5.26   0
   5  -5   1   30.06    5.29   0
   5  -3   5  172.58    8.89   0
   6  -4   3   23.30    6.64   0
   7  -5  -1   21.70    4.79   0
   8  -4   2  100.68    7.56   0
   9  -5  -3   16.79    4.62   0
   9  -3   2   24.24    4.88   0
  10  -4   0   97.56    7.70   0
  -2  -4   7    4.73    4.79   0
   0  -4   6  175.03   10.23   0
   1  -5   3   19.16    4.86   0
   1  -3   7  237.43   10.17   0
   2  -4   5    8.71    6.35   0
   3  -3   6   19.99    5.03   0
   4  -4   4  129.02    8.48   0
   5  -5   0   18.63    4.93   0
   7  -5  -2    2.52    5.09   0
   7  -3   3  158.86    9.34   0
   8  -4   1    0.14    4.68   0
   9  -5  -4    8.14    3.96   0
  -3  -5   4    1.26    3.96   0
  -1  -5   3   24.63    5.20   0
   1  -5   2   -2.61    4.59   0
   3  -5   1   43.25    6.15   0
   5  -5  -1   46.41    6.87   0
   5  -3   4    5.37    3.40   0
   6  -4   2  120.42    8.28   0
  -3  -5   3   61.22    6.42   0
  -2  -4   6  264.45   11.40   0
  -1  -5   2    0.86    5.59   0
  -1  -3   7  111.53    7.70   0
   0  -4   5    4.72    6.19   0
   1  -5   1   93.21    8.10   0
   1  -3   6   10.02    4.25   0
   2  -4   4  233.07   10.54   0
   3  -5   0    7.61    4.58   0
   3  -3   5  275.91   10.84   0
   4  -4   3   14.64    5.32   0
   7  -5  -3   18.76    4.79   0
   7  -3   2   13.35    5.30   0
   8  -4   0  107.38    8.02   0
  -3  -5   2    4.87    5.28   0
   4  -4   2  219.16   11.31   0
   5  -5  -2    5.05    4.44   0
   5  -3   3  103.14    7.14   0
   6  -4   1   12.67    5.31   0
   7  -5  -4    2.02    4.15   0
   8  -4  -1    6.10    4.76   0
  -2  -4   5   12.47    4.74   0
  -1  -5   1  113.79    8.07   0
  -1  -3   6    3.72    3.71   0
   0  -4   4  173.05    9.51   0
   1  -5   0    8.41    4.60   0
   1  -3   5  165.94    8.78   0
   2  -4   3    5.11    4.93   0
   3  -3   4   16.75    4.60   0
   5  -5  -3   55.96    6.33   0
   6  -4   0  144.46    9.94   0
   7  -5  -5    8.70    4.51   0
   7  -3   1  128.13    7.98   0
  -5  -5   1   39.50    6.25   0
  -3  -5   1   98.61    7.54   0
  -1  -5   0   -2.73    4.67   0
   1  -5  -1  113.17    7.97   0
   4  -4   1   11.67    5.31   0
   5  -5  -4    7.66    4.62   0
   5  -3   2    5.24    4.89   0
   7  -5  -7   19.34    5.42   0
   7  -5  -6    0.10    3.78   0
   8  -4  -2   81.15    7.44   0
  -3  -5   0    4.50    4.54   0
  -2  -4   4  185.82    9.97   0
  -1  -5  -1   85.08    7.27   0
  -1  -3   5  175.41    9.67   0
   0  -4   3    6.28    4.84   0
   1  -5  -2    2.27    4.46   0
   1  -3   4    9.26    4.95   0
   2  -4   2  164.72    9.40   0
   3  -5  -3   49.02    6.11   0
   3  -3   3  359.77   12.68   0
   5  -5  -5   40.08    5.53   0
   6  -4  -1   12.17    4.99   0
   7  -5  -8    3.53    3.64   0
   7  -3   0   25.63    4.81   0
   8  -4  -3    9.51    4.59   0
  -5  -5   0   17.05    4.51   0
  -4  -4   4  202.23   10.44   0
  -3  -5  -1   40.70    5.88   0
  -2  -4   3    6.28    5.99   0
  -1  -5  -2    4.30    4.51   0
   0  -4   2  104.73    8.58   0
   1  -5  -3   33.03    5.16   0
   2  -4   1    9.09    6.28   0
   4  -4   0  142.80    9.03   0
   5  -5  -7   54.33    6.78   0
   5  -5  -6    3.12    4.22   0
   5  -3   1  265.19   11.33   0
   6  -4  -2  121.25    9.38   0
   7  -5  -9   56.69    6.06   0
   8  -4  -4  121.05    9.14   0
  -5  -5  -1   29.39    5.18   0
  -3  -5  -2    4.47    3.97   0
  -1  -5  -3   14.67    5.68   0
  -1  -3   4   26.86    5.08   0
   1  -5  -4    4.48    4.10   0
   1  -3   3  460.45   14.58   0
   3  -3   2   32.86    4.96   0
   4  -4  -1   12.73    6.28   0
   5  -5  -8    3.28    3.96   0
   7  -3  -1  143.04    8.52   0
  -5  -5  -2    7.92    4.16   0
  -4  -4   3   11.11    4.79   0
  -3  -5  -3   13.33    4.32   0
  -2  -4   2  100.38    7.83   0
  -1  -5  -4    1.95    4.12   0
   0  -4   1    8.43    4.68   0
   1  -5  -5   36.37    5.56   0
   2  -4   0   96.76    7.96   0
   3  -5  -7   68.50    6.65   0
   5  -5 -11   41.23    6.07   0
   5  -5 -10    3.57    3.69   0
   5  -5  -9   84.33    6.93   0
   5  -3   0   12.11    4.71   0
   6  -4  -3    5.93    4.85   0
   8  -4  -5    2.44    4.55   0
  -7  -5  -4    3.96    4.38   0
  -5  -5  -4    2.74    4.78   0
  -5  -5  -3   25.46    5.02   0
  -4  -4   2  135.61    9.48   0
  -3  -5  -4   10.61    4.20   0
  -1  -5  -5   26.21    4.96   0
   1  -5  -7   56.29    6.77   0
   1  -5  -6    5.60    4.13   0
   2  -4  -1   19.75    6.32   0
   3  -5  -9   67.75    7.18   0
   3  -5  -8    6.62    4.06   0
   3  -3   1  536.74   15.51   0
   4  -4  -2  149.76    9.21   0
   5  -5 -13   20.13    4.26   0
   5  -5 -12    5.88    3.10   0
   6  -4  -4  162.92    9.55   0
   7  -3  -2    3.43    3.63   0
  -7  -5 -12   -0.17    2.76   0
  -7  -5 -12   -0.33    1.79   0
  -7  -5  -5   42.27    5.39   0
  -5  -5  -5   47.11    5.65   0
  -3  -5  -6    6.83    4.86   0
  -3  -5  -5   25.70    4.88   0
  -2  -4   1   15.92    5.01   0
  -1  -5  -7   36.60    6.14   0
  -1  -5  -6    1.09    3.79   0
  -1  -3   3  268.37   11.16   0
   0  -4   0   44.01    5.98   0
   1  -5 -16    2.21    2.19   0
   1  -5 -16   -0.32    1.94   0
   1  -5 -15   13.87    4.91   0
   1  -5  -9   49.83    6.45   0
   1  -5  -8    0.92    3.98   0
   1  -3   2   14.12    4.11   0
   3  -5 -15   20.63    4.54   0
   3  -5 -14    1.89    3.50   0
   3  -5 -13   28.98    4.81   0
   3  -5 -12    3.87    3.29   0
   3  -5 -11   32.05    5.31   0
   3  -5 -10    2.35    3.73   0
   4  -4  -3   15.69    5.09   0
   5  -3  -1  374.13   13.48   0
   6  -4  -5    3.03    5.88   0
  -7  -5 -11    2.36    3.58   0
  -7  -5 -10    2.04    2.88   0
  -7  -5  -9    6.87    3.97   0
  -7  -5  -8   -0.69    2.96   0
  -7  -5  -7   29.55    4.55   0
  -7  -5  -6    2.00    2.94   0
  -5  -5 -13    3.62    2.64   0
  -5  -5 -13    1.93    2.40   0
  -5  -5 -12    0.30    4.57   0
  -5  -5  -7   47.15    5.47   0
  -5  -5  -6    4.59    3.66   0
  -4  -4   1   10.23    4.67   0
  -3  -5 -14    1.91    2.31   0
  -3  -5 -14    0.40    2.18   0
  -3  -5  -8    3.78    4.98   0
  -3  -5  -7   57.59    5.71   0
  -2  -4   0   97.90    8.38   0
  -1  -5 -15   10.66    3.88   0
  -1  -5 -14   -0.80    3.71   0
  -1  -5  -9   52.63    6.27   0
  -1  -5  -8    0.20    3.72   0
   0  -4  -1    7.33    4.50   0
   1  -5 -14   -0.17    3.73   0
   1  -5 -13   20.75    4.27   0
   1  -5 -12   -1.02    3.21   0
   1  -5 -11   45.48    5.28   0
   1  -5 -10    0.50    3.37   0
   2  -4  -2  100.97    7.96   0
   3  -3   0   10.39    4.70   0
   4  -4  -4  203.91   11.23   0
  -5  -5 -11    8.09    3.75   0
  -5  -5 -10    1.58    3.05   0
  -5  -5  -9   19.02    4.05   0
  -5  -5  -8   -0.14    3.03   0
  -4  -4   0  130.47    9.40   0
  -3  -5 -13   11.63    4.19   0
  -3  -5 -12    0.32    3.49   0
  -3  -5 -11   13.07    3.68   0
  -3  -5 -10    0.61    3.04   0
  -3  -5  -9   32.90    4.86   0
  -1  -5 -13    8.30    4.28   0
  -1  -5 -12    3.46    3.10   0
  -1  -5 -11   26.76    4.57   0
  -1  -5 -10    2.12    3.50   0
   2  -4  -3   14.37    4.81   0
   5  -3  -2   39.20    5.97   0
   6  -4  -6  155.14    9.46   0
  -2  -4  -1    6.37    4.55   0
   0  -4  -2   90.33    7.73   0
   2  -4  -4  207.98   11.14   0
   3  -3  -1  649.78   17.72   0
   4  -4  -5    8.04    4.99   0
   6  -4  -7   11.59    4.94   0
  -4  -4  -1   14.14    4.69   0
  -2  -4  -2  163.78    9.62   0
   0  -4  -3    4.14    4.76   0
   4  -4  -6  259.60   11.73   0
   5  -3  -3  330.58   13.02   0
   6  -4  -9    2.12    5.38   0
   6  -4  -8   72.20    7.37   0
  -6  -4  -1    7.70    4.62   0
  -4  -4  -2  214.77   10.57   0
  -2  -4  -3   -0.78    5.73   0
   0  -4  -4  176.47   10.10   0
   2  -4  -5   15.64    4.92   0
   3  -3  -2   15.50    4.27   0
   4  -4  -7    7.75    4.57   0
   6  -4 -10   38.60    6.93   0
  -6  -4  -2  109.90    7.99   0
  -4  -4  -3   19.38    5.98   0
  -2  -4  -4  223.79   11.68   0
   0  -4  -5    1.01    5.81   0
   2  -4  -6  283.39   12.15   0
   4  -4  -8  131.94    8.81   0
   5  -3  -4   36.87    5.27   0
  -6  -4  -3   20.83    4.72   0
  -4  -4  -4  120.88    9.56   0
  -2  -4 -20    1.46    3.51   0
  -2  -4 -20    0.72    2.51   0
   0  -4  -6  186.29   11.05   0
   2  -4  -7   12.71    5.05   0
   3  -3  -3  359.50   13.30   0
   4  -4 -10   49.46    7.56   0
   4  -4  -9    7.26    4.52   0
 -10  -4 -15    0.43    2.31   0
 -10  -4 -15    1.44    2.25   0
  -8  -4 -17    0.00    2.09   0
  -8  -4 -17    0.58    2.18   0
  -6  -4 -18    2.67    3.05   0
  -6  -4 -18    2.07    2.58   0
  -6  -4  -4   20.57    5.20   0
  -4  -4 -19   -1.02    2.30   0
  -4  -4 -19    0.18    2.27   0
  -4  -4  -5   19.10    6.20   0
  -2  -4  -6  122.43    9.45   0
  -2  -4  -5    9.59    4.67   0
   0  -4 -20   17.07    4.69   0
   0  -4  -7   11.66    4.46   0
   1  -3  -2   35.31    5.21   0
   2  -4  -9    7.06    5.59   0
   2  -4  -8  132.21    9.07   0
   4  -4 -12  114.90    9.40   0
   4  -4 -11    4.24    4.42   0
   5  -3  -5  235.04   11.14   0
 -10  -4 -14   22.07    4.62   0
  -8  -4 -16   20.13    4.83   0
  -8  -4  -5   15.77    4.83   0
  -6  -4 -17    1.69    4.82   0
  -6  -4  -5    0.11    4.31   0
  -4  -4 -18   12.94    4.85   0
  -4  -4  -6   12.90    5.80   0
  -2  -4 -19    0.04    3.71   0
  -2  -4  -7   40.26    7.14   0
   0  -4 -19    4.84    3.75   0
   0  -4  -8   79.17    7.56   0
   2  -4 -19    9.13    3.82   0
   2  -4 -18   68.97    7.06   0
   2  -4 -11    5.78    5.15   0
   2  -4 -10   63.69    7.01   0
   3  -3  -4    7.20    3.80   0
   4  -4 -15    0.78    3.81   0
   4  -4 -14   48.50    6.48   0
   4  -4 -13    1.87    4.32   0
   5  -3  -6    2.67    3.61   0
 -10  -4 -13    6.09    3.23   0
 -10  -4 -12   18.98    4.17   0
 -10  -4 -11    2.77    3.81   0
  -8  -4 -15    3.29    3.43   0
  -8  -4 -14   22.48    5.03   0
  -8  -4  -7    8.24    5.33   0
  -8  -4  -6   70.59    7.29   0
  -6  -4 -16   21.51    4.79   0
  -6  -4  -7   16.30    5.80   0
  -6  -4  -6   36.66    5.87   0
  -4  -4 -17    1.22    3.79   0
  -4  -4  -7    9.43    4.65   0
  -3  -3  -1  515.91   16.35   0
  -2  -4 -18   12.05    4.01   0
  -2  -4 -17   -0.01    3.85   0
  -2  -4  -8   50.33    6.50   0
  -1  -3  -2    9.57    3.96   0
   0  -4 -18   25.65    4.62   0
   0  -4 -17    3.68    4.13   0
   0  -4 -10   54.50    6.57   0
   0  -4  -9    4.98    4.53   0
   1  -3  -3  278.03   11.77   0
   2  -4 -17   13.78    3.94   0
   2  -4 -16   55.31    6.36   0
   2  -4 -15    6.76    4.12   0
   2  -4 -14   71.06    7.12   0
   2  -4 -13    5.47    4.26   0
   2  -4 -12  102.48    8.30   0
   3  -3  -5  232.39   11.53   0
 -10  -4 -10   35.98    5.17   0
  -8  -4 -13    4.99    3.18   0
  -8  -4 -12   23.38    4.69   0
  -8  -4 -11    1.65    4.31   0
  -8  -4 -10   42.19    6.16   0
  -8  -4  -9    0.75    3.94   0
  -8  -4  -8   71.05    6.93   0
  -6  -4 -15    5.33    3.17   0
  -6  -4 -14   37.30    5.72   0
  -6  -4  -9    1.85    5.48   0
  -6  -4  -8  117.81    8.60   0
  -5  -3  -1  277.49   12.50   0
  -4  -4 -16   21.14    4.35   0
  -4  -4 -15    1.29    4.29   0
  -4  -4 -10   67.73    7.86   0
  -4  -4  -9    5.42    4.61   0
  -4  -4  -8   48.26    6.44   0
  -2  -4 -16   12.53    4.25   0
  -2  -4 -15    1.38    4.41   0
  -2  -4 -11    3.23    5.62   0
  -2  -4 -10   32.61    5.80   0
  -2  -4  -9   10.85    4.80   0
   0  -4 -16   27.83    4.80   0
   0  -4 -15    0.29    3.71   0
   0  -4 -14   44.23    6.21   0
   0  -4 -13    5.11    4.36   0
   0  -4 -12   73.39    7.12   0
   0  -4 -11   -0.84    4.42   0
   1  -3  -4   28.59    5.19   0
   5  -3  -7  175.82    9.93   0
  -6  -4 -13    5.10    3.65   0
  -6  -4 -12   36.17    5.38   0
  -6  -4 -11    1.59    3.97   0
  -6  -4 -10   66.87    6.69   0
  -4  -4 -14   38.70    5.34   0
  -4  -4 -13    4.31    3.81   0
  -4  -4 -12   46.14    6.20   0
  -4  -4 -11    4.04    4.27   0
  -3  -3  -2   29.52    5.02   0
  -2  -4 -14   31.25    5.21   0
  -2  -4 -13    0.92    3.81   0
  -2  -4 -12   26.16    5.48   0
  -1  -3  -3  453.19   15.20   0
   3  -3  -6   15.60    4.45   0
   5  -3  -8    9.15    4.12   0
  -7  -3 -21    4.46    5.09   0
  -5  -3 -22   -1.66    3.24   0
  -5  -3 -22    0.06    2.09   0
  -5  -3  -2    8.42    3.93   0
  -3  -3 -23    0.92    2.77   0
  -3  -3 -23    0.23    2.35   0
  -3  -3  -3  369.83   14.52   0
  -1  -3  -4   12.49    4.72   0
   1  -3  -5  200.90   10.43   0
   3  -3  -7  138.81    9.16   0
 -11  -3 -18    1.00    2.54   0
 -11  -3 -18   -1.04    2.33   0
  -1  -3 -23   14.44    4.79   0
   1  -3  -6    1.40    3.49   0
   3  -3  -8   19.66    5.55   0
 -11  -3 -17   23.20    5.74   0
  -9  -3 -19   15.92    4.83   0
  -7  -3 -20   -0.51    5.13   0
  -5  -3 -21   11.27    4.66   0
  -5  -3  -3  109.69    8.19   0
  -3  -3 -22    2.70    4.03   0
  -3  -3  -4   17.25    4.52   0
  -1  -3 -22    4.93    4.33   0
  -1  -3  -5  175.00    9.98   0
   1  -3  -7  113.65    8.84   0
   3  -3  -9  237.35   11.91   0
  -9  -3 -18   -0.87    4.20   0
  -5  -3  -4    6.01    4.07   0
  -3  -3 -21   22.46    4.79   0
  -3  -3  -5  304.09   12.90   0
  -1  -3  -6    5.24    3.96   0
   1  -3  -8    5.94    5.18   0
   3  -3 -10   44.97    6.04   0
 -11  -3 -16    6.93    3.49   0
  -9  -3 -17   39.64    5.95   0
  -7  -3 -19   14.86    4.23   0
  -7  -3  -4   50.71    6.43   0
  -5  -3 -20    0.12    3.31   0
  -5  -3  -5  147.47    9.35   0
  -3  -3 -20    2.47    4.03   0
  -3  -3  -6   15.81    5.79   0
  -1  -3 -21   21.64    4.60   0
  -1  -3  -7  255.29   12.10   0
   1  -3 -21   38.42    5.27   0
   1  -3 -20   -0.05    4.63   0
   1  -3  -9  277.42   12.64   0
   3  -3 -12    5.89    5.55   0
   3  -3 -11  213.28   11.23   0
 -12  -2 -20    3.41    3.77   0
 -12  -2 -20    0.23    2.66   0
 -11  -3 -15   35.67    5.26   0
 -11  -3 -14   -0.20    4.17   0
  -9  -3 -16    8.50    4.55   0
  -7  -3 -18    1.08    3.14   0
  -7  -3  -5  245.11   12.06   0
  -5  -3 -19   31.12    5.16   0
  -5  -3  -6   21.01    5.05   0
  -3  -3 -19   53.33    6.72   0
  -3  -3  -7  327.18   13.38   0
  -1  -3 -20    0.59    3.43   0
  -1  -3 -19   36.67    6.51   0
  -1  -3  -8   23.46    5.19   0
   1  -3 -19   42.14    6.19   0
   1  -3 -10   26.59    5.56   0
   3  -3 -16   53.04    7.96   0
   3  -3 -15  351.18   15.15   0
   3  -3 -14  200.57   11.26   0
   3  -3 -13  300.92   13.31   0
 -11  -3 -13   44.57    6.29   0
 -11  -3 -12    1.78    3.97   0
 -11  -3 -11   61.15    7.58   0
 -10  -2 -21    0.82    5.13   0
  -9  -3 -15   69.09    6.86   0
  -9  -3 -14    6.86    4.83   0
  -9  -3  -7   66.96    8.14   0
  -7  -3 -17   48.73    6.13   0
  -7  -3 -16    6.93    4.93   0
  -7  -3  -7  103.58    9.07   0
  -7  -3  -6    4.74    4.00   0
  -5  -3 -18   -1.40    3.58   0
  -5  -3 -17   79.64    8.11   0
  -5  -3  -7  115.23    8.57   0
  -4  -2 -24   22.00    6.35   0
  -3  -3 -18    5.68    3.84   0
  -3  -3  -8   15.77    5.06   0
  -1  -3 -18    2.28    4.40   0
  -1  -3 -10    8.12    5.58   0
  -1  -3  -9  175.87   10.68   0
   1  -3 -18    2.82    4.28   0
   1  -3 -17  100.93    8.58   0
   1  -3 -16   16.67    6.06   0
   1  -3 -15  209.65   11.95   0
   1  -3 -14  128.96    9.79   0
   1  -3 -13  323.92   14.44   0
   1  -3 -12   44.30    6.41   0
   1  -3 -11  258.28   12.21   0
 -12  -2 -19    0.18    4.91   0
  -9  -3 -13   87.83    7.89   0
  -9  -3 -12   -0.78    4.42   0
  -9  -3 -11  102.48    9.14   0
  -9  -3 -10    4.99    5.31   0
  -9  -3  -9  133.96    9.41   0
  -9  -3  -8   19.34    5.25   0
  -8  -2 -22   15.55    5.23   0
  -7  -3 -15   84.71    7.66   0
  -7  -3 -14    6.30    5.50   0
  -7  -3  -9  118.12    9.80   0
  -7  -3  -8    3.00    4.15   0
  -6  -2 -23    4.40    4.34   0
  -5  -3 -16    3.70    4.43   0
  -5  -3 -15  112.50    9.50   0
  -5  -3  -9   64.18    7.01   0
  -5  -3  -8   16.04    5.22   0
  -3  -3 -17   68.01    7.03   0
  -3  -3 -16    3.32    4.22   0
  -3  -3 -15   63.48    8.26   0
  -3  -3 -11   24.84    6.44   0
  -3  -3 -10   28.32    5.63   0
  -3  -3  -9   30.50    5.88   0
  -1  -3 -17   32.09    5.93   0
  -1  -3 -16    1.47    4.64   0
  -1  -3 -15   32.57    6.17   0
  -1  -3 -14    6.06    5.87   0
  -1  -3 -13   41.76    6.46   0
  -1  -3 -12   14.79    5.07   0
  -1  -3 -11   65.69    7.14   0
 -10  -2 -20   25.46    5.75   0
  -7  -3 -13  121.81    8.85   0
  -7  -3 -12    4.47    4.77   0
  -7  -3 -11  142.86    9.46   0
  -7  -3 -10    2.33    4.65   0
  -5  -3 -14    0.84    4.74   0
  -5  -3 -13  115.58    9.08   0
  -5  -3 -12    0.87    4.65   0
  -5  -3 -11  114.67    8.80   0
  -5  -3 -10   11.53    5.09   0
  -4  -2 -23    1.13    4.44   0
  -3  -3 -14    3.70    4.70   0
  -3  -3 -13   34.29    6.09   0
  -3  -3 -12    3.53    4.45   0
  -2  -2 -24   22.11    5.53   0
 -12  -2 -18   28.61    5.09   0
  -8  -2 -21   -1.35    4.12   0
  -6  -2 -22   24.33    5.36   0
 -25   1  25   15.70    5.27   0
 -25   1  26   -0.34    2.80   0
 -23   1  28   -0.23    4.57   0
 -20   2  19    4.24    4.74   0
 -20   2  20  106.49    7.89   0
 -20   2  21   -1.25    4.44   0
 -19   1  30   -0.37    3.98   0
 -18   2  15   10.01    4.54   0
 -18   2  16  103.43    8.85   0
 -18   2  23   -3.80    5.06   0
 -18   2  24   71.15    6.85   0
 -16   2  13    0.48    4.12   0
 -16   2  25   -1.98    3.43   0
 -14   2  11   10.43    4.25   0
 -12   2  10  392.24   14.68   0
 -26   0  29    0.76    2.28   0
 -26   0  29    0.24    2.18   0
 -25   1  22    3.82    3.61   0
 -25   1  23   45.54    5.86   0
 -25   1  24   -0.27    3.42   0
 -23   1  27   61.13    6.40   0
 -21   1  29   58.29    6.72   0
 -18   2  17   14.03    5.12   0
 -18   2  18   86.42    7.94   0
 -18   2  19   16.06    5.42   0
 -18   2  20   56.33    6.67   0
 -18   2  21    3.50    4.48   0
 -18   2  22  102.65    8.18   0
 -16   2  14  185.40   10.32   0
 -16   2  15   39.94    7.17   0
 -16   2  23    7.51    5.58   0
 -16   2  24   48.88    6.16   0
 -14   2  12  344.15   13.28   0
 -12   2  11    8.57    4.83   0
 -24   0  30    8.42    4.23   0
 -23   1  26    0.81    3.52   0
 -22   0  31    1.64    2.35   0
 -22   0  31    0.41    2.27   0
 -21   1  28    6.41    3.72   0
 -19   1  29   38.76    5.67   0
 -17   1  29   36.88    6.31   0
 -16   2  16  157.22    9.85   0
 -16   2  17   36.43    7.13   0
 -16   2  18  114.84    9.76   0
 -16   2  19   10.48    6.25   0
 -16   2  20  115.71    9.80   0
 -16   2  21    2.52    4.60   0
 -16   2  22  125.44    9.01   0
 -14   2  13    6.90    3.67   0
 -14   2  14  384.92   14.82   0
 -14   2  22   70.93    8.48   0
 -12   2  12  408.46   15.23   0
 -24   0  29    2.56    4.44   0
 -23   1  20   -2.07    5.53   0
 -23   1  21   64.28    7.89   0
 -23   1  22   -0.52    5.20   0
 -23   1  23   24.09    6.18   0
 -23   1  24    2.35    4.08   0
 -23   1  25   27.94    5.32   0
 -21   1  27   96.06    7.49   0
 -20   0  31    0.12    4.87   0
 -19   1  28   -1.59    3.33   0
 -14   2  15   11.96    4.84   0
 -14   2  16  177.38   11.18   0
 -14   2  17   -2.01    5.52   0
 -14   2  18   69.13    8.56   0
 -14   2  19    3.30    5.59   0
 -14   2  20   79.26    7.89   0
 -14   2  21    5.01    4.53   0
 -12   2  13    9.24    4.17   0
 -10   2  12   73.82    8.06   0
 -24   0  28   30.69    5.29   0
 -22   0  30   21.93    5.24   0
 -21   1  25   94.51    8.60   0
 -21   1  26   15.72    4.64   0
 -19   1  27   94.17    8.28   0
 -18   0  31   -1.20    3.70   0
 -18   0  31    1.76    2.59   0
 -17   1  28    0.44    3.38   0
 -12   2  14  357.08   14.12   0
 -12   2  15   31.16    5.02   0
 -12   2  16   84.34    7.93   0
 -12   2  17    3.89    5.43   0
 -12   2  18   33.18    6.80   0
 -12   2  19   17.56    5.10   0
 -10   2  13    5.33    3.90   0
 -10   2  14  202.97   11.51   0
 -24   0  27   -2.98    3.96   0
 -22   0  29   -4.26    4.15   0
 -21   1  17  199.96   11.20   0
 -21   1  18   37.52    7.21   0
 -21   1  23   75.93    8.03   0
 -21   1  24    9.09    4.55   0
 -20   0  30   19.50    6.01   0
 -19   1  26   -0.75    4.31   0
 -17   1  27   80.57    7.42   0
 -10   2  15    2.70    3.91   0
 -24   0  26   60.57    6.35   0
 -23  -1  30   -0.18    2.40   0
 -23  -1  30   -0.02    2.44   0
 -21  -1  31    6.07    3.20   0
 -21   1  19  309.58   13.74   0
 -21   1  20    2.66    5.04   0
 -21   1  21  164.71   10.67   0
 -21   1  22    0.24    4.48   0
 -19   1  15  370.78   15.27   0
 -19   1  25  171.13   10.26   0
 -18   0  30   24.30    6.37   0
 -17   1  26    3.61    5.22   0
 -15   1  27   65.87    6.82   0
 -24   0  25   -2.17    3.71   0
 -23  -1  29   49.79    7.27   0
 -22   0  28   31.52    5.02   0
 -20   0  29    2.44    3.29   0
 -19  -1  31   12.96    5.12   0
 -19   1  16   13.94    5.36   0
 -19   1  17  261.56   13.30   0
 -19   1  22   13.73    6.88   0
 -19   1  23   92.91    8.42   0
 -19   1  24   15.39    5.35   0
 -17   1  13  577.12   18.57   0
 -17   1  25  127.76    9.26   0
 -16   0  30   34.47    6.23   0
 -15   1  26   -0.10    4.15   0
 -22   0  26   86.31    8.25   0
 -22   0  27   -2.30    3.58   0
 -21  -1  30    3.60    2.88   0
 -21  -1  30   -1.38    2.82   0
 -20   0  28   18.25    5.12   0
 -19   1  18   79.53    8.04   0
 -19   1  19  205.61   11.39   0
 -19   1  20    3.91    4.63   0
 -19   1  21  136.56    9.87   0
 -18   0  29   -1.90    3.30   0
 -17  -1  31   10.93    4.41   0
 -17  -1  31    4.55    3.28   0
 -17   1  14   11.74    3.91   0
 -17   1  23   81.31    8.67   0
 -17   1  24   14.22    5.39   0
 -15   1  25   89.72    8.28   0
 -23  -1  28    0.26    3.36   0
 -22   0  25    4.55    4.08   0
 -20   0  27    1.87    4.72   0
 -18   0  28   25.16    5.78   0
 -17   1  15  726.47   19.95   0
 -17   1  16    9.91    4.86   0
 -17   1  17  234.63   12.60   0
 -17   1  21   74.91    8.83   0
 -17   1  22   46.79    6.84   0
 -16   0  29    0.24    3.16   0
 -15  -1  31    6.16    3.52   0
 -15  -1  31    3.26    3.07   0
 -15   1  24    0.25    4.41   0
 -14   0  29   -0.04    3.46   0
 -13   1  24    7.48    6.04   0
 -22   0  22  223.93   12.67   0
 -22   0  23    2.12    4.18   0
 -22   0  24  178.09   10.39   0
 -21  -1  29   60.66    6.51   0
 -20   0  26   61.14    7.29   0
 -19  -1  30    1.72    4.53   0
 -17   1  18    5.22    4.88   0
 -17   1  19  157.05   10.15   0
 -17   1  20   14.16    5.34   0
 -16   0  28   48.15    6.27   0
 -15   1  13  640.20   18.97   0
 -15   1  14   23.19    6.36   0
 -15   1  22   15.55    5.51   0
 -15   1  23  115.22    8.91   0
 -13   1  23   53.84    7.85   0
 -21  -1  28    8.15    3.50   0
 -20  -2  29    5.89    4.73   0
 -20   0  25    1.72    4.43   0
 -19  -1  29   41.20    6.28   0
 -18   0  27    3.37    3.76   0
 -17  -1  30    0.39    4.61   0
 -15  -1  30   -2.24    4.26   0
 -15   1  15  324.93   13.43   0
 -15   1  16   -0.22    4.21   0
 -15   1  17  221.26   12.09   0
 -15   1  18    7.86    5.17   0
 -15   1  19  152.62   10.44   0
 -15   1  20   15.02    5.59   0
 -15   1  21  181.87   10.74   0
 -14   0  28   17.19    4.70   0
 -13  -1  30    0.32    4.83   0
 -13   1  22    6.05    4.87   0
 -21  -1  27   81.00    7.06   0
 -20   0  23   -1.27    4.95   0
 -20   0  24  288.19   12.89   0
 -18   0  26   24.92    5.29   0
 -17  -1  29   40.19    6.15   0
 -16  -2  30    3.88    3.22   0
 -16   0  27   -2.50    3.75   0
 -14   0  27   -1.85    4.68   0
 -13   1  14   54.75    7.14   0
 -13   1  20   16.27    5.61   0
 -13   1  21  106.02    8.77   0
 -11   1  21   94.46    9.16   0
 -21  -1  26   12.58    4.27   0
 -20  -2  28   29.19    5.42   0
 -20   0  20  280.06   12.93   0
 -20   0  21   -4.42    4.91   0
 -20   0  22  579.62   17.87   0
 -19  -1  28    0.71    3.13   0
 -18  -2  29    3.99    5.14   0
 -18   0  24   93.24    9.00   0
 -18   0  25    0.23    4.08   0
 -16   0  26   32.83    5.54   0
 -15  -1  29   39.21    6.18   0
 -13   1  15  216.54   11.07   0
 -13   1  16   12.65    3.75   0
 -13   1  17  111.78    8.54   0
 -13   1  18   11.26    5.10   0
 -13   1  19   42.17    6.42   0
 -11   1  19   60.45    7.88   0
 -11   1  20    1.48    4.17   0
 -21  -1  25   95.58    7.79   0
 -19  -1  27  107.23    7.75   0
 -18   0  23    0.62    4.99   0
 -17  -1  28    2.23    3.41   0
 -16   0  25   -3.51    4.38   0
 -14   0  26   41.10    6.35   0
 -13  -1  29   22.33    4.86   0
 -12   0  26   51.59    6.46   0
 -11   1  15  289.62   13.17   0
 -11   1  16   35.99    6.23   0
 -11   1  17  185.83   10.44   0
 -11   1  18    6.83    4.34   0
 -21  -1  24    2.09    3.77   0
 -20  -2  27    2.63    2.76   0
 -19  -1  26    6.29    3.71   0
 -18  -2  28   56.20    6.30   0
 -18   0  20  279.28   13.05   0
 -18   0  21    0.38    4.51   0
 -18   0  22  276.10   12.38   0
 -17  -1  27   75.56    7.62   0
 -16  -2  29   -1.97    4.07   0
 -16   0  24  120.63    8.99   0
 -15  -1  28   -0.77    3.18   0
 -14  -2  29    0.60    4.77   0
 -14   0  25    0.99    4.31   0
 -13  -1  28    0.83    3.97   0
 -12  -2  29   -1.39    4.92   0
 -12   0  25   -3.58    5.18   0
 -10  -2  29    0.32    2.36   0
  -9   1  16    5.83    4.38   0
  -9   1  17  256.19   12.46   0
 -19  -1  25  182.18    9.71   0
 -18   0  18  453.49   15.50   0
 -18   0  19   -1.03    4.44   0
 -16  -2  28   40.19    5.84   0
 -16   0  22  108.06    9.39   0
 -16   0  23    3.66    4.71   0
 -14   0  24  212.22   11.16   0
 -11  -1  28    0.62    3.11   0
 -19  -1  24   19.58    5.04   0
 -18  -2  27    2.15    2.89   0
 -17  -1  26    7.21    3.97   0
 -16   0  20  345.29   14.09   0
 -16   0  21    1.80    4.63   0
 -15  -1  27   62.31    6.22   0
 -14  -2  28   33.52    5.69   0
 -14   0  23    3.81    4.42   0
 -13  -1  27   29.26    4.98   0
 -12   0  24   90.13    7.99   0
 -11  -1  27   26.84    5.69   0
 -19  -1  22   15.63    5.60   0
 -19  -1  23   82.98    7.37   0
 -18  -2  26   69.02    6.34   0
 -17  -1  25  140.12    8.78   0
 -16  -2  27   -2.02    2.93   0
 -16   0  16  554.57   16.83   0
 -16   0  17    0.24    4.02   0
 -16   0  18  710.58   18.79   0
 -16   0  19   -1.29    4.22   0
 -15  -3  27    8.06    3.71   0
 -15  -1  26   -4.19    3.86   0
 -14   0  21   -2.60    4.54   0
 -14   0  22  172.39    9.84   0
 -12  -2  28   37.61    5.94   0
 -12   0  23   -2.14    4.24   0
 -10  -2  28   27.42    5.76   0
 -10   0  23   -5.01    5.00   0
 -18  -2  25    1.15    4.27   0
 -17  -1  24   15.05    4.73   0
 -15  -1  25   89.58    7.36   0
 -14  -2  27   -0.42    3.07   0
 -14   0  20  249.05   11.40   0
 -13  -3  27    9.67    3.83   0
 -13  -1  26    6.66    3.88   0
 -12   0  22   95.17    7.89   0
 -11  -3  27   12.20    4.53   0
 -11  -1  26    1.98    3.93   0
 -10   0  22   99.79    8.23   0
  -9  -3  27    6.50    3.12   0
  -9  -3  27    1.98    2.30   0
  -9  -1  26    0.24    4.07   0
 -18  -2  24   78.21    7.05   0
 -17  -1  22   48.14    6.90   0
 -17  -1  23   75.68    7.12   0
 -16  -2  26   62.58    5.92   0
 -15  -3  26    0.87    3.05   0
 -15  -1  24    4.11    5.08   0
 -14   0  15    2.28    4.32   0
 -14   0  16   47.48    6.43   0
 -14   0  17    0.68    4.38   0
 -14   0  18  521.45   15.75   0
 -14   0  19   -1.01    4.42   0
 -13  -1  25   46.87    6.12   0
 -12  -2  27    0.40    2.94   0
 -12   0  20   94.84    8.40   0
 -12   0  21    1.79    3.93   0
 -10  -2  27    5.76    3.00   0
 -10   0  21   -3.10    4.98   0
  -8  -2  27    3.17    3.27   0
 -18  -2  23   -1.68    4.28   0
 -17  -1  21   78.21    6.88   0
 -16  -2  25    3.65    3.31   0
 -15  -1  23  110.25    8.88   0
 -14  -2  26   32.33    5.04   0
 -13  -3  26    1.57    3.30   0
 -13  -1  24   13.76    5.55   0
 -12   0  19   -1.04    3.93   0
 -11  -1  25   22.66    4.74   0
 -10   0  20  295.75   12.96   0
  -9  -1  25   30.96    5.26   0
 -17  -1  19  157.60    9.15   0
 -17  -1  20   10.75    4.35   0
 -16  -2  24   60.95    6.03   0
 -15  -3  25   14.46    3.63   0
 -15  -1  22   14.59    4.54   0
 -14  -2  25    3.72    4.50   0
 -12  -2  26   44.77    5.21   0
 -12   0  16   44.33    5.93   0
 -12   0  17   -0.24    2.50   0
 -12   0  18  328.31   12.48   0
 -11  -3  26    1.54    3.44   0
 -11  -1  24   32.08    5.27   0
 -10  -2  26   52.53    5.57   0
 -10   0  19    2.85    3.74   0
  -9  -3  26   -0.29    3.26   0
  -8  -2  26   54.25    5.91   0
  -8   0  20  317.87   12.83   0
  -7  -3  26    0.04    2.25   0
  -7  -3  26   -0.15    2.04   0
 -16  -2  23   11.05    5.00   0
 -15  -3  24   -0.48    2.34   0
 -15  -1  21  181.08    9.67   0
 -13  -3  25   31.83    4.53   0
 -13  -1  23   65.50    6.36   0
 -12  -2  25    2.42    4.23   0
 -11  -1  23   79.01    7.57   0
 -10   0  18  544.73   15.88   0
  -9  -1  24   16.61    4.61   0
  -8   0  19    1.44    3.57   0
 -16  -2  22  125.79    8.55   0
 -15  -3  23   34.01    5.36   0
 -15  -1  19  135.90    9.24   0
 -15  -1  20   21.85    4.74   0
 -14  -2  24   42.94    5.25   0
 -13  -1  22    7.63    4.19   0
 -11  -3  25   34.38    4.79   0
 -10  -2  25    1.64    3.25   0
 -10   0  16  178.63    9.32   0
 -10   0  17    0.31    3.14   0
  -9  -3  25   29.16    5.39   0
  -9  -1  23  162.08    9.26   0
  -8  -2  25    5.90    3.19   0
  -8   0  18  471.51   14.99   0
  -7  -3  25   28.81    5.00   0
  -7  -1  23  138.17    9.42   0
  -6  -2  25    1.94    3.13   0
  -5  -3  25   16.26    4.27   0
 -16  -2  21    3.46    3.72   0
 -15  -1  17  226.75   10.90   0
 -15  -1  18    3.97    3.69   0
 -14  -2  23    8.71    3.81   0
 -13  -3  24   -0.29    2.56   0
 -13  -1  21   97.84    7.29   0
 -12  -2  24   34.00    5.06   0
 -11  -1  22   16.77    4.64   0
 -10  -4  23    1.79    2.70   0
 -10  -2  24   68.10    6.92   0
  -9  -1  22   -3.98    4.81   0
  -8  -4  23   -0.43    2.60   0
  -8  -4  23    0.46    1.77   0
  -8   0  17   -0.96    3.16   0
  -6  -4  23    0.39    2.49   0
  -6  -4  23   -0.13    1.74   0
 -14  -2  22   98.43    7.00   0
 -13  -3  23   43.12    5.00   0
 -13  -1  19   43.57    6.03   0
 -13  -1  20   26.00    4.99   0
 -12  -2  23    1.34    3.48   0
 -11  -3  24   -0.47    2.59   0
 -11  -1  21  105.92    7.63   0
  -9  -3  24    0.72    2.58   0
  -8  -2  24  137.22    8.18   0
  -8   0  16  391.63   13.04   0
  -7  -3  24    0.43    3.20   0
  -7  -1  22    4.61    3.68   0
  -6  -2  24   92.36    6.95   0
  -5  -3  24    0.02    3.02   0
 -14  -2  21    3.24    3.56   0
 -13  -3  22    4.59    3.66   0
 -13  -1  18   16.23    4.37   0
 -12  -2  22   31.99    5.63   0
 -11  -3  23   35.52    4.73   0
 -11  -1  20    6.34    3.77   0
 -10  -4  22   11.65    3.33   0
 -10  -2  23    0.24    3.46   0
  -9  -1  21  319.76   11.97   0
  -8  -4  22   20.81    4.56   0
  -7  -1  21  325.87   12.67   0
  -4  -4  22   20.78    4.47   0
  -2  -4  22    3.83    2.05   0
 -14  -2  20   93.22    6.85   0
 -13  -1  16    7.06    4.21   0
 -13  -1  17  116.46    7.64   0
 -11  -1  19   64.71    6.40   0
 -10  -4  21    1.19    2.81   0
 -10  -2  22   47.23    6.07   0
  -9  -3  23   44.48    4.94   0
  -9  -1  20    1.76    4.04   0
  -8  -2  23    3.81    3.78   0
  -7  -3  23   43.29    5.30   0
  -6  -4  22   30.09    4.39   0
  -6  -2  23    1.93    3.38   0
  -5  -3  23   39.34    5.03   0
  -3  -3  23   25.13    4.25   0
   0  -4  21   -0.07    1.47   0
 -14  -2  19   -0.22    3.37   0
 -13  -3  21   66.82    6.12   0
 -13  -1  15  212.33    9.83   0
 -12  -2  21   20.13    4.46   0
 -11  -3  22    5.43    3.37   0
 -11  -1  18    6.19    3.61   0
  -9  -1  19  233.49   10.11   0
  -8  -4  21    2.39    3.13   0
  -8  -2  22  130.81    7.77   0
  -7  -1  20   -0.27    3.40   0
  -6  -2  22  143.86    9.02   0
  -4  -2  22   84.50    7.44   0
  -2  -4  21    5.42    3.52   0
 -14  -2  18   90.61    6.91   0
 -13  -3  20    1.68    3.32   0
 -12  -2  20   55.07    5.76   0
 -11  -3  21   45.45    5.53   0
 -11  -1  17  247.95   10.22   0
 -10  -4  20   25.09    3.67   0
 -10  -2  21   35.98    4.87   0
  -9  -3  22   -0.49    3.17   0
  -9  -1  18   12.40    4.87   0
  -7  -3  22    2.94    3.08   0
  -7  -1  19  310.01   11.57   0
  -6  -4  21    7.92    3.22   0
  -5  -3  22    1.10    3.48   0
  -5  -1  19  278.53   11.67   0
  -4  -4  21   14.53    3.77   0
  -3  -3  22   -0.49    2.63   0
 -12  -2  19   23.20    4.22   0
 -11  -3  20    1.58    4.33   0
 -11  -1  15  369.25   12.65   0
 -11  -1  16   35.81    4.69   0
 -10  -2  20   63.63    6.03   0
  -9  -3  21   58.51    5.55   0
  -9  -1  17  327.54   12.05   0
  -8  -4  20   34.34    4.17   0
  -8  -2  21   -1.03    3.53   0
  -7  -1  18   15.33    4.71   0
  -6  -2  21    2.99    3.56   0
  -4  -2  21    1.74    3.36   0
  -3  -5  17    4.21    2.44   0
  -1  -3  21   30.79    4.91   0
   0  -4  20   12.85    3.67   0
 -12  -2  18   37.67    4.92   0
 -10  -2  19   70.25    6.50   0
  -9  -1  16    1.04    3.63   0
  -8  -2  20   63.76    6.12   0
  -7  -3  21   36.87    4.98   0
  -6  -4  20   58.63    5.09   0
  -5  -3  21   36.38    4.83   0
  -5  -1  18   66.50    6.17   0
  -4  -4  20   77.03    5.90   0
  -3  -3  21   47.14    5.17   0
  -2  -4  20   39.15    4.77   0
   2  -4  19   -0.71    2.71   0
 -12  -2  17    5.64    3.67   0
 -11  -3  19   55.27    5.81   0
  -9  -3  20    2.11    3.79   0
  -9  -1  15  453.42   13.83   0
  -8  -4  19    1.97    2.40   0
  -8  -2  19    7.09    4.60   0
  -7  -3  20   11.95    4.51   0
  -7  -1  17  196.58    9.18   0
  -6  -4  19    1.70    3.46   0
  -6  -2  20   89.41    6.67   0
  -5  -1  17  317.61   12.14   0
  -4  -2  20   97.33    7.03   0
  -3  -5  16   -0.66    3.18   0
  -1  -5  16   -1.16    3.14   0
  -1  -3  20    1.60    3.72   0
   0  -4  19    3.04    2.84   0
 -12  -2  16   98.70    6.90   0
 -11  -3  18   13.16    4.13   0
 -10  -2  18  100.28    6.78   0
  -9  -3  19   68.67    6.34   0
  -8  -4  18   29.76    3.95   0
  -7  -1  16    8.05    3.37   0
  -6  -2  19    8.04    3.58   0
  -5  -3  20    2.98    3.51   0
  -4  -4  19   19.14    3.41   0
  -3  -3  20    0.44    3.10   0
  -2  -4  19   12.80    3.31   0
   2  -4  18    8.20    3.58   0
 -11  -3  17   51.58    5.91   0
 -10  -2  17    6.51    3.60   0
  -9  -3  18    3.81    4.46   0
  -8  -4  17    1.88    3.19   0
  -8  -2  18  146.32    7.98   0
  -7  -3  19   99.66    7.12   0
  -7  -1  15  258.90   10.41   0
  -6  -4  18   45.75    4.62   0
  -5  -1  16   35.19    4.82   0
  -4  -2  19    3.66    3.69   0
  -3  -5  15   15.20    3.39   0
  -2  -2  19    1.12    3.22   0
  -1  -5  15   11.06    4.13   0
  -1  -3  19   39.83    5.73   0
   0  -4  18   26.10    4.15   0
   1  -5  15    6.41    2.34   0
   1  -5  15    1.97    2.04   0
   1  -3  19   25.69    4.49   0
   4  -4  17    1.26    3.10   0
 -10  -2  16  130.65    7.47   0
  -8  -2  17   -2.24    3.58   0
  -7  -3  18    9.44    4.91   0
  -6  -2  18   96.71    7.02   0
  -5  -3  19   72.48    6.42   0
  -5  -1  15  165.26    8.64   0
  -4  -4  18   84.20    5.76   0
  -4  -2  18   91.72    6.95   0
  -3  -3  19   73.66    6.26   0
  -2  -4  18   72.01    5.38   0
  -2  -2  18   74.06    6.94   0
 -10  -2  15    3.06    3.31   0
  -9  -3  17   51.20    6.00   0
  -8  -2  16  195.42    9.55   0
  -6  -4  17    0.06    2.72   0
  -6  -2  17   13.44    3.99   0
  -5  -3  18    0.49    3.81   0
  -4  -4  17    4.32    2.98   0
  -3  -5  14    1.12    2.33   0
  -3  -3  18    4.70    5.04   0
  -3  -1  15   70.96    6.04   0
  -2  -4  17   14.93    4.06   0
  -1  -5  14    1.93    3.18   0
  -1  -3  18    5.38    4.49   0
   0  -4  17    3.03    3.42   0
   1  -5  14   -1.51    2.79   0
   1  -3  18    4.42    3.33   0
   2  -4  17   -0.66    2.30   0
   3  -5  14    1.26    2.60   0
 -10  -2  14  197.91    9.03   0
  -9  -3  16   15.39    4.36   0
  -7  -3  17  158.45    8.75   0
  -6  -4  16   23.26    3.86   0
  -4  -2  17   14.04    4.02   0
  -2  -2  17    2.78    3.74   0
   4  -4  16   19.81    3.37   0
   5  -5  13    7.63    2.90   0
   6  -4  15    2.51    3.30   0
   7  -5  12    0.47    1.54   0
   7  -5  12    0.08    1.54   0
  -9  -3  15   33.92    5.06   0
  -8  -2  15   49.71    5.58   0
  -7  -3  16    3.59    3.80   0
  -6  -4  15    3.89    3.88   0
  -6  -2  16  226.64   10.04   0
  -5  -3  17  211.44   10.03   0
  -4  -4  16   23.91    4.17   0
  -4  -2  16  261.06   11.34   0
  -3  -3  17  218.18   10.09   0
  -2  -4  16   53.34    5.03   0
  -1  -5  13   14.94    3.38   0
  -1  -3  17   88.08    6.83   0
   0  -4  16   26.97    3.94   0
   1  -5  13   11.81    3.33   0
   1  -3  17   36.66    5.12   0
   2  -4  16   14.15    3.29   0
   3  -5  13   12.05    3.49   0
  -8  -2  14  294.28   11.05   0
  -6  -2  15   42.00    5.19   0
  -5  -3  16   27.64    5.14   0
  -2  -2  16  207.87    9.89   0
   0  -2  16   90.18    7.15   0
   3  -3  16   -1.15    3.60   0
   4  -4  15    3.03    2.73   0
   5  -5  12    1.07    2.95   0
   6  -2   9   -0.83    3.07   0
   7  -3   9  140.77    8.18   0
   8  -4   7   10.83    4.30   0
  10  -2   8  229.09    9.93   0
  12  -4   6   46.54    4.84   0
  12  -2   7   18.43    5.23   0
  13  -3   7   94.08    6.76   0
  14  -4   5    5.02    3.22   0
  14  -2   6  296.11   11.93   0
  17  -5  -1   19.28    3.96   0
  18  -4   2   24.73    4.45   0
  19  -5  -3    4.38    2.85   0
  19  -5  -3    0.83    1.85   0
  19  -3   3   36.73    4.61   0
   4  -2   9   28.74    4.29   0
   5  -3   9   59.86    5.72   0
   8  -2   8  319.89   11.43   0
   9  -3   8   21.46    4.51   0
  10  -4   6   47.44    4.98   0
  11  -3   7   88.37    7.13   0
  12  -4   5    4.42    4.06   0
  13  -5   1   20.66    3.61   0
  13  -3   6   15.76    4.86   0
  14  -4   4   67.75    6.10   0
  15  -5   0    0.13    2.46   0
  15  -3   5   96.82    7.14   0
  16  -4   3    2.65    2.84   0
  17  -3   4    3.39    3.25   0
  20  -4   0   14.11    3.06   0
  22  -4  -2   13.79    3.54   0
   6  -2   8  110.06    6.98   0
   7  -3   8    0.90    3.38   0
   8  -4   6   76.08    6.92   0
  10  -2   7    1.69    3.51   0
  12  -2   6  317.54   11.84   0
  14  -2   5   29.94    5.76   0
  15  -5  -1   15.80    3.71   0
  17  -5  -2    1.18    2.71   0
  18  -4   1    0.47    2.79   0
  19  -5  -4   -0.10    2.51   0
  19  -3   2    3.92    3.10   0
  21  -5  -7    1.26    1.76   0
   5  -3   8   15.78    3.79   0
   8  -2   7    1.51    3.77   0
   9  -3   7   80.94    6.23   0
  10  -4   5    2.59    3.21   0
  11  -3   6   42.65    5.10   0
  12  -4   4   58.89    5.39   0
  13  -5   0    2.27    2.08   0
  13  -3   5  126.59    7.88   0
  14  -4   3    2.18    3.41   0
  15  -3   4    0.79    4.22   0
  16  -4   2   39.11    4.47   0
  17  -5  -3   10.34    3.24   0
  17  -3   3   42.23    4.92   0
  19  -5  -5    5.23    2.90   0
  20  -4  -1   -1.33    2.58   0
  22  -4  -3   -0.35    2.41   0
   7  -3   7  105.16    6.88   0
   8  -4   5   22.23    4.19   0
  10  -2   6  445.38   12.96   0
  12  -2   5   14.21    4.17   0
  13  -5  -1   12.79    3.14   0
  14  -2   4  294.02   11.09   0
  15  -5  -2    0.30    2.07   0
  17  -5  -4    0.03    3.21   0
  18  -4   0   14.41    3.56   0
  19  -3   1   39.86    4.56   0
  20  -4  -2   17.02    4.03   0
  22  -4  -4   20.96    3.89   0
   5  -3   7   97.57    6.70   0
   8  -2   6  478.43   13.45   0
   9  -3   6    3.40    3.35   0
  10  -4   4   34.57    4.66   0
  11  -3   5   46.35    5.06   0
  12  -4   3   17.17    3.93   0
  13  -5  -2   -0.54    2.91   0
  13  -3   4    2.52    4.46   0
  14  -4   2   71.19    5.86   0
  15  -5  -3    4.15    2.74   0
  15  -3   3  122.59    7.21   0
  16  -4   1    0.72    3.06   0
  17  -3   2   -5.68    3.08   0
  18  -4  -1    1.67    3.79   0
  21  -5 -10    0.47    1.55   0
  24  -4  -7    0.60    2.54   0
   7  -3   6    3.46    3.29   0
   8  -4   4   65.36    5.80   0
  10  -4   3    3.45    3.67   0
  10  -2   5   24.60    4.37   0
  14  -2   3    4.48    4.36   0
  15  -5  -4    3.34    3.16   0
  16  -4   0   38.58    4.50   0
  17  -5  -5    7.80    2.98   0
  17  -3   1   95.93    6.73   0
  19  -3   0    0.85    3.08   0
  20  -4  -3   -0.45    2.76   0
  22  -4  -5   -0.79    2.46   0
  24  -4  -8   21.16    4.01   0
   5  -3   6   14.68    3.76   0
   9  -3   5   85.74    6.17   0
  11  -3   4    0.60    3.31   0
  12  -4   2   53.68    5.39   0
  12  -2   4  399.56   12.22   0
  13  -5  -3   11.64    3.01   0
  13  -3   3  253.45    9.54   0
  14  -4   1   14.20    3.96   0
  15  -3   2   23.17    4.24   0
  17  -5  -6    2.42    2.61   0
  18  -4  -2   47.42    4.88   0
  19  -3  -1   67.35    6.05   0
  20  -4  -4   50.45    5.28   0
  22  -4  -6   17.56    3.36   0
   7  -3   5  228.92    9.32   0
   8  -4   3    4.09    3.18   0
  10  -4   2   58.70    5.49   0
  10  -2   4  558.43   14.58   0
  12  -4   1   18.54    4.87   0
  13  -5  -4    1.84    2.45   0
  14  -4   0  126.08    7.18   0
  15  -5  -5   17.90    3.29   0
  16  -4  -1   15.79    3.65   0
  17  -5  -7   27.25    4.08   0
  17  -3   0    0.30    4.25   0
  22  -4  -7    1.46    3.17   0
  24  -4  -9    0.86    2.66   0
   5  -3   5  140.92    7.45   0
   8  -4   2   88.71    7.01   0
   9  -3   4    5.59    3.43   0
  11  -3   3   93.42    6.35   0
  12  -2   3   32.54    4.58   0
  13  -3   2   25.32    4.44   0
  14  -2   2  347.27   11.56   0
  15  -5  -6    1.24    2.40   0
  15  -3   1  235.94    9.29   0
  16  -4  -2  131.93    7.93   0
  17  -5  -8    2.96    2.86   0
  18  -4  -3    4.44    3.64   0
  19  -5 -11    9.26    3.15   0
  19  -3  -2   28.59    4.24   0
  20  -4  -5    1.68    2.98   0
  24  -4 -10   25.95    3.94   0
   7  -3   4   50.55    5.16   0
  10  -4   1   11.38    3.43   0
  12  -4   0   92.36    6.22   0
  14  -4  -1   11.53    3.96   0
  15  -5  -7   43.52    4.78   0
  17  -5  -9   31.92    4.23   0
  17  -3  -1   87.02    6.23   0
  18  -4  -4  126.31    7.19   0
  19  -5 -14    0.63    2.98   0
  19  -5 -13    3.06    2.00   0
  19  -5 -13    1.99    1.89   0
  19  -5 -12    1.97    1.71   0
  19  -5 -12   -0.69    1.64   0
  20  -4  -6   28.45    4.12   0
  22  -4  -8   14.38    3.32   0
  24  -4 -11    3.36    2.95   0
   9  -3   3  158.34    7.90   0
  10  -4   0   87.47    6.89   0
  11  -3   2   13.04    3.57   0
  12  -2   2  625.63   14.91   0
  13  -3   1  268.49    9.77   0
  14  -4  -2  149.33    8.30   0
  14  -2   1   -2.51    3.09   0
  15  -5  -8    3.70    2.49   0
  15  -3   0   24.63    4.52   0
  16  -4  -3    8.22    3.84   0
  18  -4  -5    8.13    4.63   0
  19  -3  -3   39.95    4.64   0
  20  -4  -7   -0.38    3.73   0
  22  -4  -9   -0.10    2.54   0
  24  -4 -12   34.93    4.26   0
   7  -3   3  151.16    7.57   0
  12  -4  -1    4.78    3.92   0
  15  -5  -9   39.84    4.56   0
  16  -4  -4  209.19    9.38   0
  17  -5 -13   21.93    4.39   0
  17  -5 -12    0.88    2.57   0
  17  -3  -2    7.09    3.55   0
  22  -4 -10   21.38    3.61   0
   9  -3   2   24.42    4.03   0
  10  -4  -1    9.90    3.70   0
  11  -3   1   96.80    6.38   0
  12  -4  -2   73.12    5.99   0
  12  -2   1   53.67    5.53   0
  13  -3   0    1.68    3.35   0
  14  -4  -3    5.93    3.80   0
  14  -2   0  395.59   11.90   0
  15  -3  -1  213.85    8.65   0
  17  -5 -16   -0.32    1.44   0
  17  -5 -15    3.32    2.05   0
  17  -5 -15    2.19    1.93   0
  17  -5 -14    1.26    1.89   0
  17  -5 -14    0.51    1.75   0
  18  -4  -6   64.45    5.55   0
  19  -3  -4   -1.08    3.08   0
  20  -4  -8   17.63    3.68   0
  22  -4 -11   -0.24    2.59   0
  24  -4 -15    1.70    2.70   0
   7  -3   2    9.14    3.17   0
  14  -4  -4  113.82    7.58   0
  15  -5 -13   23.00    4.02   0
  15  -5 -12    2.96    2.41   0
  15  -3  -2   10.68    5.00   0
  16  -4  -5    1.77    3.71   0
  17  -3  -3   85.60    6.10   0
  18  -4  -7    3.20    3.52   0
  19  -3  -5   47.52    5.01   0
  20  -4  -9    1.62    2.95   0
  22  -4 -12   15.16    3.38   0
  24  -4 -18    4.01    2.14   0
  24  -4 -18    1.03    1.95   0
  24  -4 -17   -0.28    2.60   0
  24  -4 -16    5.62    2.81   0
   9  -3   1  169.76    8.12   0
  10  -4  -2   77.41    6.15   0
  11  -3   0   58.18    5.46   0
  12  -4  -3    7.24    3.87   0
  13  -3  -1  234.34    9.39   0
  14  -2  -1   12.85    4.13   0
  15  -5 -16   -0.04    1.57   0
  15  -5 -15    6.50    2.94   0
  15  -5 -14    3.70    2.47   0
  16  -4  -6   58.04    5.51   0
  17  -3  -4   -1.70    4.32   0
  20  -4 -10   31.01    4.29   0
  22  -4 -13   -1.72    2.46   0
   7  -3   1  124.52    7.06   0
  10  -4  -3    5.49    3.73   0
  12  -4  -4  140.92    7.83   0
  14  -4  -5   15.34    4.17   0
  15  -3  -3  296.80   10.44   0
  16  -4  -7   12.75    4.97   0
  19  -3  -6   -2.64    3.36   0
  20  -4 -11    2.63    2.92   0
  22  -4 -15    6.48    3.30   0
  22  -4 -14   13.06    3.31   0
   9  -3   0   39.82    4.74   0
  11  -3  -1  293.91   10.31   0
  13  -3  -2   23.03    4.39   0
  14  -4  -6  101.31    6.89   0
  17  -3  -5  159.03    8.17   0
  19  -3  -7  120.27    7.91   0
  20  -4 -12   24.76    4.15   0
  22  -4 -21    0.38    3.05   0
  22  -4 -17    2.03    3.57   0
  22  -4 -16   19.43    3.62   0
   7  -3   0   23.10    4.45   0
  10  -4  -4  103.56    7.05   0
  12  -4  -5    8.01    3.90   0
  13  -3  -3  398.02   12.37   0
  14  -4  -7   18.91    5.31   0
  14  -2  -2  245.93    9.51   0
  15  -3  -4   20.44    4.44   0
  16  -4  -8   27.72    4.64   0
  20  -4 -14   27.15    4.61   0
  20  -4 -13    1.21    2.85   0
  22  -4 -20   13.78    3.08   0
  22  -4 -20    4.71    2.72   0
  22  -4 -19   -0.83    2.97   0
  22  -4 -18   23.85    4.28   0
   9  -3  -1  174.81    8.10   0
  10  -4  -5   17.27    4.15   0
  11  -3  -2   35.14    4.75   0
  12  -4  -6  138.97    7.84   0
  16  -4  -9   16.64    4.29   0
  17  -3  -6    7.50    4.18   0
  19  -3  -8   59.15    6.01   0
  20  -4 -15    1.28    2.96   0
   7  -3  -1  154.35    8.10   0
  10  -4  -6   88.05    7.37   0
  12  -4  -7    5.03    4.03   0
  13  -3  -4    6.76    4.75   0
  14  -4  -8   81.63    6.35   0
  15  -3  -5  311.15   10.78   0
  16  -4 -10   69.61    5.98   0
  17  -3  -7  239.11    9.81   0
  18  -4 -13    2.72    3.46   0
  19  -3  -9  208.77    9.33   0
  20  -4 -22    4.77    2.19   0
  20  -4 -22    2.79    2.00   0
  20  -4 -21    1.05    3.41   0
  20  -4 -20   17.24    4.18   0
  20  -4 -19    0.04    3.49   0
  20  -4 -18   27.24    4.36   0
  20  -4 -17    5.99    2.74   0
  20  -4 -16   31.91    4.21   0
  21  -3 -11   43.61    5.45   0
   9  -3  -2    3.30    2.64   0
  11  -3  -3  260.29   10.04   0
  14  -4  -9   11.85    4.27   0
  15  -3  -6    2.78    3.73   0
  16  -4 -11   -0.19    3.64   0
  18  -4 -23    0.62    3.27   0
  18  -4 -15   -0.30    3.96   0
  18  -4 -14   40.13    4.91   0
  19  -3 -10   20.80    5.41   0
  21  -3 -12    0.10    3.53   0
   7  -3  -2    2.92    4.15   0
  10  -4  -7    9.09    3.75   0
  11  -3  -4   36.40    5.42   0
  13  -3  -5  338.35   11.43   0
  14  -4 -10  120.55    7.63   0
  17  -3  -8   42.25    5.51   0
  18  -4 -22    9.91    3.50   0
  18  -4 -17    2.03    3.50   0
  18  -4 -16   48.05    4.91   0
  21  -3 -13   73.26    6.48   0
   9  -3  -3  139.21    7.63   0
  10  -4  -8   11.87    3.96   0
  14  -4 -12  113.35    7.90   0
  14  -4 -11    6.60    4.17   0
  15  -3  -7  250.28    9.99   0
  16  -4 -23    1.57    2.61   0
  16  -4 -23    0.69    1.79   0
  16  -4 -14   65.02    5.84   0
  17  -3  -9  146.38    8.11   0
  18  -4 -21    1.28    3.07   0
  18  -4 -20   22.97    3.95   0
  18  -4 -19    1.01    2.69   0
  18  -4 -18   33.49    4.26   0
  19  -3 -11  172.42    8.86   0
  21  -3 -14    4.81    3.85   0
   7  -3  -3  194.92    9.34   0
   9  -3  -4   58.05    6.06   0
  10  -4  -9    1.61    3.46   0
  11  -3  -5  137.79    7.74   0
  12  -4 -11   11.50    5.00   0
  13  -3  -6   15.15    4.07   0
  14  -4 -13    7.50    4.88   0
  15  -3  -8    9.32    4.27   0
  16  -4 -22   16.46    3.77   0
  16  -4 -21    2.03    3.81   0
  16  -4 -17    3.04    4.52   0
  16  -4 -16   60.52    5.57   0
  16  -4 -15    1.64    3.43   0
  17  -3 -10    6.60    4.97   0
  19  -3 -12    5.76    3.74   0
  21  -3 -15   68.93    6.27   0
  10  -4 -10    8.02    3.88   0
  12  -4 -23   -0.42    3.33   0
  12  -4 -12   66.80    6.12   0
  13  -3  -7  207.29    9.25   0
  14  -4 -23    3.04    2.84   0
  14  -4 -22   21.46    4.72   0
  14  -4 -15    4.17    4.53   0
  14  -4 -14   63.01    5.95   0
  16  -4 -20   22.72    3.81   0
  16  -4 -19    6.77    2.99   0
  16  -4 -18   52.24    5.08   0
  19  -3 -13  120.07    7.86   0
  21  -3 -17   50.43    5.56   0
  21  -3 -16    1.18    3.54   0
   7  -3  -4   53.02    5.71   0
   9  -3  -5  122.74    7.95   0
  10  -4 -11    4.41    3.55   0
  11  -3  -6    0.44    2.84   0
  12  -4 -22   18.00    4.31   0
  12  -4 -14   47.04    6.17   0
  12  -4 -13    1.41    3.73   0
  14  -4 -21    1.74    2.96   0
  14  -4 -20   23.25    3.84   0
  14  -4 -19    4.41    3.67   0
  14  -4 -18   40.44    5.42   0
  14  -4 -17    2.68    3.21   0
  14  -4 -16   66.33    5.97   0
  15  -3  -9  113.59    7.45   0
  17  -3 -11   81.87    6.68   0
  19  -3 -27    1.67    2.12   0
  19  -3 -14   -1.43    3.72   0
  21  -3 -24    0.29    2.95   0
  21  -3 -23   31.45    4.98   0
  21  -3 -20    4.93    3.88   0
  21  -3 -19   46.33    5.22   0
  21  -3 -18   -0.43    3.18   0
  10  -4 -13    4.76    4.46   0
  10  -4 -12   35.74    4.74   0
  11  -3  -7   68.16    6.93   0
  12  -4 -21    0.69    2.70   0
  12  -4 -20   19.64    4.37   0
  12  -4 -16   52.24    6.06   0
  12  -4 -15    5.95    3.42   0
  13  -3  -8    8.02    4.05   0
  15  -3 -10   11.62    4.51   0
  17  -3 -12   28.35    4.96   0
  19  -3 -26    1.17    3.63   0
  19  -3 -16    1.87    4.61   0
  19  -3 -15   73.68    6.24   0
  21  -3 -22   -0.25    2.59   0
  21  -3 -21   37.33    4.61   0
   7  -3  -5  179.17    9.02   0
   9  -3  -6    0.86    3.35   0
  10  -4 -16   39.88    5.76   0
  10  -4 -15    1.03    3.46   0
  10  -4 -14   29.98    4.83   0
  12  -4 -19    1.41    2.84   0
  12  -4 -18   43.39    5.02   0
  12  -4 -17    1.13    3.37   0
  13  -3  -9  192.66    9.32   0
  15  -3 -11  104.93    7.09   0
  17  -3 -27    5.49    3.18   0
  17  -3 -27    2.60    2.29   0
  17  -3 -13   88.10    6.74   0
  19  -3 -25   22.41    4.29   0
  19  -3 -17   49.53    5.56   0
   9  -3  -7  176.30    8.99   0
  10  -4 -19    0.58    2.85   0
  10  -4 -18   29.39    4.61   0
  10  -4 -17    0.33    3.04   0
  11  -3  -8    1.20    3.71   0
  13  -3 -10   17.79    5.62   0
  15  -3 -12   46.74    5.77   0
  17  -3 -26    4.60    4.20   0
  17  -3 -15  100.05    7.97   0
  17  -3 -14    5.25    4.45   0
  19  -3 -24    1.08    3.08   0
  19  -3 -23   41.80    4.90   0
  19  -3 -22   -3.98    3.76   0
  19  -3 -21   35.56    5.59   0
  19  -3 -20    2.07    3.40   0
  19  -3 -19   34.23    5.03   0
  19  -3 -18    6.22    3.75   0
   7  -3  -6    8.34    3.68   0
  11  -3  -9  118.01    8.23   0
  13  -3 -11  213.79   10.33   0
  14  -2  -8  985.33   20.01   0
  15  -3 -27    4.15    2.55   0
  15  -3 -27    2.60    2.22   0
  15  -3 -13  104.77    7.65   0
  17  -3 -25   18.78    4.63   0
  17  -3 -16    7.91    4.17   0
   7  -3  -7  335.90   12.25   0
   9  -3  -8   20.25    4.42   0
  13  -3 -27    2.56    2.65   0
  13  -3 -27    1.72    2.32   0
  15  -3 -26    0.26    3.42   0
  15  -3 -14   12.65    4.58   0
  17  -3 -24    1.62    2.77   0
  17  -3 -23   52.38    5.86   0
  17  -3 -22    5.51    4.29   0
  17  -3 -19   89.06    7.85   0
  17  -3 -18    7.62    4.19   0
  17  -3 -17   97.89    7.52   0
   9  -3  -9  180.55    9.65   0
  11  -3 -27    3.33    2.53   0
  11  -3 -27    0.27    2.20   0
  11  -3 -10   10.57    4.21   0
  13  -3 -26    0.94    4.07   0
  13  -3 -13  176.50    9.78   0
  13  -3 -12   12.52    4.54   0
  14  -2  -9    6.65    3.56   0
  15  -3 -25   16.90    3.76   0
  15  -3 -16    4.81    5.23   0
  15  -3 -15  177.95    9.57   0
  17  -3 -21   90.94    6.95   0
  17  -3 -20    0.56    3.58   0
   7  -3  -8   16.13    3.94   0
   9  -3 -26   -1.05    3.72   0
  11  -3 -26    2.38    3.20   0
  11  -3 -11   53.62    5.84   0
  13  -3 -25   30.83    4.83   0
  13  -3 -14   14.22    5.56   0
  15  -3 -24   -1.95    2.88   0
  15  -3 -23   39.23    4.93   0
  15  -3 -22    1.99    4.52   0
  15  -3 -19  158.83    9.53   0
  15  -3 -18    1.19    4.15   0
  15  -3 -17  170.46    9.38   0
   7  -3  -9  344.75   12.57   0
   9  -3 -10    7.35    3.81   0
  11  -3 -25   35.68    4.96   0
  11  -3 -13   73.51    7.31   0
  11  -3 -12   41.57    5.43   0
  13  -3 -24    4.72    2.79   0
  13  -3 -16    2.90    5.34   0
  13  -3 -15  159.42    9.06   0
  14  -2 -10  580.52   15.69   0
  15  -3 -21   93.90    6.97   0
  15  -3 -20    2.59    3.98   0
  16  -2 -29    1.10    2.10   0
  16  -2 -29   -1.59    2.08   0
  16  -2 -13    1.17    4.44   0
   7  -3 -10   36.55    6.03   0
   9  -3 -25   24.86    4.44   0
   9  -3 -11  132.60    8.33   0
  11  -3 -24    1.82    2.90   0
  11  -3 -14   25.57    5.90   0
  13  -3 -23   45.25    4.98   0
  13  -3 -22    0.58    3.41   0
  13  -3 -21   73.83    7.00   0
  13  -3 -20    3.41    4.83   0
  13  -3 -19  108.44    8.27   0
  13  -3 -18    3.95    4.13   0
  13  -3 -17  115.16    8.11   0
  14  -2 -11    9.16    3.95   0
  16  -2 -28   40.19    5.44   0
  18  -2 -26   51.33    5.65   0
   7  -3 -24    1.88    2.53   0
   7  -3 -11  282.72   12.08   0
   9  -3 -24    1.53    2.63   0
   9  -3 -13   94.23    7.99   0
   9  -3 -12    7.84    4.12   0
  11  -3 -23   43.91    5.18   0
  11  -3 -22   10.36    4.48   0
  11  -3 -16   13.08    5.48   0
  11  -3 -15   60.22    6.54   0
  14  -2 -29    0.58    3.13   0
  14  -2 -12  338.73   12.36   0
  16  -2 -27    1.38    3.51   0
  16  -2 -15   38.33    6.14   0
  16  -2 -14  156.50    8.94   0
  18  -2 -25    2.97    3.11   0
  18  -2 -24   61.45    6.29   0
  18  -2 -23   -2.44    4.39   0
  18  -2 -22  108.16    8.31   0
   7  -3 -23   38.57    5.02   0
   7  -3 -12   19.12    4.78   0
   8  -2 -29    0.68    1.79   0
   8  -2 -29   -0.60    1.71   0
   9  -3 -23   38.66    5.01   0
   9  -3 -22   -0.98    4.30   0
   9  -3 -15   23.98    5.90   0
   9  -3 -14   15.96    4.61   0
  10  -2 -29   -0.86    2.98   0
  11  -3 -21   38.96    5.57   0
  11  -3 -20    4.95    3.82   0
  11  -3 -19   53.09    6.07   0
  11  -3 -18   11.25    4.57   0
  11  -3 -17   58.00    6.39   0
  12  -2 -29    1.44    3.12   0
  12  -2 -10  387.11   13.05   0
  14  -2 -28   30.45    4.91   0
  16  -2 -26   44.51    5.95   0
  16  -2 -16  176.32   10.00   0
   7  -3 -22   -0.32    3.18   0
   7  -3 -21   30.08    5.51   0
   7  -3 -14   17.58    5.60   0
   7  -3 -13  107.69    7.71   0
   9  -3 -21   62.69    6.07   0
   9  -3 -20    8.58    4.03   0
   9  -3 -19   59.81    6.40   0
   9  -3 -18    5.70    3.82   0
   9  -3 -17   53.07    6.26   0
   9  -3 -16   17.04    4.69   0
  12  -2 -28   36.09    5.08   0
  12  -2 -11    6.43    3.57   0
  14  -2 -27    1.30    2.76   0
  14  -2 -13    4.28    3.07   0
  16  -2 -25    0.03    3.27   0
  16  -2 -24   63.35    6.62   0
  16  -2 -18  141.32    8.96   0
  16  -2 -17   52.71    6.05   0
   6  -2 -28   13.35    4.16   0
   7  -3 -20    3.38    3.87   0
   7  -3 -19   79.46    6.72   0
   7  -3 -18    9.81    4.96   0
   7  -3 -17  127.45    9.05   0
   7  -3 -16    3.60    3.95   0
   7  -3 -15   90.03    7.34   0
   8  -2 -28   32.05    5.39   0
  10  -2 -28   32.39    5.08   0
  12  -2 -27   -0.22    3.63   0
  12  -2 -12  405.37   13.67   0
  14  -2 -26   37.72    4.75   0
  14  -2 -15   11.19    4.75   0
  14  -2 -14  400.27   13.54   0
  16  -2 -23   12.42    4.09   0
  16  -2 -22  120.59    8.22   0
  16  -2 -21    1.96    4.45   0
  16  -2 -20  126.43    8.33   0
  16  -2 -19   11.98    4.63   0
  14  -2 -25    0.31    3.57   0
  14  -2 -16  232.79   10.63   0
   0  -2 -20   41.30    5.52   0
   2  -2 -20   75.19    6.82   0
   2  -2 -19    0.86    4.92   0
   2   0 -28    0.50    3.44   0
   3  -1 -26   -1.63    2.80   0
   4  -2 -19    3.83    4.09   0
   4  -2 -18  119.71    8.31   0
   4  -2 -17   13.14    4.49   0
   4  -2 -16  284.94   12.29   0
   4  -2 -15   20.71    4.93   0
   4  -2 -14  192.66   10.41   0
   4  -2 -13    3.64    3.26   0
   4   0 -28    5.72    4.14   0
   6   0 -28   22.17    4.56   0
   7  -1 -25   55.38    6.07   0
   9  -1 -24   18.57    4.63   0
  11  -1 -21  102.41    8.12   0
  11  -1 -20    7.58    4.91   0
  11  -1 -19   67.26    7.05   0
  11  -1 -18    9.71    4.58   0
  11  -1 -17  230.70   11.15   0
  -3  -1 -24    2.69    3.32   0
  -2   0 -27   -1.12    1.84   0
  -2   0 -27    0.37    1.94   0
  -1  -1 -25   21.57    3.94   0
   0  -2 -19   13.88    4.18   0
   1  -1 -25   40.14    5.08   0
   2  -2 -18   77.91    7.01   0
   2  -2 -17    4.36    4.46   0
   3  -1 -25   34.51    4.73   0
   5  -1 -25   34.77    4.95   0
   7  -1 -24    5.82    3.79   0
   9  -1 -23  163.29    9.24   0
   9  -1 -22   -3.66    4.59   0
  -6   0 -25    2.80    3.07   0
  -4   0 -26   15.04    3.62   0
  -4   0 -26    6.92    3.19   0
  -1  -1 -24    0.74    3.54   0
   0   0 -27    0.82    3.09   0
   2  -2 -16  179.46    9.38   0
   2  -2 -15   22.02    4.46   0
   2  -2 -14  216.17   10.06   0
   2  -2 -13   11.81    3.49   0
   2   0 -27   -0.26    3.27   0
   3  -1 -24   -1.02    4.28   0
   4   0 -27    1.89    3.05   0
   5  -1 -24    2.18    3.47   0
   6   0 -27   -0.37    2.51   0
   7  -1 -23  136.13    8.54   0
   9  -1 -21  339.41   12.74   0
   9  -1 -20    6.42    4.85   0
  -3  -1 -23   42.36    5.70   0
  -2   0 -26   17.06    4.42   0
   1  -1 -24   11.70    3.48   0
   5  -1 -23   78.80    6.60   0
   7  -1 -22    4.26    3.76   0
   9  -1 -19  230.15   10.12   0
   9  -1 -18   14.04    3.92   0
   9  -1 -17  271.03   11.05   0
   9  -1 -16   -0.27    2.93   0
  -4   0 -25    2.38    3.05   0
  -1  -1 -23   43.12    5.06   0
  -1   1 -27    5.16    2.32   0
  -1   1 -27    2.40    2.14   0
   0   0 -26    5.40    2.70   0
   1  -1 -23   45.77    5.24   0
   2   0 -26   24.86    4.21   0
   3  -1 -23   73.31    6.10   0
   4   0 -26   76.85    5.88   0
   5  -1 -22    0.03    3.56   0
   6   0 -26   94.73    6.52   0
   7  -1 -21  299.04   11.23   0
   7  -1 -20   -0.10    4.29   0
   8   0 -25    4.11    3.04   0
  -8   0 -23    0.48    2.41   0
  -6   0 -24   17.49    3.52   0
  -3  -1 -22    1.79    2.92   0
  -3   1 -26    0.89    3.11   0
  -2   0 -25    0.36    2.68   0
  -1  -1 -22    8.69    3.53   0
   1  -1 -22   10.36    3.65   0
   1   1 -27   10.43    3.87   0
   3  -1 -22    0.40    3.31   0
   5  -1 -21  198.49    9.38   0
   6   0 -25   -1.18    2.88   0
   7  -1 -19  317.91   11.34   0
   7  -1 -18   14.36    3.23   0
   7  -1 -17  189.20    9.06   0
   8   0 -24  200.23    9.73   0
  -3  -1 -21   80.83    6.36   0
  -1  -1 -21   30.75    5.13   0
  -1   1 -26    0.28    2.90   0
   0   0 -25   -0.01    2.36   0
   1  -1 -21   96.57    7.33   0
   2   0 -25    0.17    2.63   0
   3  -1 -21  166.02    8.66   0
   4   0 -25   -1.34    2.91   0
   5  -1 -20    4.49    3.45   0
   5  -1 -19  290.74   11.22   0
   6   0 -24  122.39    7.95   0
   7  -1 -16    9.57    3.20   0
   7  -1 -15  227.62    9.46   0
  -7   1 -24   -0.93    2.32   0
  -7   1 -24   -0.14    1.64   0
  -6   0 -23   -0.55    2.36   0
  -5   1 -25   14.89    3.46   0
  -4   0 -24   22.14    3.48   0
  -3  -1 -20    7.00    4.03   0
  -2   0 -24   11.74    3.53   0
   1  -1 -20   16.02    4.67   0
   1   1 -26    0.76    2.49   0
   3  -1 -20    1.69    3.34   0
   4   0 -24  121.62    7.60   0
   5  -1 -18   73.88    6.04   0
   5  -1 -17  296.02   10.86   0
  -9   1 -23    5.68    2.39   0
  -9   1 -23    1.87    2.02   0
  -8   0 -22    6.73    2.73   0
  -4   0 -23    1.40    2.90   0
  -3   1 -25   21.15    4.11   0
  -1  -1 -20   38.91    4.97   0
   0   0 -24   12.16    3.24   0
   1  -1 -19  290.51   11.01   0
   2   0 -24   93.30    6.29   0
   3  -1 -19  259.29    9.95   0
   3  -1 -18   -1.97    3.82   0
   5  -1 -16   33.31    4.22   0
   5  -1 -15  157.06    7.86   0
   6   0 -23   -1.33    2.84   0
  -6   0 -22   26.47    4.39   0
  -5   1 -24    2.36    2.72   0
  -3  -1 -19   31.48    4.65   0
  -2   0 -23    1.75    2.42   0
  -1  -1 -19  129.97    7.51   0
  -1   1 -25   17.86    3.32   0
   0   0 -23   -3.45    3.43   0
   1  -1 -18    7.26    3.42   0
   1   1 -25   27.20    3.97   0
   2   0 -23   -1.40    2.98   0
   3  -1 -17  191.56    8.74   0
   3  -1 -16   21.33    4.26   0
   3   1 -25   26.03    3.86   0
   4   0 -23    2.00    2.82   0
   6   0 -22   22.19    3.79   0
  -9   1 -22    0.32    2.79   0
  -8   0 -21   -1.17    2.13   0
  -7   1 -23   29.30    4.19   0
  -4   0 -22   41.16    4.75   0
  -4   2 -24   15.03    3.75   0
  -3  -1 -18    7.54    3.41   0
  -3   1 -24    4.21    2.87   0
  -1  -1 -18    1.07    3.09   0
   1  -1 -17  211.08    9.09   0
   3  -1 -15   76.33    5.69   0
   4   0 -22   54.01    5.29   0
   6   0 -21   -0.42    2.56   0
 -11   1 -21   25.41    3.90   0
  -6   0 -21   -0.03    2.39   0
  -5   1 -23   40.04    4.50   0
  -3  -1 -17   60.00    5.26   0
  -2   0 -22   26.27    3.90   0
  -1  -1 -17  175.83    8.66   0
  -1  -1 -16    8.46    3.67   0
  -1   1 -24    3.71    2.45   0
   0   0 -22  152.20    7.75   0
   1  -1 -16    4.74    2.86   0
   1  -1 -15  213.07    9.12   0
   1   1 -24    8.78    2.98   0
   2   0 -22  147.01    7.49   0
   3   1 -24    0.75    2.46   0
   4   0 -21    0.40    2.80   0
   6   0 -20   99.96    6.54   0
  -8   0 -20   16.02    3.43   0
  -8   2 -22   16.43    3.92   0
  -7   1 -22    0.42    2.68   0
  -6   2 -23    1.15    2.47   0
  -4   0 -21    1.06    2.54   0
  -3  -1 -16   21.90    3.74   0
  -3   1 -23   41.90    4.69   0
  -2   0 -21   -0.41    3.51   0
  -1  -1 -15  255.02   10.06   0
   0   0 -21   -6.25    3.85   0
   1  -1 -14    0.12    2.16   0
   2   0 -21   -5.42    3.08   0
   3   1 -23   60.82    5.77   0
   4   0 -20   84.30    5.77   0
   6   0 -19   -0.14    2.84   0
   6   0 -18  223.28    9.60   0
 -13   1 -19   17.43    3.32   0
 -12   2 -20    3.92    2.05   0
 -12   2 -20    3.39    1.84   0
 -11   1 -20    4.13    2.12   0
 -10   2 -21    2.24    2.28   0
  -9   1 -21   42.61    4.19   0
  -8   0 -19    1.78    3.22   0
  -6   0 -20   40.02    4.53   0
  -4   0 -20   32.38    4.94   0
  -4   2 -23   -1.51    2.28   0
  -3  -1 -15   81.21    6.06   0
  -1  -1 -14    0.66    2.40   0
  -1   1 -23   37.56    4.20   0
   1   1 -23   40.29    4.41   0
   2   0 -20   93.75    6.28   0
   4   0 -19   -3.29    2.70   0
   6   0 -17    2.37    2.34   0
  -7   1 -21   64.33    5.24   0
  -6   0 -19    0.89    3.47   0
  -6   2 -22   25.01    3.76   0
  -5   1 -22    2.26    2.38   0
  -3  -1 -14    4.78    2.68   0
  -3   1 -22   -0.87    3.25   0
  -2   0 -20  166.46    7.93   0
  -2   2 -23    0.28    1.99   0
   0   0 -20  185.50    8.06   0
   1   1 -22    6.57    3.17   0
   2   0 -19   -0.66    3.44   0
   3   1 -22   -0.04    2.55   0
   4   0 -18  245.59    9.35   0
 -13   1 -18    0.75    2.36   0
 -11   1 -19   31.79    4.20   0
  -9   1 -20    7.38    2.73   0
  -8   0 -18   86.93    6.61   0
  -8   2 -21   -0.17    2.57   0
  -5   1 -21   88.85    6.19   0
  -4   0 -19   -0.78    2.91   0
  -4   2 -22   33.66    4.27   0
  -2   0 -19    2.64    2.96   0
  -1   1 -22    8.98    3.03   0
   0   0 -19    4.59    2.88   0
   2   0 -18  281.38   10.13   0
   3   1 -21  163.66    8.36   0
   4   0 -17   -1.49    2.49   0
 -14   2 -18    7.51    3.02   0
 -12   2 -19   -0.30    2.41   0
 -10   2 -20   24.52    3.73   0
  -7   1 -20    5.39    3.40   0
  -6   0 -18  125.39    7.36   0
  -6   2 -21   -0.12    2.94   0
  -4   0 -18   71.73    6.36   0
  -3   1 -21   68.94    5.75   0
  -2   0 -18  140.24    7.78   0
  -2   2 -22   28.12    3.90   0
  -1   1 -21   30.18    4.47   0
   0   0 -18  198.26    8.46   0
   1   1 -21   74.38    5.80   0
   2   0 -17   -1.33    3.36   0
   4   0 -16  371.91   11.70   0
 -13   1 -17   30.95    4.22   0
 -11   1 -18    3.62    3.15   0
  -9   1 -19   52.39    4.79   0
  -9   3 -19   11.67    3.74   0
  -8   0 -17   -1.10    2.84   0
  -8   2 -20   40.84    4.81   0
  -6   0 -17    2.84    3.73   0
  -5   1 -20   -4.40    3.56   0
  -4   2 -21    7.16    3.43   0
   0   0 -17    2.26    3.55   0
   2   0 -16  465.58   12.95   0
   3   1 -20    2.48    2.95   0
 -16   2 -16    7.57    2.67   0
 -14   2 -17    0.66    2.15   0
 -13   3 -17    6.11    2.31   0
 -13   3 -17    3.62    1.95   0
 -12   2 -18   27.74    3.89   0
 -11   3 -18    1.12    2.24   0
 -10   2 -19    2.20    2.29   0
  -8   0 -16  170.53    8.97   0
  -7   1 -19  100.27    6.65   0
  -4   0 -17    0.01    2.87   0
  -3   1 -20    8.06    3.29   0
  -2   0 -17    0.54    2.93   0
  -2   2 -21    0.48    2.59   0
  -1   1 -20   45.57    4.69   0
   0   0 -16  942.02   17.77   0
   1   1 -20    8.15    3.32   0
   2   0 -15    1.27    2.85   0
 -13   1 -16    0.89    2.92   0
 -11   1 -17   48.71    5.22   0
  -9   1 -18    3.10    3.04   0
  -7   3 -19   11.08    2.95   0
  -6   0 -16  236.27    9.86   0
  -6   2 -20   36.89    4.17   0
  -5   1 -19  111.33    6.86   0
  -4   0 -16  122.01    7.19   0
  -4   2 -20   36.34    4.68   0
  -3   1 -19   36.03    4.91   0
  -2   0 -16  548.98   13.73   0
  -1   1 -19  115.67    7.60   0
   1   1 -19  258.73   10.12   0
 -17   3 -14    1.63    1.42   0
 -16   2 -15   -0.04    2.21   0
 -10   2 -18   48.73    5.04   0
  -9   3 -18    0.51    2.49   0
  -8   0 -15    0.07    2.85   0
  -8   2 -19   -0.42    2.53   0
  -7   1 -18    5.30    3.29   0
  -6   0 -15   -1.96    3.77   0
  -2   0 -15   -1.96    3.50   0
  -2   2 -20   30.65    4.16   0
   0   0 -15    1.56    2.54   0
 -19   3 -12    1.27    1.33   0
 -15   3 -15   10.55    3.02   0
 -14   2 -16   16.24    3.08   0
 -13   1 -15   49.50    5.19   0
 -13   3 -16    1.37    2.44   0
 -12   2 -17   -1.86    2.31   0
 -11   1 -16    5.43    3.84   0
 -11   3 -17   22.04    3.70   0
  -9   1 -17   47.21    4.83   0
  -8   0 -14  467.02   13.93   0
  -7   3 -18    0.86    2.54   0
  -6   2 -19    2.87    2.71   0
  -5   1 -18    7.51    3.30   0
  -4   0 -15   -1.66    2.83   0
  -4   2 -19    8.25    3.66   0
  -3   1 -18    6.04    3.43   0
  -1   1 -18    1.33    3.10   0
   0   0 -14  851.59   17.16   0
   1   1 -18    6.95    3.13   0
 -17   3 -13   14.63    3.88   0
 -16   2 -14   16.98    3.76   0
 -10   2 -17    4.21    3.45   0
  -9   3 -17   39.31    4.73   0
  -8   2 -18   62.81    5.11   0
  -7   1 -17  105.50    6.52   0
  -6   0 -14  340.96   11.94   0
  -5   1 -17   35.86    5.16   0
  -4   0 -14  292.24   10.80   0
  -2   0 -14  275.28    9.78   0
  -2   2 -19    3.32    2.81   0
   1   1 -17  201.17    9.04   0
 -15   3 -14    1.56    2.48   0
 -14   2 -15   -0.58    2.27   0
 -13   1 -14    1.59    3.62   0
 -13   3 -15   25.02    4.22   0
 -12   2 -16   28.36    3.95   0
 -11   1 -15   85.99    6.17   0
 -11   3 -16    4.94    2.41   0
  -9   1 -16   35.23    4.45   0
  -8   0 -13    0.40    2.86   0
  -6   0 -13    0.89    2.73   0
  -6   2 -18   69.39    5.45   0
  -4   0 -13    1.30    3.10   0
  -4   2 -18   99.82    6.74   0
  -3   1 -17   60.92    5.71   0
  -2   2 -18   65.34    6.07   0
  -1   1 -17  201.87    8.64   0
   1   1 -16    8.37    3.46   0
 -19   3 -11   14.86    3.50   0
 -18   2 -12    8.36    2.92   0
 -10   2 -16   44.27    5.44   0
  -9   1 -15   92.88    7.02   0
  -8   2 -17    1.78    3.01   0
  -7   1 -16   -0.55    3.15   0
  -7   3 -17   47.07    4.56   0
  -5   1 -16    3.73    3.19   0
  -3   1 -16   19.66    4.71   0
  -1   1 -16    7.49    3.19   0
 -21   3  -9    3.41    2.31   0
 -21   3  -9    2.01    1.94   0
 -17   3 -12    5.29    2.67   0
 -16   2 -13   -0.88    2.51   0
 -15   3 -13   21.50    3.94   0
 -14   2 -14   30.33    4.39   0
 -14   4 -12   10.96    3.30   0
 -13   1 -13  131.19    7.49   0
 -12   2 -15    0.33    2.86   0
 -12   4 -13   -1.12    2.46   0
 -11   1 -14    5.79    3.47   0
 -11   3 -15   36.33    4.76   0
  -9   3 -16    7.19    2.82   0
  -7   1 -15   99.96    7.30   0
  -6   0 -12  107.61    7.20   0
  -6   2 -17   17.12    4.22   0
  -4   2 -17    0.42    3.29   0
  -2   2 -17   26.56    4.43   0
   1   1 -15  219.74    9.64   0
 -19   3 -10    2.46    2.76   0
 -18   2 -11   -1.03    2.49   0
 -18   4  -9    0.03    1.47   0
 -13   3 -14    1.82    2.41   0
 -10   2 -15   -1.45    4.09   0
  -9   1 -14    1.62    3.60   0
  -8   2 -16   51.99    5.37   0
  -7   3 -16    4.10    3.15   0
  -6   2 -16  150.96    8.67   0
  -5   1 -15   86.02    6.31   0
  -3   1 -15   93.46    6.63   0
  -1   1 -15  271.71   10.11   0
 -21   3  -8    1.18    2.77   0
 -17   3 -11   21.55    4.02   0
 -16   2 -12   38.23    4.78   0
 -16   4 -10   12.19    3.48   0
 -14   2 -13    3.08    3.10   0
 -14   4 -11   -2.86    3.83   0
 -13   1 -12   45.69    5.36   0
 -12   2 -14   64.17    6.07   0
 -12   4 -12   26.60    4.44   0
 -11   1 -13  203.00    9.60   0
 -11   3 -14    0.15    3.51   0
  -9   3 -15   62.88    5.60   0
  -8   2 -15    5.40    4.72   0
  -7   1 -14   32.96    4.65   0
  -4   2 -16   97.63    6.72   0
  -2   2 -16   32.99    4.81   0
  -1   1 -14    2.59    3.65   0
 -18   2 -10   36.63    4.86   0
 -15   3 -12    0.20    2.49   0
 -13   3 -13   24.19    4.00   0
 -10   2 -14   61.07    6.61   0
  -9   1 -13   86.80    6.57   0
  -7   3 -15   72.98    6.14   0
  -6   2 -15    5.09    4.63   0
  -5   1 -14    7.87    3.69   0
  -3   1 -14    1.95    3.38   0
 -19   3  -9   31.88    4.37   0
 -18   4  -8    1.51    3.02   0
 -17   3 -10    2.31    3.51   0
 -16   2 -11   10.52    3.69   0
 -16   4  -9    2.00    3.60   0
 -14   2 -12   62.97    6.11   0
 -13   1 -11  244.64   10.65   0
 -12   2 -13    2.99    3.51   0
 -11   1 -12    6.83    3.81   0
 -11   3 -13   52.65    5.94   0
  -9   3 -14    3.19    3.27   0
  -8   2 -14   74.69    7.18   0
  -7   1 -13  100.40    7.14   0
  -5   1 -13  242.41   10.45   0
  -4   2 -15   15.32    4.13   0
  -3   1 -13  210.59    9.61   0
  -2   2 -15    2.94    3.38   0
  -1   1 -13  513.33   14.42   0
 -22   4  -4    2.32    2.15   0
 -21   3  -7   22.24    3.93   0
 -20   4  -6    3.38    2.14   0
 -20   4  -6    1.25    1.91   0
 -18   2  -9    7.63    3.57   0
 -15   3 -11   22.21    3.95   0
 -14   4 -10   25.55    4.52   0
 -13   3 -12    0.16    2.96   0
 -12   4 -11    1.28    2.90   0
 -11   1 -11  202.84   10.27   0
 -10   2 -13   39.52    5.25   0
  -9   1 -12   11.37    3.73   0
  -7   3 -14    2.70    3.87   0
  -6   2 -14   83.20    6.85   0
 -19   3  -8    7.34    2.91   0
 -18   4  -7   -0.80    3.00   0
 -17   3  -9   31.39    5.12   0
 -16   2 -10   43.31    5.48   0
 -14   2 -11    8.24    4.01   0
 -13   1 -10   30.27    5.16   0
 -12   2 -12   84.87    7.04   0
 -11   3 -12    5.55    4.63   0
  -9   3 -13   84.55    6.97   0
  -8   2 -13    4.58    4.86   0
  -7   1 -12    7.46    3.55   0
  -5   1 -12   30.17    4.21   0
  -4   2 -14   37.62    5.21   0
  -3   1 -12   21.04    3.99   0
  -2   2 -14   43.71    5.51   0
 -22   4  -3    0.91    2.66   0
 -22   4  -3    0.03    1.88   0
 -21   3  -6    2.61    2.41   0
 -20   4  -5    1.06    3.08   0
 -18   2  -8   60.30    6.27   0
 -16   4  -8   11.21    3.83   0
 -15   3 -10   -0.81    3.11   0
 -14   4  -9    0.94    2.74   0
 -13   3 -11   34.78    4.95   0
 -12   4 -10   33.69    4.52   0
 -11   1 -10    1.66    3.86   0
 -10   2 -12   99.08    7.43   0
  -9   1 -11  218.08    9.93   0
  -7   1 -11  226.28   10.35   0
  -7   3 -13  119.69    8.31   0
  -6   2 -13    9.62    4.24   0
  -4   2 -13   13.42    5.11   0
 -19   3  -7   46.42    5.32   0
 -18   4  -6   11.80    3.85   0
 -17   3  -8    5.20    4.42   0
 -16   2  -9    8.93    4.07   0
 -14   2 -10   51.88    5.92   0
 -12   2 -11   14.35    4.39   0
 -11   3 -11   69.54    7.28   0
  -9   1 -10   66.20    6.89   0
  -9   3 -12    4.27    3.97   0
  -8   2 -12  108.90    7.72   0
  -5   1 -11  307.93   11.80   0
 -24   4   0    4.50    2.50   0
 -24   4   0    3.03    2.17   0
 -22   4  -2   13.98    4.59   0
 -21   3  -5   13.98    3.82   0
 -20   4  -4   17.54    4.40   0
 -18   2  -7    1.89    3.98   0
 -17   5  -2    1.69    2.66   0
 -16   4  -7    1.29    2.84   0
 -15   3  -9   33.55    5.18   0
 -14   4  -8   27.45    4.71   0
 -13   3 -10    1.33    3.80   0
 -12   2 -10  115.14    9.13   0
 -12   4  -9    3.65    3.31   0
 -11   1  -9  418.85   14.19   0
 -10   2 -11   39.05    5.76   0
  -7   1 -10   22.90    5.24   0
  -7   3 -12    3.91    4.38   0
  -6   2 -12  175.89    9.49   0
  -4   2 -12  157.28    9.43   0
 -19   3  -6    7.89    3.92   0
 -18   4  -5    1.26    2.97   0
 -17   3  -7   30.77    6.00   0
 -16   2  -8   46.27    5.78   0
 -14   2  -9    4.11    4.71   0
 -11   3 -10    5.84    5.51   0
  -9   1  -9  293.51   12.55   0
  -9   3 -11  117.84    8.48   0
  -8   2 -11    5.96    4.70   0
 -24   4   1    0.77    2.08   0
 -24   4   1    0.02    2.11   0
 -22   4  -1    3.94    4.03   0
 -21   3  -4    1.51    3.14   0
 -20   4  -3    5.61    3.27   0
 -18   2  -6   64.46    7.44   0
 -17   5  -1    6.44    3.88   0
 -17   5  -1    2.38    2.62   0
 -16   2  -7   10.42    5.94   0
 -16   4  -6   18.49    4.27   0
 -15   3  -8    2.87    3.88   0
 -14   4  -7    0.40    3.43   0
 -13   3  -9   55.03    6.53   0
 -12   2  -9    8.23    5.89   0
 -12   4  -8   35.46    5.15   0
 -11   1  -8    4.44    4.08   0
 -10   2 -10  143.06    9.19   0
  -7   3 -11  147.07    9.53   0
  -6   2 -11    7.25    4.31   0
  -4   2 -11   21.08    5.63   0
 -21   3  -3   20.54    5.25   0
 -19   3  -5   48.76    5.79   0
 -19   5   1    3.53    2.38   0
 -18   4  -4   13.17    4.26   0
 -17   3  -6   13.03    5.34   0
 -16   4  -5    2.80    4.50   0
 -14   2  -8  165.84    9.91   0
 -11   3  -9   81.94    8.34   0
 -10   4  -8   39.19    5.69   0
  -9   1  -8   16.33    5.07   0
  -9   3 -10    3.88    4.79   0
  -8   2 -10  188.99   10.57   0
 -24   4   2   17.19    4.58   0
 -22   4   0   11.07    4.10   0
 -20   4  -2   11.27    3.94   0
 -19   5   2   -0.76    4.02   0
 -18   2  -5   14.12    5.15   0
 -17   5   0    1.62    3.78   0
 -16   2  -6   87.45    8.51   0
 -15   3  -7   58.99    6.93   0
 -14   4  -6   40.53    5.73   0
 -13   3  -8    7.75    4.93   0
 -12   2  -8  214.87   11.50   0
 -12   4  -7    3.86    3.76   0
 -11   1  -7  439.60   15.36   0
 -10   2  -9   46.71    6.38   0
  -7   3 -10   11.18    4.97   0
  -6   2 -10  204.57   10.68   0
  -4   2 -10  210.15   11.04   0
 -24   4   3   -0.45    4.02   0
 -21   3  -2    3.71    4.90   0
 -20   4  -1   -1.86    4.26   0
 -19   3  -4    6.38    4.31   0
 -18   4  -3    2.67    3.57   0
 -17   3  -5   37.16    6.22   0
 -16   4  -4   38.68    6.49   0
 -14   2  -7   44.88    6.57   0
 -14   4  -5    0.23    5.57   0
 -12   4  -6   35.21    6.85   0
 -11   3  -8   13.47    5.33   0
 -10   4  -7   10.11    4.61   0
  -9   3  -9  161.48   10.12   0
  -8   2  -9    7.34    4.83   0
 -22   4   1    3.35    3.55   0
 -19   5   3    2.88    2.77   0
 -19   5   3    1.89    2.45   0
 -17   5   1   16.49    4.84   0
 -15   3  -6    8.61    5.15   0
 -13   3  -7  104.99    8.70   0
 -10   2  -8  247.02   11.67   0
  -7   3  -9  138.59    9.51   0
  -6   2  -9   -1.10    4.02   0
 -13  -5  15    3.13    4.05   0
 -10  -4  17    3.10    4.96   0
  -9  -5  14    0.56    4.25   0
  -7  -3  17  149.04   10.42   0
  -5  -3  16   23.56    6.07   0
  -4  -2  15   23.80    5.75   0
  -3  -5  11   52.20    6.76   0
  -3  -3  15  378.18   14.71   0
  -1  -5  10    2.99    3.61   0
   0  -4  12   68.00    7.62   0
   0  -2  12  297.53   13.99   0
   1  -3  12   18.32    6.82   0
 -12  -4  17    2.76    5.04   0
 -11  -5  14    4.87    4.27   0
  -9  -3  17   48.60    8.38   0
  -8  -4  16   47.55    6.44   0
  -7  -5  13   28.41    4.96   0
  -6  -4  15    7.11    4.93   0
  -5  -5  12    2.84    3.91   0
  -4  -4  14   42.73    6.78   0
  -2  -4  13    6.92    5.23   0
  -2  -2  13   17.09    5.49   0
  -1  -3  13  328.77   13.61   0
   2  -4  10   34.43    6.32   0
   2  -2  10  235.32   12.26   0
   3  -3  10   33.03    5.76   0
 -15  -5  14    3.08    3.68   0
 -13  -5  14    1.75    3.63   0
 -10  -4  16   28.67    5.97   0
  -9  -5  13   14.00    4.47   0
  -7  -5  12   -0.87    4.93   0
  -7  -3  16    5.92    5.18   0
  -6  -2  15   38.56    6.44   0
  -5  -5  11   41.68    7.41   0
  -5  -3  15  248.34   12.83   0
  -4  -2  14  197.48   11.67   0
  -3  -5  10    7.15    4.32   0
  -3  -3  14  206.81   11.62   0
  -2  -4  12  111.09   10.21   0
   0  -4  11    2.52    5.35   0
   0  -2  11   22.22    7.10   0
   1  -3  11   66.79    7.83   0
   2  -4   9   15.85    7.01   0
 -12  -4  16   53.31    7.65   0
 -11  -5  13   11.71    4.60   0
  -9  -3  16   16.74    6.38   0
  -8  -4  15   -0.13    5.22   0
  -6  -4  14  117.26    8.95   0
  -4  -4  13   -4.34    5.83   0
  -2  -2  12  451.85   16.42   0
  -1  -3  12   43.15    7.25   0
   0  -4  10   44.84    8.65   0
   3  -3   9   32.97    6.45   0
 -15  -5  13   27.62    5.31   0
 -13  -5  13   28.36    5.64   0
 -10  -4  15    0.23    5.03   0
  -9  -5  12    1.32    4.16   0
  -7  -5  11   36.38    6.11   0
  -7  -3  15  115.17    9.56   0
  -6  -2  14  200.44   11.88   0
  -5  -5  10    5.74    4.74   0
  -5  -3  14   18.62    6.67   0
  -4  -2  13    4.32    5.18   0
  -3  -5   9   62.31    7.42   0
  -3  -3  13  281.56   13.12   0
  -2  -4  11    3.99    6.15   0
   1  -3  10    4.06    5.74   0
   3  -3   8   10.74    7.04   0
 -13  -5  12   -1.54    4.94   0
 -12  -4  15   -1.42    4.83   0
 -11  -5  12    2.04    4.11   0
  -9  -5  11   22.59    6.56   0
  -9  -3  15   33.22    8.37   0
  -8  -4  14   78.37    8.41   0
  -6  -4  13   17.79    6.64   0
  -4  -4  12  120.24   10.00   0
  -3  -5   8   12.39    5.16   0
  -1  -3  11  261.15   12.75   0
   0  -4   9    2.13    6.06   0
 -15  -5  12    0.89    3.97   0
 -11  -5  11   34.62    6.82   0
 -10  -4  14   40.48    6.71   0
  -8  -4  13    7.15    7.70   0
  -7  -5  10    2.58    5.09   0
  -7  -3  14   26.91    6.97   0
  -6  -2  13    5.56    5.43   0
  -5  -5   9   81.76    8.23   0
  -5  -3  13  117.10   10.04   0
  -4  -4  11    5.95    8.26   0
  -4  -2  12  265.00   13.30   0
  -3  -3  12   -3.79    6.38   0
  -2  -4  10   58.38    8.50   0
   1  -3   9  171.22   10.84   0
 -17  -5  11   20.80    5.04   0
 -15  -5  11   33.06    5.78   0
 -13  -5  11   43.83    6.36   0
 -12  -4  14   50.16    7.41   0
  -9  -5  10    2.90    5.00   0
  -9  -3  14   13.98    8.30   0
  -7  -5   9   60.99    7.42   0
  -6  -4  12  121.12   10.18   0
  -5  -5   8    8.05    5.20   0
  -3  -5   7   67.50    7.62   0
  -3  -3  11  213.76   12.90   0
  -1  -3  10   26.29    7.29   0
   0  -4   8   85.09    8.98   0
 -17  -5  10   -2.25    4.80   0
 -14  -4  14   59.50    7.57   0
 -13  -5  10    4.81    5.42   0
 -11  -5  10    1.66    4.88   0
 -10  -4  13    6.36    5.89   0
  -9  -5   9   35.40    8.16   0
  -8  -4  12   71.60    9.82   0
  -7  -3  13  113.28    9.92   0
  -6  -4  11    3.12    7.99   0
  -5  -5   7   45.51    8.47   0
  -5  -3  12   45.45    7.67   0
  -4  -4  10   64.41    8.15   0
  -3  -5   6    0.44    5.40   0
  -2  -4   9   -1.56    6.57   0
   0  -4   7   12.88    7.97   0
   1  -3   8   15.85    6.24   0
 -15  -5  10    2.65    4.41   0
 -12  -4  13   -1.90    5.78   0
 -11  -5   9   49.51    7.58   0
  -7  -5   8    1.05    5.27   0
  -3  -5   5   35.57    7.70   0
  -3  -3  10   40.36    8.74   0
  -2  -4   8  154.31   11.96   0
  -1  -3   9  254.78   12.55   0
   1  -3   7  230.13   12.69   0
 -17  -5   9   32.57    5.75   0
 -15  -5   9   52.84    6.33   0
 -14  -4  13    8.52    5.28   0
 -13  -5   9   58.50    6.70   0
 -10  -4  12   36.83    7.40   0
  -9  -5   8    1.95    4.98   0
  -9  -3  13   95.75    8.83   0
  -8  -4  11   34.73    7.00   0
  -7  -5   7   16.14    6.04   0
  -7  -3  12   20.26    6.60   0
  -6  -4  10   46.25    7.98   0
  -5  -5   6    3.08    5.27   0
  -5  -3  11  182.09   11.14   0
  -4  -4   9    1.99    6.26   0
   0  -4   6  184.29   11.76   0
 -19  -5   7    9.59    4.30   0
 -17  -5   8    2.38    4.07   0
 -15  -5   8    0.87    5.13   0
 -14  -4  12   93.83    9.55   0
 -13  -5   8    5.26    5.63   0
 -12  -4  12   75.42    8.00   0
 -11  -5   8    3.43    4.81   0
 -10  -4  11    6.01    7.36   0
  -9  -5   7   14.47    5.39   0
  -7  -5   6    2.08    6.13   0
  -5  -5   5   36.53    6.51   0
  -4  -4   8  124.99   11.09   0
  -3  -3   9  215.71   11.99   0
  -2  -4   7   15.88    6.26   0
  -1  -3   8    1.42    5.50   0
   1  -3   6   10.76    6.79   0
 -19  -5   6    0.72    3.57   0
 -17  -5   7   31.93    5.33   0
 -12  -4  11    1.67    7.06   0
 -11  -5   7   38.23    6.01   0
  -9  -5   6    8.69    6.00   0
  -9  -3  12   11.51    5.41   0
  -8  -4  10   35.32    7.27   0
  -7  -3  11  295.14   13.38   0
  -6  -4   9    5.31    5.65   0
  -5  -5   4   11.34    6.47   0
  -5  -3  10   53.04    7.28   0
 -19  -5   5    0.44    2.73   0
 -19  -5   5    0.95    2.64   0
 -17  -5   6   -0.83    4.45   0
 -15  -5   7   56.01    6.31   0
 -14  -4  11   11.89    5.53   0
 -13  -5   7   56.48    6.40   0
 -11  -3  12   30.79    6.38   0
 -10  -4  10   10.47    5.79   0
  -8  -4   9    7.35    6.83   0
  -7  -5   5   15.02    5.23   0
  -6  -4   8   94.30    9.66   0
  -4  -4   7    6.77    5.95   0
  -3  -3   8   17.16    6.43   0
  -2  -4   6  281.47   13.15   0
  -1  -3   7   96.05    8.00   0
 -19  -5   3    7.62    5.10   0
 -19  -5   4   -0.41    2.45   0
 -19  -5   4    0.02    2.44   0
 -17  -5   5    4.11    4.75   0
 -15  -5   6    1.20    3.76   0
 -13  -5   6    4.14    4.25   0
 -12  -4  10   64.83    7.41   0
  -9  -5   5   19.64    5.40   0
  -9  -3  11  129.88    9.60   0
  -7  -5   4    4.17    4.59   0
  -7  -3  10   33.26    5.63   0
  -5  -5   3   45.58    6.56   0
  -5  -3   9  137.58    9.51   0
  -2  -4   5   12.61    5.89   0
 -19  -5   1    2.76    3.47   0
 -19  -5   2    0.99    2.41   0
 -19  -5   2    0.08    2.30   0
 -17  -5   4   -0.57    3.67   0
 -16  -4  10   69.77    7.37   0
 -15  -5   5   17.60    4.48   0
 -14  -4  10  118.74    9.25   0
 -13  -5   5   28.18    5.24   0
 -11  -3  11   40.14    6.50   0
 -10  -4   9   -1.11    5.12   0
  -9  -5   4    6.03    4.56   0
  -8  -4   8   30.96    6.37   0
  -7  -5   3   30.36    5.81   0
  -6  -4   7   15.04    5.64   0
  -5  -5   2    3.03    4.59   0
  -4  -4   6  260.44   12.87   0
  -3  -3   7  128.44    9.34   0
  -1  -3   6   -0.67    3.98   0
 -17  -5   3    7.76    4.44   0
 -15  -5   4    1.70    3.39   0
 -14  -4   9    6.83    6.41   0
 -13  -5   4    3.01    3.65   0
 -12  -4   9    8.78    4.96   0
 -11  -5   4    1.58    3.82   0
 -10  -4   8    8.21    6.47   0
  -9  -5   3   20.27    5.08   0
  -9  -3  10    2.59    4.65   0
  -7  -5   2    1.56    4.31   0
  -7  -3   9  314.41   13.32   0
  -5  -3   8    7.50    3.92   0
  -4  -4   5    9.38    5.71   0
  -2  -4   4  191.68   11.49   0
 -17  -5   1   21.00    5.29   0
 -17  -5   2    2.24    4.16   0
 -16  -4   9   22.34    5.33   0
 -15  -5   2    2.05    4.75   0
 -15  -5   3    8.62    3.80   0
 -13  -5   3   17.09    4.42   0
 -12  -4   8   58.15    8.29   0
 -11  -5   3   15.19    4.71   0
 -11  -3  10   -0.38    5.50   0
  -9  -5   2    1.34    4.22   0
  -8  -4   7    6.61    5.10   0
  -7  -5   1   32.55    5.59   0
  -6  -4   6  185.87   10.83   0
  -3  -3   6    9.51    5.59   0
  -2  -4   3   13.32    6.40   0
  -1  -3   5  186.85   10.57   0
 -17  -5  -2    1.37    2.67   0
 -17  -5  -2    1.65    2.53   0
 -17  -5  -1   21.58    5.07   0
 -17  -5   0    3.67    4.47   0
 -16  -4   8   33.48    5.64   0
 -15  -5   1   15.05    4.56   0
 -14  -4   8   91.35    8.42   0
 -13  -5   1   16.66    5.27   0
 -13  -5   2   -2.53    3.54   0
 -10  -4   7    9.46    5.20   0
  -9  -5   1   21.08    4.87   0
  -9  -3   9  174.20   10.37   0
  -8  -4   6  123.35   10.17   0
  -7  -5   0    9.17    4.42   0
  -7  -3   8   15.14    4.70   0
  -6  -4   5    9.92    6.59   0
  -5  -3   7  199.02   10.67   0
  -4  -4   4  219.16   11.74   0
 -15  -5  -5    3.82    3.89   0
 -15  -5  -5    2.27    2.82   0
 -15  -5  -2    1.91    5.83   0
 -15  -5  -1   22.46    5.55   0
 -15  -5   0    0.31    4.14   0
 -14  -4   7   18.29    6.45   0
 -13  -5   0    0.54    3.45   0
 -12  -4   7    9.35    5.12   0
 -11  -5   0   -0.29    3.99   0
 -11  -3   9  100.51    9.06   0
 -10  -4   6  101.73    9.47   0
  -9  -5  -1   53.10    7.03   0
  -9  -5   0    1.73    4.07   0
  -7  -5  -2    5.03    4.85   0
  -7  -5  -1   41.24    6.14   0
  -4  -4   3   21.29    6.50   0
  -1  -3   4   19.32    4.49   0
 -16  -4   7   13.72    4.99   0
 -15  -5  -4    2.23    3.86   0
 -15  -5  -3   23.89    5.57   0
 -13  -5  -7    3.14    2.94   0
 -13  -5  -7    2.74    2.75   0
 -13  -5  -2   -1.06    3.35   0
 -13  -5  -1   27.04    4.88   0
 -12  -4   6  147.27   10.63   0
 -11  -5  -2   -0.03    4.48   0
 -11  -5  -1   36.91    5.58   0
  -9  -5  -2    3.22    4.13   0
  -9  -3   8   21.26    5.17   0
  -8  -4   5    6.13    5.13   0
  -7  -3   7  347.08   13.83   0
  -6  -4   4  179.09   10.89   0
  -5  -3   6    1.80    3.95   0
  -3  -3   5  223.11   11.51   0
 -18  -4   6   63.93    7.15   0
 -16  -4   6   53.53    6.77   0
 -14  -4   6  110.30    8.98   0
 -13  -5  -6    1.44    2.97   0
 -13  -5  -6   -1.33    2.76   0
 -13  -5  -5   17.15    5.28   0
 -13  -5  -4    4.64    4.74   0
 -13  -5  -3   31.46    5.75   0
 -11  -5  -7   17.00    5.97   0
 -11  -5  -6    3.30    5.15   0
 -11  -5  -5   28.00    5.79   0
 -11  -5  -4   -1.76    3.90   0
 -11  -5  -3   27.86    5.40   0
 -11  -3   8   -0.16    5.30   0
 -10  -4   5   16.13    5.96   0
  -9  -5  -5   28.51    6.02   0
  -9  -5  -4    0.30    3.45   0
  -9  -5  -3   42.16    6.11   0
  -8  -4   4  126.80   10.39   0
  -6  -4   3    8.73    6.19   0
  -4  -4   2  157.41   10.26   0
 -18  -4   5    7.46    4.69   0
 -16  -4   5    3.71    4.73   0
 -14  -4   5   14.91    5.26   0
 -13  -3   8    7.36    5.47   0
 -12  -4   5   14.37    5.35   0
 -10  -4   4  107.82    9.35   0
  -9  -3   7  161.07    9.84   0
  -7  -3   6    9.52    4.55   0
  -5  -3   5  240.12   11.95   0
  -4  -4   1    6.98    6.32   0
  -3  -3   4    8.66    4.15   0
 -18  -4   4  125.76    9.16   0
 -16  -4   4  186.88   11.88   0
 -14  -4   4  111.18    9.78   0
 -12  -4   4  145.93    9.98   0
 -11  -3   7   73.71    8.15   0
  -8  -4   3    6.42    4.77   0
  -6  -4   2  119.44    9.28   0
 -20  -4   1    1.37    4.04   0
 -20  -4   2   15.22    4.58   0
 -18  -4   3    8.23    4.45   0
 -16  -4   3   14.10    6.54   0
 -13  -3   7  182.85   11.55   0
 -12  -4   3    6.70    6.40   0
 -10  -4   3    9.46    5.32   0
  -9  -3   6    2.97    3.99   0
  -8  -4   2   82.10    8.19   0
  -7  -3   5  185.77   10.77   0
  -6  -4   1    5.85    5.30   0
  -5  -3   4   35.44    5.83   0
  -4  -4   0  143.92    9.95   0
  -3  -3   3  336.58   14.30   0
 -20  -4  -6    1.70    2.95   0
 -20  -4  -6    0.60    2.79   0
 -20  -4  -1   -0.05    4.00   0
 -20  -4   0    9.78    3.83   0
 -18  -4   2   43.14    6.52   0
 -16  -4   2  162.69   11.16   0
 -14  -4   3    9.83    5.22   0
 -11  -3   6   -2.14    3.83   0
 -10  -4   2   84.14    8.28   0
  -8  -4   1   -1.77    6.27   0
  -6  -4   0  150.18   11.07   0
  -4  -4  -1   10.25    5.05   0
 -20  -4  -5    2.25    4.22   0
 -20  -4  -4   17.27    4.85   0
 -20  -4  -3   -0.58    3.35   0
 -20  -4  -2   12.80    4.30   0
 -18  -4  -9    1.22    2.56   0
 -18  -4   0   11.93    5.62   0
 -18  -4   1    0.35    4.11   0
 -16  -4   1    7.85    6.46   0
 -14  -4   2  156.14   10.29   0
 -13  -3   6    8.17    4.96   0
 -12  -4   2   80.20    8.04   0
 -10  -4   1    7.96    5.46   0
  -9  -3   5  129.23    9.34   0
  -8  -4   0   97.54    9.67   0
  -7  -3   4   52.06    6.71   0
  -6  -4  -1    5.82    6.52   0
  -5  -3   3  352.98   14.69   0
 -18  -4  -8    3.99    3.20   0
 -18  -4  -8   -0.58    2.95   0
 -18  -4  -2   25.72    5.81   0
 -18  -4  -1    1.46    3.68   0
 -16  -4 -11    0.96    2.40   0
 -16  -4   0   31.24    5.91   0
 -14  -4   1   10.35    5.38   0
 -12  -4   1    7.90    5.14   0
 -11  -3   5  125.00    9.32   0
 -10  -4   0  103.17    9.79   0
 -18  -4  -7   -0.97    4.62   0
 -18  -4  -6   11.81    4.48   0
 -18  -4  -5    0.83    3.16   0
 -18  -4  -4   18.21    4.40   0
 -18  -4  -3    4.10    3.68   0
 -16  -4 -10   12.40    5.17   0
 -16  -4  -2   30.38    6.64   0
 -16  -4  -1    6.57    4.40   0
 -15  -3   5  291.93   13.80   0
 -14  -4 -12   12.72    6.58   0
 -14  -4  -1   13.72    6.48   0
 -14  -4   0  118.55    9.38   0
 -13  -3   5  329.32   14.40   0
 -12  -4  -1   18.58    6.87   0
 -12  -4   0   95.89    8.76   0
 -10  -4  -1    5.75    6.43   0
  -9  -3   4   62.20    7.08   0
  -8  -4  -1    3.99    5.02   0
  -7  -3   3  221.94   11.98   0
  -6  -4  -2  109.05    9.24   0
  -5  -3   2   40.04    6.12   0
 -16  -4  -9   -0.40    4.93   0
 -16  -4  -8   12.19    5.78   0
 -16  -4  -7    0.38    4.22   0
 -16  -4  -5    3.70    4.63   0
 -16  -4  -4   39.31    6.45   0
 -16  -4  -3    6.08    4.24   0
 -14  -4 -11    0.20    5.99   0
 -14  -4  -2   70.64    7.79   0
 -13  -3   4   11.57    5.71   0
 -12  -4 -13   -3.30    5.73   0
 -12  -4  -2   64.86    8.55   0
 -11  -3   4   32.37    5.92   0
 -10  -4  -2   58.86    7.58   0
  -9  -3   3  143.77   10.29   0
  -8  -4  -3    8.43    6.32   0
  -8  -4  -2  100.11    8.76   0
  -6  -4  -4   18.78    6.45   0
  -6  -4  -3    8.77    5.53   0
 -16  -4  -6   15.19    4.49   0
 -15  -3   4   15.65    5.43   0
 -14  -4 -10   22.21    5.73   0
 -14  -4  -9    3.86    4.54   0
 -14  -4  -5    7.43    5.55   0
 -14  -4  -4   60.12    7.15   0
 -14  -4  -3    4.93    4.57   0
 -12  -4 -12   27.68    6.84   0
 -12  -4  -3   13.84    5.65   0
 -11  -3   3  282.95   13.92   0
 -10  -4  -3   -1.42    5.21   0
  -8  -4  -4   60.96    7.63   0
  -7  -3   2    6.42    4.33   0
  -6  -4  -5    3.66    4.72   0
  -5  -3   1  373.44   15.29   0
 -21  -3  -9   15.70    6.21   0
 -15  -3   3  259.09   12.96   0
 -14  -4  -8   30.47    5.49   0
 -14  -4  -7   -1.24    3.85   0
 -14  -4  -6   38.41    6.01   0
 -13  -3   3  381.70   15.65   0
 -12  -4 -11    2.94    4.08   0
 -12  -4 -10   31.58    6.38   0
 -12  -4  -6   39.62    7.22   0
 -12  -4  -5   -0.89    4.83   0
 -12  -4  -4   62.10    7.44   0
 -10  -4 -12   28.11    6.04   0
 -10  -4  -5   -0.02    4.98   0
 -10  -4  -4   32.99    6.53   0
  -9  -3   2    4.74    4.10   0
  -8  -4  -6   84.37    9.13   0
  -8  -4  -5   18.15    6.07   0
  -6  -4  -6   33.96    6.53   0
 -21  -3  -8   -0.54    4.20   0
 -19  -3 -12   -1.64    2.49   0
 -19  -3 -12    0.15    2.60   0
 -17  -3   2   -0.27    4.74   0
 -15  -3   2   12.71    6.23   0
 -13  -3   2   18.10    6.65   0
 -12  -4  -9    3.28    4.05   0
 -12  -4  -8   28.39    5.45   0
 -12  -4  -7    2.45    4.43   0
 -11  -3   2   26.91    5.30   0
 -10  -4 -11    3.82    3.78   0
 -10  -4 -10   39.61    5.87   0
 -10  -4  -9   -0.01    4.23   0
 -10  -4  -8   36.73    6.22   0
 -10  -4  -7    9.17    4.77   0
 -10  -4  -6   38.15    6.57   0
  -8  -4 -10   44.26    7.40   0
  -8  -4  -9   -4.42    5.71   0
  -8  -4  -8   57.98    7.60   0
  -8  -4  -7   10.43    5.35   0
  -7  -3   1  169.47   10.55   0
  -5  -3   0    8.95    4.54   0
 -21  -3  -7   23.05    5.10   0
 -21  -3  -6    0.59    3.16   0
 -19  -3 -11   21.17    6.55   0
 -17  -3 -14   -0.82    2.77   0
 -17  -3   1   83.71    8.51   0
  -9  -3   1  175.55   11.00   0
  -7  -3   0   24.37    4.93   0
  -5  -3  -1  253.90   12.94   0
 -19  -3 -10    3.45    4.24   0
 -19  -3  -2    2.16    5.49   0
 -19  -3  -1   27.67    6.46   0
 -17  -3 -13   16.91    6.37   0
 -17  -3   0   -1.14    4.61   0
 -15  -3   1  218.08   12.36   0
 -13  -3 -17    2.84    3.23   0
 -13  -3 -17    1.23    2.69   0
 -13  -3   1  240.05   12.81   0
 -11  -3   1  298.14   13.91   0
  -9  -3   0   36.94    7.30   0
 -19  -3  -9   31.19    5.81   0
 -19  -3  -8    7.72    3.83   0
 -19  -3  -7   40.88    6.67   0
 -19  -3  -6    9.97    5.38   0
 -19  -3  -5   43.04    7.07   0
 -19  -3  -4    3.89    4.33   0
 -19  -3  -3   36.27    6.47   0
 -17  -3 -12    3.39    5.69   0
 -17  -3  -1   94.90    8.58   0
 -15  -3 -15   13.00    5.43   0
 -15  -3   0   26.86    6.21   0
 -13  -3   0    5.62    4.70   0
 -11  -3   0   62.76    7.44   0
  -7  -3  -1  155.12   10.47   0
  -5  -3  -2    7.26    4.45   0
 -17  -3 -11   21.49    4.74   0
 -17  -3  -3   40.32    7.67   0
 -17  -3  -2    0.01    4.74   0
 -15  -3 -14    1.59    5.09   0
 -15  -3  -1  243.43   13.02   0
 -13  -3 -16   -2.18    4.64   0
 -13  -3  -1  259.33   13.13   0
 -11  -3  -1   98.95    8.87   0
  -9  -3  -1  178.77   11.32   0
  -7  -3  -2   13.79    4.95   0
  -5  -3  -3  109.90    9.22   0
 -20  -2 -13    2.37    4.00   0
 -20  -2 -13   -1.90    2.90   0
 -17  -3 -10    1.86    3.48   0
 -17  -3  -9   28.49    5.34   0
 -17  -3  -8    1.13    5.42   0
 -17  -3  -7   22.79    6.56   0
 -17  -3  -6    8.63    6.06   0
 -17  -3  -5   37.31    6.35   0
 -17  -3  -4    2.86    4.68   0
 -15  -3 -13   21.43    5.55   0
 -15  -3  -3  119.29   10.75   0
 -15  -3  -2   25.23    6.17   0
 -13  -3 -15   24.16    5.88   0
 -13  -3  -2   28.76    6.58   0
 -11  -3 -17   21.28    5.92   0
 -11  -3  -2    4.72    4.85   0
  -9  -3  -2   25.52    5.84   0
  -7  -3  -3  162.45   11.40   0
  -5  -3  -4    7.32    4.92   0
 -18  -2 -15   -2.30    5.64   0
 -15  -3 -12   -1.79    3.62   0
 -15  -3 -11   14.15    4.77   0
 -15  -3  -5   91.85    9.57   0
 -15  -3  -4    1.36    5.01   0
 -13  -3 -14    1.11    3.53   0
 -13  -3  -3  243.66   12.91   0
 -11  -3 -16    1.17    4.18   0
 -11  -3  -3   88.03    8.70   0
  -9  -3  -3  153.19   10.68   0
  -7  -3  -4   52.10    7.68   0
  -5  -3  -5  158.18   11.27   0
 -20  -2 -12    6.62    3.99   0
 -16  -2 -17   -0.56    2.77   0
 -16  -2 -17   -0.30    2.81   0
 -15  -3 -10   -1.95    4.25   0
 -15  -3  -9   35.50    6.19   0
 -15  -3  -8    3.62    4.64   0
 -15  -3  -7   55.50    7.46   0
 -15  -3  -6    8.34    5.22   0
 -13  -3 -13   26.66    5.33   0
 -13  -3 -12   -0.12    5.13   0
 -13  -3  -5  109.64    9.56   0
 -13  -3  -4    3.69    5.56   0
 -11  -3 -15   40.29    6.05   0
 -11  -3  -4    1.49    4.83   0
  -9  -3 -16    8.53    4.96   0
  -9  -3  -4    4.84    5.17   0
  -7  -3  -5  223.14   13.28   0
  -5  -3  -6   16.30    6.32   0
 -20  -2 -11   -0.80    3.21   0
 -18  -2 -14   13.94    4.90   0
 -13  -3 -11   37.47    6.14   0
 -13  -3 -10   -1.73    4.36   0
 -13  -3  -9   40.36    7.05   0
 -13  -3  -8    4.89    5.10   0
 -13  -3  -7   85.81    8.73   0
 -13  -3  -6   16.63    5.85   0
 -12  -2 -20    0.32    3.24   0
 -12  -2 -20    1.59    2.85   0
 -11  -3 -14    0.25    4.16   0
 -11  -3  -6   39.12    6.50   0
 -11  -3  -5   34.92    6.69   0
  -9  -3  -5   84.74    8.38   0
  -7  -3  -6    6.41    4.73   0
 -29   3   2    0.58    1.49   0
 -29   3   2   -0.81    1.44   0
 -25   3  -2    2.35    2.98   0
 -24   2  -4   39.88    4.73   0
 -24   4   0    6.10    2.31   0
 -24   4   0    0.40    1.77   0
 -23   3  -4    2.02    2.24   0
 -21   3  -5   20.32    3.92   0
 -20   2  -7    1.43    2.87   0
 -20   4  -3   -0.96    2.49   0
 -18   2  -8   68.52    5.61   0
 -16   2  -9   10.90    3.61   0
 -15   3  -8    1.27    3.77   0
 -13   3  -9   56.82    5.38   0
 -12   2 -10  127.92    7.93   0
 -11   1 -10    6.79    3.39   0
  -9   1 -10   63.74    5.16   0
  -8   2 -11   11.59    3.72   0
  -7   1 -10   27.45    4.58   0
  -6   2 -11    5.23    3.39   0
 -27   3   0   -0.80    2.57   0
 -24   4   1    0.72    3.03   0
 -22   2  -5   -3.32    2.69   0
 -22   4  -1    0.56    2.61   0
 -19   3  -6   12.43    3.25   0
 -17   3  -7   33.43    4.33   0
 -15   1  -8    3.89    4.10   0
 -14   2  -9    1.98    3.85   0
 -13   1  -9  174.30    8.27   0
 -11   3  -9   81.33    6.12   0
 -10   2 -10  156.84    7.88   0
  -8   2 -10  210.80    9.71   0
  -6   2 -10  202.06    9.52   0
 -29   3   3   11.40    3.26   0
 -25   3  -1   14.73    3.73   0
 -24   2  -3    2.65    3.21   0
 -23   3  -3    5.54    2.73   0
 -21   3  -4    0.40    3.23   0
 -20   2  -6   90.87    6.26   0
 -20   4  -2   13.02    3.32   0
 -18   2  -7    4.77    3.29   0
 -16   2  -8   47.99    4.99   0
 -15   3  -7   60.44    5.93   0
 -13   3  -8    7.40    3.32   0
 -12   2  -9    7.77    3.62   0
 -11   1  -9  446.18   12.66   0
  -9   1  -9  316.58   10.54   0
 -27   3   1   19.35    3.67   0
 -26   4   4    3.16    2.05   0
 -26   4   4    1.78    1.78   0
 -24   4   2   13.57    3.66   0
 -23   3  -2   10.60    3.43   0
 -22   2  -4   38.70    4.60   0
 -22   4   0   11.58    3.35   0
 -20   4  -1    0.68    2.66   0
 -19   3  -5   44.44    4.97   0
 -17   3  -6    8.24    3.48   0
 -15   1  -7  122.14    7.70   0
 -14   2  -8  167.72    8.55   0
 -13   1  -8    3.00    3.30   0
 -11   3  -8   10.35    3.55   0
 -10   2  -9   48.27    5.32   0
  -8   2  -9    1.90    3.61   0
  -6   2  -9    1.13    3.40   0
 -29   3   4    1.46    2.56   0
 -27   3   2    3.15    3.03   0
 -26   4   5   -0.22    2.25   0
 -26   4   5   -0.26    1.56   0
 -25   3   0    1.06    2.41   0
 -24   2  -2   44.74    5.02   0
 -22   4   1   -1.00    3.04   0
 -21   3  -3   18.95    3.81   0
 -20   2  -5    6.22    3.51   0
 -18   2  -6   83.29    6.16   0
 -16   2  -7    5.76    3.79   0
 -15   3  -6    5.01    3.67   0
 -13   3  -7   89.95    6.39   0
 -12   2  -8  215.51    9.23   0
 -11   1  -8    6.66    3.30   0
 -11   3  -7   84.10    6.85   0
  -9   1  -8   18.23    3.81   0
 -24   4   3    0.30    2.79   0
 -23   3  -1   16.12    4.10   0
 -22   2  -3    0.51    2.91   0
 -19   3  -4    5.62    3.24   0
 -17   3  -5   38.70    4.57   0
 -16   2  -6   86.07    6.97   0
 -15   1  -6    1.05    3.85   0
 -14   2  -7   32.24    5.03   0
 -13   1  -7  407.46   12.53   0
 -13   3  -6   15.07    4.31   0
 -10   2  -8  228.75    9.66   0
  -8   2  -8  318.29   11.21   0
  -6   2  -8  108.90    7.38   0
 -31   3   8   -0.48    1.44   0
 -31   3   8   -0.60    1.38   0
 -29   3   5   12.31    3.46   0
 -27   3   3   25.54    3.96   0
 -26   4   6   10.44    3.32   0
 -25   3   1   33.78    4.09   0
 -24   2  -1    2.97    2.93   0
 -24   4   4   21.10    4.29   0
 -22   4   2   14.95    3.37   0
 -21   3  -2    1.25    3.15   0
 -20   2  -4   98.22    6.44   0
 -19   3  -3   40.39    5.30   0
 -18   2  -5   11.92    3.72   0
 -17   3  -4    3.35    4.03   0
 -15   3  -5   93.23    6.64   0
 -12   2  -7   17.77    4.13   0
 -11   1  -7  435.56   12.75   0
 -11   3  -6   38.23    5.42   0
 -31   3   9    1.84    2.01   0
 -31   3   9    1.18    1.77   0
 -29   3   6    1.61    2.69   0
 -26   2   1    2.40    2.56   0
 -26   4   7    0.55    1.78   0
 -23   3   0    2.06    2.81   0
 -22   2  -2   54.79    5.43   0
 -22   4   3   -0.09    2.94   0
 -20   2  -3   17.64    4.89   0
 -16   2  -5    8.32    4.39   0
 -14   2  -6  288.37   10.93   0
 -13   1  -6    5.51    2.53   0
 -13   3  -5  127.64    7.90   0
 -10   2  -7    2.73    3.20   0
  -8   2  -7    1.33    3.62   0
 -31   3  10   -0.09    3.26   0
 -27   3   4    0.54    2.53   0
 -25   3   2    5.42    3.04   0
 -24   2   0   49.45    4.94   0
 -24   4   5    1.56    2.81   0
 -21   3  -1   20.85    3.90   0
 -19   3  -2    2.94    3.14   0
 -18   2  -4   73.80    6.12   0
 -17   3  -3   39.87    5.04   0
 -15   1  -5  163.96    8.21   0
 -15   3  -4   -2.90    3.35   0
 -12   2  -6  306.50   10.54   0
 -11   1  -6   14.22    3.38   0
 -29   3   7   17.85    3.46   0
 -27   3   5   40.28    4.79   0
 -26   2   2   24.92    3.97   0
 -25   3   3   67.92    5.96   0
 -24   4   6   15.06    3.62   0
 -23   3   1   42.59    4.98   0
 -22   2  -1    0.90    3.21   0
 -22   4   4   19.67    3.62   0
 -21   3   0   -3.04    3.99   0
 -20   2  -2  135.34    8.04   0
 -16   2  -4   62.51    5.99   0
 -14   2  -5   36.70    5.04   0
 -13   1  -5  602.91   15.21   0
 -13   3  -4   11.51    3.59   0
 -10   2  -6  462.13   13.14   0
 -31   3  11    4.79    2.42   0
 -31   3  11    1.34    1.92   0
 -29   3   8    1.48    2.34   0
 -26   2   3    8.50    3.85   0
 -26   4   9    1.51    2.68   0
 -24   2   1   32.13    4.63   0
 -24   4   7    2.69    3.01   0
 -23   3   2    3.33    3.97   0
 -22   4   5   -1.03    3.13   0
 -19   3  -1   31.64    4.63   0
 -18   2  -3    3.61    3.64   0
 -17   3  -2    1.64    3.23   0
 -15   1  -4    7.80    3.08   0
 -15   3  -3  134.07    7.65   0
 -12   2  -5    7.62    3.80   0
  -8   2  -6  431.24   12.86   0
 -31   3  12    0.01    1.71   0
 -31   3  12    0.31    1.69   0
 -29   3   9   16.01    3.93   0
 -27   3   6    2.27    2.70   0
 -26   4  10   10.62    3.53   0
 -25   3   4    4.16    3.03   0
 -22   2   0  102.93    6.96   0
 -21   3   1   36.00    4.81   0
 -20   2  -1   20.38    5.28   0
 -18   2  -2   70.75    6.51   0
 -16   2  -3    6.69    4.39   0
 -15   3  -2   25.84    5.29   0
 -14   2  -4  323.45   11.28   0
 -13   1  -4    7.55    3.84   0
 -13   3  -3  233.03    9.95   0
 -10   2  -5   28.06    4.39   0
 -31   3  13    9.22    3.24   0
 -27   3   7   39.69    4.47   0
 -26   2   4   56.25    5.26   0
 -26   4  11    1.37    2.78   0
 -25   3   5   85.67    6.62   0
 -24   2   2   44.20    5.04   0
 -24   4   8   15.56    3.58   0
 -23   3   3   73.66    5.89   0
 -22   2   1    7.54    4.72   0
 -22   4   6   11.37    3.33   0
 -19   3   0   -2.74    3.40   0
 -17   3  -1   81.51    6.51   0
 -15   1  -3  130.32    7.66   0
 -12   2  -4  440.74   13.15   0
 -31   3  14    0.16    1.83   0
 -31   3  14    0.82    1.76   0
 -29   3  10    1.90    2.75   0
 -24   2   3   37.04    5.61   0
 -24   4   9    0.88    2.73   0
 -22   4   7   -0.26    2.44   0
 -21   3   2    2.82    3.47   0
 -20   2   0  120.33    7.38   0
 -19   3   1   65.26    6.53   0
 -18   2  -1   26.60    4.76   0
 -17   3   0   -1.46    4.57   0
 -16   2  -2  122.65    7.69   0
 -15   3  -1  234.31   10.41   0
 -14   2  -3    6.63    3.67   0
 -13   3  -2   25.00    4.72   0
 -10   2  -4  564.37   14.94   0
 -31   3  15    3.38    2.43   0
 -31   3  16    0.91    1.65   0
 -29   3  11   33.15    4.06   0
 -27   3   8   -0.28    2.78   0
 -26   2   5    3.28    3.15   0
 -26   4  14    9.04    2.93   0
 -26   4  14    5.87    2.48   0
 -25   3   6    2.23    3.42   0
 -24   4  10   25.27    4.15   0
 -23   3   4   -2.89    3.40   0
 -22   2   2   73.19    6.82   0
 -22   4   8   11.27    3.29   0
 -21   3   3   43.20    5.28   0
 -15   1  -2    8.63    3.07   0
 -12   2  -3   32.03    4.74   0
 -31   3  17    2.18    2.15   0
 -31   3  17    1.69    1.93   0
 -29   3  12    0.25    2.53   0
 -27   3   9   49.78    5.00   0
 -26   2   6   75.78    6.59   0
 -26   4  15    0.18    1.71   0
 -26   4  15    0.03    1.65   0
 -25   3   7   98.20    7.02   0
 -24   2   4   58.48    5.74   0
 -24   4  11    7.53    3.06   0
 -23   3   5   60.25    5.61   0
 -20   2   1    5.30    3.96   0
 -19   3   2   23.76    4.71   0
 -18   2   0  150.57    8.48   0
 -17   3   1   97.48    6.85   0
 -16   2  -1    5.29    4.44   0
 -15   3   0   22.57    4.79   0
 -14   2  -2  360.34   11.81   0
 -13   3  -1  252.81   10.49   0
 -29   3  13   31.60    4.58   0
 -28   2   9    3.41    3.77   0
 -27   3  10    1.60    2.94   0
 -22   2   3   34.02    5.05   0
 -21   3   4    4.77    3.43   0
 -29   3  14   -1.85    2.63   0
 -26   2   7    9.46    3.80   0
 -25   3   8    5.96    3.57   0
 -24   2   5   -0.39    3.45   0
 -23   3   6   15.36    4.08   0
 -20   2   2   74.31    6.32   0
 -19   3   3   33.11    5.07   0
 -18   2   1    2.59    4.31   0
 -17   3   2    7.72    3.76   0
 -16   2   0  274.99   10.69   0
 -15   3   1  218.03    9.69   0
 -14   2  -1    3.08    2.41   0
 -12   2  -2  598.90   15.13   0
 -29   3  15   28.60    4.43   0
 -29   3  16   -2.29    3.51   0
 -28   2  10   62.32    5.62   0
 -26   2   8   74.17    6.72   0
 -25   3   9   87.64    6.42   0
 -24   2   6   60.34    6.48   0
 -23   3   7   72.14    6.11   0
 -22   2   4   48.16    5.33   0
 -21   3   5   36.28    5.15   0
 -19   3   4    4.16    3.57   0
 -29   3  17   26.84    4.21   0
 -28   2  11    1.22    3.03   0
 -25   3  10    4.75    3.62   0
 -23   3   8   11.40    4.92   0
 -21   3   6   17.15    4.30   0
 -20   2   3    5.89    3.51   0
 -18   2   2  134.83    7.68   0
 -17   3   3   84.87    6.77   0
 -16   2   1    1.85    3.76   0
 -15   3   2   11.24    4.07   0
 -14   2   0  395.85   12.64   0
 -12   2  -1   53.94    5.30   0
 -29   3  18    0.96    3.26   0
 -29   3  19   22.47    4.19   0
 -29   3  20   -0.11    3.56   0
 -29   3  21    9.68    3.37   0
 -29   3  21    3.28    2.34   0
 -28   2  12   69.19    6.44   0
 -26   2   9   23.66    4.58   0
 -24   2   7   19.93    4.49   0
 -22   2   5   -0.08    3.44   0
 -21   3   7   52.33    6.57   0
 -20   2   4   32.40    5.38   0
 -19   3   5   52.36    5.68   0
 -17   3   4    1.93    3.69   0
 -15   3   3  282.79   11.65   0
 -27   3  15   12.73    3.60   0
 -26   2  10   82.22    7.09   0
 -23   3   9   49.97    5.60   0
 -22   2   6   18.98    5.20   0
 -19   3   6   -1.21    4.71   0
 -18   2   3    1.59    3.36   0
 -16   2   2  174.43    9.06   0
 -14   2   1   12.45    4.60   0
 -28   2  13    1.42    3.11   0
 -27   3  16    2.12    2.92   0
 -24   2   8   35.83    5.05   0
 -23   3  10    2.31    3.60   0
 -21   3   8   11.46    4.12   0
 -20   2   5   42.96    5.99   0
 -17   3   5  158.92    8.77   0
 -15   3   4   16.20    4.58   0
 -28   2  14   66.00    5.94   0
 -27   3  17   29.23    4.23   0
 -27   3  18    2.39    2.70   0
 -27   3  19   32.80    5.02   0
 -26   2  11    9.76    3.74   0
 -24   2   9   18.23    4.47   0
 -23   3  11   19.42    4.26   0
 -22   2   7   11.16    3.83   0
 -21   3   9   39.22    5.28   0
 -19   3   7  117.82    7.93   0
 -18   2   4   70.35    6.22   0
 -17   3   6    5.70    4.29   0
 -16   2   3    6.68    3.93   0
 -30   2  20   20.89    4.18   0
 -30   2  21    1.52    2.54   0
 -28   2  15    4.13    3.46   0
 -27   3  20   -1.81    3.52   0
 -27   3  21   21.99    4.35   0
 -27   3  22   -0.71    3.23   0
 -27   3  23    4.20    2.46   0
 -27   3  23    3.71    2.34   0
 -26   2  12   67.30    6.22   0
 -25   3  15   20.69    4.14   0
 -24   2  10   51.88    6.54   0
 -23   3  12    5.88    3.72   0
 -22   2   8   38.73    6.11   0
 -21   3  10    2.48    5.10   0
 -20   2   6  131.87    8.03   0
 -19   3   8   58.19    6.14   0
 -15   3   5  306.43   12.03   0
 -14   2   2  274.27   10.76   0
 -28   2  16   94.00    6.91   0
 -28   2  17    0.89    4.48   0
 -26   2  13   -5.71    3.78   0
 -25   3  16    0.00    3.26   0
 -25   3  17   26.76    5.01   0
 -23   3  13   27.78    4.82   0
 -19   3   9  199.12   10.72   0
 -18   2   5    9.94    3.90   0
 -17   3   7  207.62   10.40   0
 -16   2   4  147.47    8.89   0
 -15   3   6    3.05    4.82   0
 -28   2  18   53.07    5.68   0
 -26   2  14   57.77    5.94   0
 -25   3  18    1.74    3.14   0
 -25   3  19   24.16    4.78   0
 -25   3  24    1.55    4.00   0
 -25   3  25    8.38    2.69   0
 -25   3  25    5.15    2.39   0
 -24   2  11   -1.58    4.08   0
 -23   3  14    1.49    3.71   0
 -22   2   9    5.97    4.21   0
 -21   3  11   53.29    5.92   0
 -20   2   7    8.08    4.34   0
 -17   3   8   37.10    6.51   0
 -14   2   3    0.96    2.89   0
 -28   2  19   -0.72    3.08   0
 -28   2  20   24.03    4.70   0
 -28   2  26    6.84    2.84   0
 -28   2  26    4.11    2.60   0
 -26   2  15   -2.62    3.83   0
 -25   3  20    1.93    2.93   0
 -25   3  21   22.22    4.40   0
 -25   3  22    2.21    3.76   0
 -25   3  23   23.09    4.66   0
 -24   2  12   79.03    6.92   0
 -23   3  15   53.48    6.00   0
 -22   2  10   54.23    7.09   0
 -21   3  12   -3.81    4.34   0
 -20   2   8  221.67   11.07   0
 -19   3  10   14.06    5.01   0
 -18   2   6  257.09   10.86   0
 -16   2   5   12.16    4.60   0
 -15   3   7  227.14   10.74   0
 -28   2  21    1.63    2.69   0
 -28   2  22   12.78    3.41   0
 -28   2  23    6.20    3.08   0
 -28   2  24   12.69    3.74   0
 -28   2  25    1.41    3.14   0
 -26   2  16   43.71    5.69   0
 -24   2  13    4.25    5.17   0
 -23   3  16    9.11    4.12   0
 -23   3  17   47.31    5.54   0
 -23   3  25   30.34    5.84   0
 -23   3  26   -0.13    1.91   0
 -21   3  13   76.71    6.88   0
 -19   3  11  173.40    9.69   0
 -18   2   7   -2.65    4.94   0
 -17   3   9  143.20    8.93   0
 -15   3   8    8.86    5.39   0
 -14   2   4  280.28   11.28   0
 -26   2  17    4.16    3.84   0
 -23   3  18    5.73    3.69   0
 -23   3  19   48.22    5.49   0
 -23   3  20    0.55    4.62   0
 -23   3  23   45.66    6.41   0
 -23   3  24    0.20    3.85   0
 -22   2  11   26.95    5.48   0
 -21   3  14   11.59    4.40   0
 -21   3  15   69.45    7.68   0
 -20   2   9   23.27    5.22   0
 -19   3  12    2.46    4.25   0
 -17   3  10    2.32    4.17   0
 -16   2   6  346.32   13.13   0
 -26   2  18   23.71    4.92   0
 -26   2  19   -0.56    3.67   0
 -26   2  27   -0.27    2.28   0
 -26   2  27    0.48    2.21   0
 -23   3  21   43.41    5.16   0
 -23   3  22   -0.39    3.01   0
 -22   2  12  119.07    8.37   0
 -21   3  16    3.43    4.11   0
 -21   3  26    0.05    2.18   0
 -21   3  26   -0.03    2.14   0
 -20   2  10  135.17    9.24   0
 -19   3  13  109.29    8.23   0
 -18   2   8  206.67   10.31   0
 -17   3  11   86.98    7.47   0
 -14   2   5   24.92    4.59   0
 -26   2  20   21.45    4.71   0
 -26   2  21    2.30    3.48   0
 -26   2  22   15.32    4.78   0
 -26   2  23   -1.18    3.92   0
 -26   2  24    9.66    4.10   0
 -26   2  25   -0.84    3.38   0
 -26   2  26   22.98    4.81   0
 -24   2  16   77.79    8.11   0
 -22   2  13   14.49    6.27   0
 -21   3  17   48.14    6.00   0
 -21   3  18    2.02    3.98   0
 -21   3  24    1.87    4.15   0
 -21   3  25   17.18    4.66   0
 -19   3  14    4.62    4.11   0
 -17   3  12   31.64    6.31   0
 -16   2   7   22.71    4.60   0
 -24   2  17   15.52    4.83   0
 -24   2  28   13.34    4.26   0
 -22   2  14  158.54   10.62   0
 -21   3  19   40.47    5.55   0
 -21   3  20    1.66    3.60   0
 -21   3  21   33.74    5.11   0
 -21   3  22    1.34    3.19   0
 -21   3  23   26.57    4.67   0
 -20   2  11    3.06    4.52   0
 -19   3  15   48.89    6.58   0
 -19   3  16   -1.45    5.13   0
 -18   2   9   -3.39    3.91   0
 -17   3  13   77.61    8.29   0
 -14   2   6  465.89   15.01   0
 -24   2  18   65.33    7.07   0
 -24   2  19    4.45    5.76   0
 -24   2  27    3.72    3.91   0
 -22   2  15    8.87    5.87   0
 -20   2  12  206.25   10.69   0
 -19   3  17   40.13    6.30   0
 -19   3  18    6.08    5.44   0
 -19   3  24    1.70    3.78   0
 -18   2  10  205.21   11.02   0
 -17   3  14    8.59    4.55   0
 -16   2   8  427.83   14.70   0
 -24   2  20   45.18    6.07   0
 -24   2  21    0.70    4.04   0
 -24   2  22   20.51    5.58   0
 -24   2  23   -0.65    4.86   0
 -24   2  24   19.59    5.35   0
 -24   2  25   -0.12    3.32   0
 -24   2  26   36.76    5.48   0
 -22   2  16  151.52   10.70   0
 -22   2  29    0.83    2.34   0
 -22   2  29    0.56    2.26   0
 -20   2  13   26.33    6.80   0
 -19   3  19   30.88    5.47   0
 -19   3  20    2.58    3.80   0
 -19   3  21   31.90    5.49   0
 -19   3  22    0.02    3.45   0
 -19   3  23   35.47    5.31   0
 -17   3  15   98.19    8.37   0
 -14   2   7    8.16    3.88   0
 -22   2  17   13.79    5.11   0
 -22   2  28   23.36    5.35   0
 -20   2  14  173.17   11.03   0
 -18   2  11   63.56    6.97   0
 -17   3  16    3.20    4.74   0
 -17   3  17   85.77    8.18   0
 -16   2   9    5.31    4.43   0
 -23   1  30   -0.90    2.25   0
 -23   1  30    0.12    2.19   0
 -22   2  18  111.96    9.01   0
 -22   2  19   24.30    5.81   0
 -22   2  26   34.84    5.92   0
 -22   2  27   -2.31    3.79   0
 -20   2  15   46.39    7.77   0
 -20   2  29    1.37    2.92   0
 -20   2  29    1.08    2.77   0
 -18   2  12  412.61   15.18   0
 -17   3  18    4.61    4.73   0
 -17   3  19   79.95    7.78   0
 -17   3  20    7.34    4.19   0
 -16   2  10  406.66   14.80   0
 -14   2   8  976.21   22.72   0
 -23   1  29   50.36    6.38   0
 -22   2  20   77.53    7.83   0
 -22   2  21   -4.34    4.72   0
 -22   2  22   48.44    6.48   0
 -22   2  23   -0.44    4.02   0
 -22   2  24   41.29    6.01   0
 -22   2  25   -0.05    3.61   0
 -20   2  16  108.71    9.12   0
 -20   2  28   31.19    5.99   0
 -19   1  11  231.36   11.85   0
 -18   2  13   76.82    8.09   0
 -16   2  11   27.57    7.09   0
 -14   2   9    9.40    5.50   0
 -23   1  28   -1.40    3.41   0
 -21   1  15  133.55    9.81   0
 -20   2  17    0.84    5.11   0
 -20   2  18  112.20   10.21   0
 -20   2  27    2.25    4.16   0
 -19   1  12    5.57    4.26   0
 -18   2  14  232.15   12.10   0
 -18   2  29    3.40    4.39   0
 -23   1  20   -0.69    4.76   0
 -23   1  21   47.98    8.35   0
 -23   1  22   -2.83    5.74   0
 -23   1  25   27.42    6.15   0
 -23   1  26    1.06    3.64   0
 -23   1  27   33.44    5.57   0
 -21   1  16    8.80    5.81   0
 -21   1  30   -0.11    4.02   0
 -20   2  19    5.81    5.35   0
 -20   2  20  103.00    9.75   0
 -20   2  24   53.25    7.92   0
 -20   2  25    2.96    3.93   0
 -20   2  26   37.77    5.82   0
 -19   1  31    4.29    3.23   0
 -19   1  31    2.43    2.98   0
 -18   2  15    8.01    5.39   0
 -18   2  28   49.58    7.13   0
 -16   2  12  316.74   14.01   0
 -16   2  29    2.98    4.42   0
 -14   2  10  609.04   18.79   0
 -23   1  23   16.25    5.48   0
 -23   1  24    1.74    4.20   0
 -21   1  29   40.70    6.52   0
 -20   2  21    5.11    5.08   0
 -20   2  22   73.34    8.04   0
 -20   2  23    0.44    4.53   0
 -19   1  13  230.39   12.15   0
 -18   2  16  113.89    9.44   0
 -18   2  27   -0.48    3.97   0
 -16   2  13   -3.29    4.92   0
  -4  -4 -17    5.21    4.04   0
  -2  -4 -18    8.82    3.92   0
  -2  -4 -17    1.11    3.89   0
  -1  -3 -24   -0.71    2.04   0
  -1  -3 -24   -0.14    1.91   0
   0  -4 -17    0.14    3.58   0
   0  -4 -16   25.59    5.92   0
   1  -3 -24    3.01    4.34   0
   2  -4 -16   55.98    6.09   0
   2  -4 -15    3.83    4.49   0
   2  -4 -14   70.66    7.25   0
   2  -4 -13    4.66    4.67   0
   2  -4 -12   98.52    8.29   0
   3  -3 -24    1.07    3.69   0
   5  -3  -7  191.75   10.33   0
   7  -3 -22    4.96    4.71   0
   7  -3 -10   39.49    6.91   0
   9  -3 -20    5.06    4.41   0
   9  -3 -19   64.91    7.26   0
   9  -3 -18   -2.42    5.86   0
   9  -3 -17   48.94    7.80   0
   9  -3 -16   18.12    6.56   0
   9  -3 -15   25.50    6.83   0
   9  -3 -14   10.24    5.18   0
  -4  -4 -16   19.23    4.31   0
  -2  -4 -16   12.70    4.16   0
  -2  -4 -15    1.47    4.58   0
   0  -4 -15   -2.64    3.95   0
   0  -4 -14   39.06    6.18   0
   0  -4 -13    1.22    4.23   0
   0  -4 -12   60.67    7.09   0
   0  -4 -11    1.16    4.41   0
   5  -3 -23   30.83    5.06   0
   5  -3  -8   12.86    5.54   0
   7  -3 -21   33.95    5.80   0
   7  -3 -11  300.03   12.91   0
  -4  -4 -15    1.48    3.34   0
  -3  -3 -23    3.62    3.73   0
  -2  -4 -14   37.01    5.47   0
  -2  -4 -13    0.16    3.85   0
  -1  -3 -23   16.33    4.80   0
   1  -3 -23   15.76    4.78   0
   3  -3 -23   17.54    4.52   0
   3  -3  -6   13.76    4.45   0
   5  -3 -22    5.07    3.73   0
   5  -3  -9  135.11    9.68   0
   7  -3 -20    6.67    4.65   0
   7  -3 -19   95.05    8.30   0
   7  -3 -13  107.93    8.53   0
   7  -3 -12   26.63    5.98   0
  -5  -3 -22   -0.09    2.27   0
  -5  -3 -22   -1.21    2.19   0
   1  -3 -22   -0.49    4.12   0
   3  -3 -22    0.28    3.55   0
   3  -3  -7  124.77    8.87   0
   5  -3 -21   31.22    5.61   0
   5  -3 -20    0.27    5.43   0
   5  -3 -10   50.68    6.14   0
   7  -3 -18    6.15    4.87   0
   7  -3 -17  155.14    9.97   0
   7  -3 -16    4.20    4.95   0
   7  -3 -15   98.44    8.56   0
   7  -3 -14   19.71    5.32   0
  -9  -3 -20   -0.13    2.10   0
  -7  -3 -21    4.39    3.75   0
  -3  -3 -22   -3.19    4.28   0
  -1  -3 -22    2.69    3.92   0
   3  -3 -21   55.87    6.46   0
   3  -3  -8   15.56    4.26   0
   5  -3 -19   82.04    7.86   0
   5  -3 -18    6.22    5.97   0
   5  -3 -12   33.07    7.16   0
   5  -3 -11  172.48   10.23   0
  -5  -3 -21   14.62    4.77   0
  -3  -3 -21   17.59    4.50   0
  -1  -3 -21   27.52    4.90   0
   1  -3 -21   42.45    5.65   0
   3  -3 -20    5.64    4.20   0
   3  -3 -19   87.41    8.69   0
   3  -3  -9  234.96   11.67   0
   5  -3 -17  218.50   11.43   0
   5  -3 -16   26.55    6.00   0
   5  -3 -15  259.48   12.59   0
   5  -3 -14   24.96    6.14   0
   5  -3 -13  119.55    8.96   0
 -11  -3 -18   -0.72    2.48   0
 -11  -3 -18    1.09    2.33   0
  -9  -3 -19   11.83    4.60   0
  -7  -3 -20    0.50    3.89   0
  -5  -3 -20    2.51    3.78   0
  -1  -3 -20    3.32    4.58   0
   1  -3 -20    0.26    3.81   0
   1  -3 -19   48.11    7.21   0
   1  -3  -7  102.70    8.28   0
   3  -3 -18    3.36    4.98   0
   3  -3 -17  234.63   12.51   0
   3  -3 -11  205.20   11.02   0
   3  -3 -10   39.35    6.09   0
   8  -2 -13   10.45    5.25   0
  -7  -3 -19   16.99    4.29   0
  -4  -2 -24   15.18    4.67   0
  -3  -3 -20   -1.02    3.41   0
  -1  -3 -19   31.46    6.48   0
   1  -3 -18    5.11    4.38   0
   1  -3  -9  236.70   11.96   0
   1  -3  -8    6.27    3.94   0
   3  -3 -16   62.50    7.27   0
   3  -3 -15  394.34   14.81   0
   3  -3 -14  207.97   11.38   0
   3  -3 -13  271.43   12.44   0
   3  -3 -12    3.33    4.66   0
   8  -2 -14  289.67   13.06   0
 -11  -3 -17   20.39    4.53   0
  -9  -3 -18    5.36    3.21   0
  -7  -3 -18    0.66    4.44   0
  -6  -2 -23    0.87    3.75   0
  -5  -3 -19   27.35    4.75   0
  -3  -3 -19   57.57    6.12   0
  -1  -3 -18    6.64    4.37   0
   1  -3 -17   97.46    8.39   0
   1  -3 -16   10.49    5.12   0
   1  -3 -15  207.59   11.38   0
   1  -3 -12   34.09    7.15   0
   1  -3 -11  258.28   13.00   0
   1  -3 -10   25.64    5.44   0
 -11  -3 -16    6.16    3.46   0
  -9  -3 -17   37.21    5.34   0
  -8  -2 -22   17.53    4.77   0
  -5  -3 -18   -0.84    3.49   0
  -4  -2 -23    2.38    3.37   0
  -3  -3 -18    6.60    3.92   0
  -3  -3 -17   60.47    7.44   0
  -2  -2 -23    1.97    2.95   0
  -1  -3 -17   33.58    6.13   0
  -1  -3 -16    3.14    5.56   0
  -1  -3  -9  156.39   10.31   0
   1  -3 -14  124.15    8.79   0
   1  -3 -13  323.65   13.35   0
   6  -2 -12  237.20   11.65   0
 -12  -2 -20    6.39    3.03   0
 -12  -2 -20    3.89    2.72   0
 -11  -3 -15   33.58    5.13   0
 -10  -2 -21    0.06    2.47   0
 -10  -2 -21    0.18    2.46   0
  -9  -3 -16    5.46    3.68   0
  -7  -3 -17   45.13    5.51   0
  -7  -3 -16    3.60    4.94   0
  -6  -2 -22   20.68    4.79   0
  -5  -3 -17   72.37    6.88   0
  -5  -3 -16    3.53    5.18   0
  -3  -3 -16    2.83    4.32   0
  -1  -3 -15   35.84    5.97   0
  -1  -3 -14   15.35    5.17   0
  -1  -3 -13   47.35    6.37   0
  -1  -3 -12    8.70    4.84   0
  -1  -3 -11   69.42    6.98   0
  -1  -3 -10    4.03    4.12   0
   0  -2 -22   45.39    6.41   0
   6  -2 -17    8.08    4.64   0
   6  -2 -16  240.64   11.83   0
   6  -2 -15   38.68    5.95   0
   6  -2 -14  196.80   10.73   0
   6  -2 -13    5.30    4.06   0
 -16  -2 -17    1.75    2.88   0
 -16  -2 -17   -0.44    2.04   0
  -9  -3 -15   64.75    6.65   0
  -8  -2 -21    0.55    3.71   0
  -7  -3 -15   72.70    7.85   0
  -5  -3 -15  111.66    8.35   0
  -4  -2 -22   34.34    5.15   0
  -3  -3 -15   63.12    7.21   0
  -3  -3 -14    5.56    4.43   0
  -3  -3 -13   37.91    6.51   0
  -3  -3 -12    0.78    4.47   0
  -3  -3 -11   25.93    6.04   0
  -3  -3 -10   23.32    5.87   0
  -2  -2 -22   33.06    4.97   0
   2  -2 -21    0.19    3.95   0
   4  -2 -19    2.12    4.22   0
   4  -2 -18  117.20    9.26   0
 -14  -2 -18   14.01    4.59   0
 -12  -2 -19    0.85    3.85   0
 -10  -2 -20   31.02    5.38   0
  -9  -3 -14    1.55    3.64   0
  -9  -3 -13   86.16    8.24   0
  -7  -3 -14    5.81    4.06   0
  -7  -3 -13  120.24    9.50   0
  -6  -2 -21    1.67    2.95   0
  -5  -3 -14    4.03    4.15   0
  -5  -3 -13  132.31    9.13   0
  -5  -3 -12    4.92    4.99   0
  -5  -3 -11  108.81    9.04   0
  -4  -2 -21    5.78    4.59   0
  -2  -2 -21    0.84    3.55   0
   0  -2 -21    1.46    3.62   0
   2  -2 -20   62.68    7.10   0
   2  -2 -19    6.80    5.24   0
   4  -2 -17   12.55    4.72   0
   4  -2 -16  285.47   13.02   0
   4  -2 -12  253.27   11.92   0
 -16  -2 -16    9.19    4.56   0
  -8  -2 -20   43.70    5.36   0
  -7  -3 -12    6.85    3.91   0
  -2  -2 -20   36.87    6.41   0
   0  -2 -20   38.39    5.84   0
   2  -2 -18   83.39    7.82   0
   4  -2 -15   25.14    4.88   0
   4  -2 -14  193.12   10.28   0
   4  -2 -13    5.08    3.71   0
 -14  -2 -17    0.78    3.04   0
 -12  -2 -18   35.13    5.05   0
 -10  -2 -19    2.84    3.09   0
  -9  -1 -22    2.10    4.18   0
  -6  -2 -20   32.63    5.04   0
  -4  -2 -20   37.48    5.36   0
  -2  -2 -19    1.83    4.92   0
   0  -2 -19   10.65    4.53   0
   2  -2 -17    5.14    4.16   0
   2  -2 -16  219.74   11.65   0
 -16  -2 -15    0.98    3.25   0
 -15  -1 -19    1.50    3.23   0
 -15  -1 -19    0.75    2.26   0
 -13  -1 -20   -3.02    4.30   0
 -11  -1 -21   29.05    5.60   0
 -10  -2 -18   48.66    6.22   0
  -8  -2 -19    1.42    3.21   0
  -7  -1 -22    1.98    3.65   0
  -6  -2 -19    2.50    3.49   0
  -4  -2 -19    9.38    4.31   0
  -2  -2 -18   72.45    7.46   0
   0  -2 -18   43.17    5.89   0
   0  -2 -17   28.72    6.06   0
   2  -2 -15   24.09    4.86   0
   2  -2 -14  251.57   11.52   0
   2  -2 -13    8.90    4.09   0
   2  -2 -12  498.75   15.60   0
 -19  -1 -16    0.27    2.57   0
 -14  -2 -16   14.17    3.75   0
 -12  -2 -17   -0.44    2.70   0
  -8  -2 -18   63.07    6.16   0
  -6  -2 -18   63.07    6.50   0
  -4  -2 -18  135.71    8.78   0
  -2  -2 -17   34.79    6.31   0
   0  -2 -16  109.57    8.05   0
   0  -2 -15    5.48    4.71   0
 -17  -1 -17    3.83    4.32   0
 -16  -2 -14   11.35    3.47   0
 -14  -2 -15    0.82    2.77   0
 -12  -2 -16   25.74    4.73   0
 -11  -1 -20    7.98    4.02   0
 -10  -2 -17    0.30    3.30   0
  -9  -1 -21   38.65    5.08   0
  -8  -2 -17    5.34    3.66   0
  -7  -1 -21   65.12    6.51   0
  -6  -2 -17   14.21    5.88   0
  -4  -2 -17   -1.01    3.96   0
  -2  -2 -16   40.79    5.67   0
   0  -2 -14  169.89    9.47   0
   0  -2 -13   44.42    5.37   0
   0  -2 -12  263.39   11.72   0
   0  -2 -11   21.71    4.95   0
 -16  -2 -13    0.83    2.77   0
 -15  -1 -18   -0.25    3.43   0
 -14  -2 -14   30.02    5.20   0
 -14   0 -20    1.03    2.88   0
 -14   0 -20    0.07    1.91   0
 -13  -1 -19   19.42    4.26   0
 -12  -2 -15    3.70    4.22   0
 -10  -2 -16   50.25    5.93   0
  -8  -2 -16   58.41    6.92   0
  -6  -2 -16  151.89    9.80   0
  -5  -1 -21   94.41    7.39   0
  -4  -2 -16  103.97    7.80   0
  -2  -2 -15    5.40    3.75   0
  -2  -2 -14   49.42    6.56   0
 -19  -1 -15   14.54    4.30   0
 -12  -2 -14   68.15    7.11   0
 -11  -1 -19   35.62    5.33   0
 -10  -2 -15    2.91    3.75   0
  -9  -1 -20    5.13    3.15   0
  -8  -2 -15    5.34    5.01   0
  -7  -1 -20    2.77    4.22   0
  -6  -2 -15    3.56    4.22   0
  -5  -1 -20   -0.07    4.09   0
  -4  -2 -15   16.56    4.51   0
  -4  -2 -14   40.79    5.65   0
  -2  -2 -13    2.34    3.29   0
  -2  -2 -12  141.31    8.49   0
  -2  -2 -11   58.70    6.48   0
  -2  -2 -10  224.97   10.97   0
 -21  -1 -13   24.72    4.67   0
 -17  -1 -16   -0.20    3.02   0
 -15  -1 -17    7.53    3.08   0
 -14  -2 -13   -0.93    3.11   0
 -13  -1 -18   -1.14    2.67   0
 -12  -2 -13    4.14    4.47   0
 -10  -2 -14   67.24    6.20   0
  -9  -1 -19   48.91    6.34   0
  -8  -2 -14   76.37    7.63   0
  -6  -2 -14   99.73    7.39   0
  -4  -2 -13   11.16    4.13   0
  -4  -2 -12  152.91    9.26   0
 -19  -1 -14    0.27    2.57   0
 -18   0 -17    0.43    1.89   0
 -18   0 -17   -0.01    1.84   0
 -17  -1 -15    8.85    3.79   0
 -16   0 -18    1.41    3.57   0
 -14  -2 -12   59.13    6.16   0
 -14   0 -19   -0.31    3.17   0
 -12  -2 -12   88.16    7.68   0
 -12   0 -20   13.68    3.90   0
 -11  -1 -18    4.47    3.27   0
 -10  -2 -13   38.69    5.39   0
  -8  -2 -13    3.84    3.67   0
  -7  -1 -19   96.00    7.42   0
  -6  -2 -13    5.97    4.04   0
  -6  -2 -12  173.85    9.65   0
  -5  -1 -19  128.95    8.19   0
  -4  -2 -11   13.57    4.00   0
  -4  -2 -10  187.29    9.29   0
  -4  -2  -9   22.13    4.10   0
  -3  -1 -19   33.93    5.08   0
 -21  -1 -12    2.25    2.47   0
 -20   0 -15   -1.41    3.92   0
 -15  -1 -16    0.93    2.49   0
 -14  -2 -11    6.18    3.42   0
 -13  -1 -17   30.60    4.43   0
 -12  -2 -11   11.43    4.74   0
 -10  -2 -12   98.46    7.39   0
  -9  -1 -18    5.69    3.55   0
  -8  -2 -12  106.58    7.70   0
  -8  -2 -11   10.33    4.19   0
  -7  -1 -18    9.05    4.60   0
  -6  -2 -11    9.60    3.54   0
  -6  -2 -10  185.79    9.85   0
  -6  -2  -9   -0.76    3.20   0
  -5  -1 -18    7.67    4.55   0
  -3  -1 -18    6.41    3.85   0
  -1  -1 -17  188.53   10.20   0
 -19  -1 -13   30.20    4.13   0
 -18   0 -16   15.51    4.87   0
 -17  -1 -14   -0.43    2.66   0
 -15  -1 -15   17.67    4.61   0
 -13  -1 -16   -2.10    3.14   0
 -12  -2 -10  107.62    7.66   0
 -12   0 -19    0.16    2.30   0
 -11  -1 -17   49.81    5.51   0
 -10  -2 -11   34.66    5.16   0
 -10  -2 -10  131.59    7.85   0
  -9  -1 -17   46.61    5.96   0
  -8  -2 -10  177.53    9.24   0
  -8  -2  -9    4.91    3.88   0
  -6  -2  -8   90.27    6.77   0
  -3  -1 -17   60.12    5.91   0
  -1  -1 -16    5.78    4.08   0
 -24   0 -11   -0.01    1.81   0
 -24   0 -11    1.01    1.78   0
 -22   0 -13    0.12    2.88   0
 -19  -1 -12    2.92    3.22   0
 -16   0 -17   -0.15    2.56   0
 -14   0 -18   25.89    3.80   0
 -11  -1 -16    1.97    4.50   0
 -10  -2  -9   39.64    5.09   0
 -10   0 -19   -1.17    3.21   0
  -7  -1 -17  100.97    7.38   0
  -5  -1 -17   33.90    4.94   0
  -3  -1 -16   20.64    5.00   0
  -1  -1 -15  255.01   10.74   0
 -20   0 -14   18.30    4.06   0
 -17  -1 -13   39.37    4.74   0
 -17   1 -17    0.58    2.05   0
 -17   1 -17    0.28    1.90   0
 -15  -1 -14    1.89    3.02   0
 -13  -1 -15   46.82    5.34   0
 -12   0 -18   68.95    5.75   0
  -9  -1 -16   39.47    5.17   0
  -7  -1 -16    2.60    3.24   0
  -5  -1 -16    5.18    3.56   0
  -3  -1 -15   86.79    6.95   0
  -1  -1 -14    1.57    2.95   0
 -24   0 -10   16.80    3.99   0
 -22   0 -12   23.42    4.10   0
 -21   1 -14    0.78    1.88   0
 -21   1 -14    1.53    1.74   0
 -19  -1 -11   33.27    4.51   0
 -18   0 -15    0.84    2.26   0
 -17  -1 -12   -0.13    3.05   0
 -16   0 -16   14.15    3.38   0
 -15  -1 -13   25.96    5.04   0
 -14   0 -17    0.11    2.54   0
 -13  -1 -14    0.91    3.29   0
 -11  -1 -15   89.37    6.96   0
 -10   0 -18   86.34    6.80   0
  -9  -1 -15   98.08    7.08   0
  -7  -1 -15  103.17    7.59   0
  -5  -1 -15   84.80    6.62   0
  -3  -1 -14    6.63    3.53   0
  -1  -1 -13  472.26   14.58   0
 -23   1 -12   -0.30    1.78   0
 -23   1 -12   -0.78    1.70   0
 -20   0 -13    1.40    2.27   0
 -19  -1 -10   -0.74    2.73   0
 -19   1 -15   13.35    4.06   0
 -17   1 -16   -1.13    3.56   0
 -15   1 -17    3.13    3.37   0
 -13  -1 -13  140.82    8.78   0
 -12   0 -17    1.32    2.95   0
 -11  -1 -14    5.94    3.84   0
  -9  -1 -14    1.48    4.56   0
  -8   0 -18   84.88    6.87   0
  -5  -1 -14    7.60    3.67   0
  -3  -1 -13  238.77   10.52   0
 -25   1 -10   -0.08    1.56   0
 -25   1 -10   -0.25    1.62   0
 -24   0  -9   -0.11    2.33   0
 -22   0 -11    1.85    2.19   0
 -18   0 -14   14.21    3.31   0
 -17  -1 -11   30.07    4.50   0
 -16   0 -15   -0.92    2.46   0
 -15  -1 -12   -0.25    3.24   0
 -14   0 -16   50.33    5.09   0
 -11  -1 -13  217.69   10.53   0
 -10   0 -17   -1.67    3.10   0
  -7  -1 -14   30.60    4.64   0
  -5  -1 -13  240.85    9.95   0
  -3  -1 -12   17.48    3.73   0
 -21   1 -13   30.52    4.92   0
 -20   0 -12   28.69    4.07   0
 -19   1 -14   -0.02    3.74   0
 -18   0 -13    2.25    3.27   0
 -17  -1 -10    2.40    3.07   0
 -15  -1 -11   83.08    6.65   0
 -14   0 -15    3.29    3.76   0
 -13  -1 -12   44.89    5.51   0
 -12   0 -16  254.06   10.57   0
 -11  -1 -12    6.56    4.44   0
  -9  -1 -13   94.05    6.67   0
  -8   0 -17    1.27    3.19   0
  -7  -1 -13  105.97    6.99   0
  -5  -1 -12   27.96    3.92   0
 -27   1  -7    3.87    2.16   0
 -27   1  -7    2.34    1.78   0
 -25   1  -9    8.03    3.69   0
 -24   0  -8   36.10    4.60   0
 -23   1 -11   25.99    4.53   0
 -22   0 -10   68.70    5.64   0
 -17  -1  -9   18.04    3.97   0
 -17   1 -15   12.34    3.06   0
 -16   0 -14   13.27    3.54   0
 -15  -1 -10   12.21    3.58   0
 -15   1 -16    0.23    2.35   0
 -13  -1 -11  236.50   10.27   0
 -10   0 -16  196.68    9.84   0
  -9  -1 -12    7.65    3.61   0
  -8   0 -16  166.71    9.35   0
  -7  -1 -12    5.43    3.26   0
  -5  -1 -11  305.38   10.91   0
 -22   0  -9   -0.42    3.24   0
 -21   1 -12    0.98    2.77   0
 -20   0 -11    0.37    2.68   0
 -20   2 -13   -0.07    1.81   0
 -20   2 -13    0.20    1.67   0
 -18   0 -12   26.18    4.09   0
 -17  -1  -8   25.64    4.37   0
 -16   0 -13   -1.74    3.65   0
 -15  -1  -9  135.90    8.53   0
 -14   0 -14   88.98    6.58   0
 -13  -1 -10   40.23    5.18   0
 -12   0 -15    1.22    3.41   0
 -11  -1 -11  232.35   10.01   0
  -9  -1 -11  237.24   10.06   0
  -7  -1 -11  231.33    9.78   0
 -27   1  -6   -1.29    2.38   0
 -25   1  -8   -0.26    3.14   0
 -23   1 -10    0.14    2.82   0
 -22   2 -11    0.87    3.00   0
 -20   0 -10   66.06    5.76   0
 -19   1 -13   29.47    4.13   0
 -17   1 -14    2.28    2.62   0
 -15  -1  -8    5.55    3.93   0
 -15   1 -15   20.46    3.85   0
 -13  -1  -9  169.67    8.57   0
 -13   1 -16   -2.03    2.59   0
 -12   0 -14  252.09   11.16   0
 -11  -1 -10    7.83    3.39   0
 -10   0 -15   -1.71    3.40   0
  -9  -1 -10   72.45    6.08   0
  -8   0 -15   -2.17    3.16   0
  -7  -1 -10   25.97    3.99   0
  -6   0 -15    0.52    3.70   0
 -26   2  -7    0.02    2.30   0
 -26   2  -7    1.28    1.56   0
 -24   2  -9   -0.48    2.45   0
 -22   0  -8   70.73    6.03   0
 -21   1 -11   39.72    4.71   0
 -20   2 -12    3.35    4.00   0
 -18   0 -11   -1.01    2.94   0
 -16   0 -12    9.51    3.65   0
 -15  -1  -7  105.36    7.55   0
 -14   0 -13   -0.22    3.40   0
 -13  -1  -8    2.65    3.83   0
 -11  -1  -9  458.74   13.76   0
 -10   0 -14  112.38    7.46   0
  -9  -1  -9  334.27   11.59   0
 -25   1  -7   19.01    3.72   0
 -23   1  -9   27.74    4.20   0
 -22   0  -7   -4.69    3.70   0
 -20   0  -9    0.70    3.08   0
 -19   1 -12   -1.21    2.66   0
 -18   0 -10   51.54    6.09   0
 -18   2 -13   -1.40    2.07   0
 -17   1 -13   41.70    4.93   0
 -16   0 -11   -0.61    4.16   0
 -15   1 -14    2.52    2.86   0
 -14   0 -12   60.60    6.25   0
 -13  -1  -7  415.84   13.82   0
 -13   1 -15   46.04    5.05   0
 -12   0 -13   -2.64    3.28   0
 -11  -1  -8    5.37    2.98   0
  -9  -1  -8   16.45    3.44   0
  -8   0 -14  414.67   13.85   0
  -6   0 -14  321.94   12.46   0
 -28   2  -4    4.54    2.31   0
 -28   2  -4    3.14    2.04   0
 -22   2 -10    7.01    3.46   0
 -21   1 -10   -0.05    2.81   0
 -20   0  -8  166.87    9.17   0
 -12   0 -12  121.13    8.10   0
 -11  -1  -7  406.80   13.20   0
 -10   0 -13   -0.91    3.27   0
  -8   0 -13   -0.06    4.13   0
  -6   0 -13   -1.44    3.62   0
 -26   2  -6   20.75    4.13   0
 -25   1  -6   -0.43    2.35   0
 -24   2  -8   15.68    4.06   0
 -23   1  -8    0.22    2.49   0
 -22   0  -6  145.78    8.51   0
 -20   2 -11    1.00    2.27   0
 -19   1 -11   39.58    4.77   0
 -18   0  -9   -0.60    3.21   0
 -18   2 -12    8.52    3.46   0
 -17   1 -12   -0.08    2.97   0
 -16   0 -10   59.98    5.84   0
 -15   1 -13   28.06    4.35   0
 -14   0 -11    0.94    3.28   0
 -13   1 -14    3.33    3.05   0
 -10   0 -12  560.27   16.25   0
 -28   2  -3    1.90    2.51   0
 -23   1  -7   25.70    4.92   0
 -22   2  -9    1.46    2.42   0
 -21   1  -9   29.57    4.62   0
 -21   3  -9    6.35    2.66   0
 -21   3  -9    2.66    2.30   0
 -20   0  -7   -2.04    3.40   0
 -19   1 -10   -3.62    3.83   0
 -18   0  -8   73.08    7.00   0
 -16   0  -9    0.24    4.18   0
 -14   0 -10  154.32    9.08   0
 -12   0 -11    0.23    3.45   0
 -11   1 -14    7.02    3.54   0
  -8   0 -12  254.34   10.95   0
  -6   0 -12  108.96    7.53   0
 -26   2  -5    2.43    2.95   0
 -25   1  -5   33.93    4.72   0
 -25   3  -5    4.18    2.83   0
 -25   3  -5    1.66    2.01   0
 -24   2  -7   -0.27    2.89   0
 -23   3  -7    5.57    3.09   0
 -20   0  -6   69.55    6.35   0
 -20   2 -10    8.82    3.41   0
 -18   2 -11    0.22    3.45   0
 -17   1 -11   31.46    4.88   0
 -15   1 -12    4.16    3.22   0
 -13   1 -13  121.29    7.59   0
 -10   0 -11   -0.01    3.52   0
  -8   0 -11    0.75    3.69   0
  -6   0 -11   -0.83    3.28   0
 -28   2  -2   15.53    3.53   0
 -25   1  -4    2.97    2.75   0
 -23   1  -6    8.79    3.71   0
 -22   2  -8   23.08    4.00   0
 -21   1  -8    2.34    3.23   0
 -20   0  -5    0.05    3.62   0
 -19   1  -9   12.07    4.07   0
 -18   0  -7   -2.36    3.37   0
 -16   0  -8  163.02    8.80   0
 -16   2 -12   36.50    5.07   0
 -14   0  -9    4.51    3.63   0
 -13   1 -12   41.69    5.92   0
 -12   0 -10  369.36   12.37   0
 -11   1 -13  209.99   10.18   0
 -10   0 -10  366.52   13.19   0
 -27   3  -2    0.62    1.74   0
 -27   3  -2   -0.74    1.70   0
 -26   2  -4   24.66    3.98   0
 -24   2  -6   27.74    4.30   0
 -21   1  -7   27.17    4.82   0
 -21   3  -8    1.47    3.05   0
 -20   2  -9   -0.20    2.80   0
 -18   0  -6   14.60    4.14   0
 -17   1 -10    3.22    3.47   0
 -15   1 -11   89.42    7.11   0
 -12   0  -9   -0.53    2.63   0
  -8   0 -10   19.36    3.90   0
 -17   1  24   17.11    7.70   0
 -17   1  25  137.28   11.11   0
 -16   0  30   36.39    6.41   0
 -15   1  27   63.00    7.95   0
 -13   1  28   -1.03    4.27   0
 -12   0  31   -0.22    3.18   0
 -12   0  31   -2.18    3.25   0
 -11   1  28    4.12    4.40   0
 -10   2  16  120.61   10.38   0
 -10   2  17    5.32    5.86   0
 -10   2  18   90.81    9.77   0
 -10   2  19   55.37    8.28   0
 -10   2  20   73.38    8.96   0
  -9   1  28    3.32    4.14   0
  -8   2  13   10.68    5.48   0
  -8   2  14  319.22   16.13   0
  -8   2  20   85.72   10.31   0
  -8   2  21    0.16    5.55   0
 -17   1  20    6.91    7.49   0
 -17   1  21   63.21   10.01   0
 -17   1  22   50.73    8.14   0
 -17   1  23   81.84    9.26   0
 -15   1  26    3.40    5.34   0
 -14   0  30    5.01    6.21   0
 -13   1  27   38.02    6.79   0
 -11   1  27   34.80    7.36   0
  -8   2  15   44.56    7.29   0
  -8   2  16  151.75   11.76   0
  -8   2  17    0.99    5.32   0
  -8   2  18  143.74   11.26   0
  -8   2  19   -0.78    5.52   0
  -7   1  27   54.81    8.45   0
  -6   2  13    9.38    4.99   0
  -6   2  14  195.26   13.09   0
 -16   0  29    0.46    3.77   0
 -15   1  24   -1.31    5.62   0
 -15   1  25   85.31    9.23   0
 -13  -1  31    0.66    3.46   0
 -13   1  26    5.42    5.79   0
 -12   0  30    2.72    5.76   0
 -10   0  30   16.42    6.34   0
  -9   1  27   74.88    8.35   0
  -8   0  30   17.47    6.32   0
  -6   2  15   28.57    6.63   0
  -6   2  16  174.35   12.35   0
  -6   2  17   11.25    5.65   0
 -16   0  28   37.35    6.48   0
 -15   1  17  235.97   13.78   0
 -15   1  18    5.21    6.61   0
 -15   1  21  159.67   12.15   0
 -15   1  22   16.46    6.74   0
 -15   1  23  122.55   10.57   0
 -14   0  29    1.67    3.82   0
 -13   1  25   65.16    8.20   0
 -11   1  26   11.44    5.46   0
  -9   1  26    0.90    4.85   0
  -7   1  26   10.26    5.24   0
  -6   0  29    1.53    6.23   0
 -16   0  27    3.22    4.40   0
 -15   1  19  137.38   10.68   0
 -15   1  20   17.03    6.34   0
 -14   0  28   21.09    6.42   0
 -13   1  23   63.11    8.43   0
 -13   1  24   22.11    6.21   0
 -12   0  29    2.66    3.98   0
 -11   1  25   22.37    6.93   0
 -10   0  29    1.99    4.03   0
  -9   1  25   49.48    7.45   0
  -8   0  29   -0.25    5.35   0
  -7   1  25   55.21    8.46   0
 -16   0  26   31.51    6.15   0
 -13  -1  30    4.99    4.61   0
 -13   1  15  231.34   13.21   0
 -13   1  16    9.66    6.19   0
 -13   1  20   20.43    7.58   0
 -13   1  21  100.22   10.18   0
 -13   1  22    3.82    6.07   0
 -12   0  28   19.05    5.91   0
 -11  -1  30   -1.17    5.22   0
 -11   1  23   77.46    9.95   0
 -11   1  24   26.95    7.07   0
  -9  -1  30   -1.98    5.70   0
  -9   1  24   18.73    7.31   0
  -7  -1  30   -0.93    2.66   0
  -7  -1  30    0.77    2.74   0
  -7   1  24   -0.93    6.57   0
  -6   0  28   25.93    6.60   0
 -16   0  25   -0.45    4.89   0
 -14   0  27   -3.98    4.44   0
 -13   1  17  116.63    9.92   0
 -13   1  18   20.27    5.88   0
 -13   1  19   48.43    7.39   0
 -11   1  22   12.04    6.33   0
 -10   0  28   17.48    5.45   0
  -9   1  23  170.05   12.44   0
  -8   0  28   36.73    6.31   0
 -16   0  24  118.61   10.02   0
 -14   0  26   51.44    7.35   0
 -13  -1  29   20.24    4.98   0
 -12   0  27   -1.47    4.62   0
 -11  -1  29   40.82    7.01   0
 -11   1  15  348.77   16.21   0
 -11   1  19   72.51    9.57   0
 -11   1  20    4.28    5.42   0
 -11   1  21  114.45    9.65   0
 -10   0  27   -2.30    5.62   0
  -9   1  22   -3.85    5.72   0
  -7  -1  29   31.74    8.30   0
  -7   1  22   -2.18    6.75   0
  -7   1  23  125.85   10.09   0
  -6   0  27   -0.46    5.02   0
  -5  -1  29   23.39    6.52   0
  -5   1  23   54.83    8.17   0
  -4   0  27    0.37    3.66   0
 -14   0  25    1.45    5.01   0
 -13  -1  28    0.54    4.53   0
 -12   0  26   57.08    7.67   0
 -11   1  16   33.46    5.73   0
 -11   1  17  219.86   12.58   0
 -11   1  18    1.16    5.47   0
 -10  -2  29    2.90    3.90   0
 -10  -2  29    0.32    2.88   0
  -9  -1  29   52.09    7.49   0
  -9   1  20    7.82    5.57   0
  -9   1  21  334.60   15.26   0
  -8  -2  29   -0.17    3.78   0
  -8  -2  29   -0.54    2.74   0
  -8   0  27    2.78    4.21   0
  -7   1  21  307.44   15.90   0
  -5   1  22   -1.15    5.09   0
  -3  -1  28   -1.20    4.84   0
 -14   0  23    0.59    6.30   0
 -14   0  24  200.30   12.09   0
 -12   0  25   -0.01    4.91   0
 -11  -1  28   -1.21    4.55   0
 -10   0  26  154.08   10.68   0
  -9   1  15  378.43   16.21   0
  -9   1  16    0.21    5.60   0
  -9   1  17  262.37   14.58   0
  -9   1  18   14.60    5.79   0
  -9   1  19  239.88   13.12   0
  -8   0  26  163.45   11.01   0
  -7   1  20    3.73    5.19   0
  -6   0  26  119.17    9.42   0
  -5  -1  28    2.41    5.08   0
  -5   1  20    3.74    6.32   0
  -5   1  21  189.26   12.06   0
  -4   0  26   79.63    8.30   0
 -14   0  22  167.67   11.50   0
 -13  -1  27   36.48    5.82   0
 -12   0  24   95.94    9.56   0
 -10   0  25    2.25    5.04   0
  -9  -1  28    1.90    3.61   0
  -8   0  25    0.96    6.48   0
  -7  -1  28   -1.00    3.91   0
  -7   1  18   12.22    5.59   0
  -7   1  19  310.49   14.78   0
  -5   1  19  258.36   14.65   0
  -4  -2  28    1.83    3.13   0
  -4  -2  28    0.44    2.98   0
  -4   0  25    2.20    5.55   0
 -14   0  20  218.10   12.91   0
 -14   0  21   -1.26    4.57   0
 -13  -1  26    7.60    5.55   0
 -12   0  23   -3.34    5.32   0
 -11  -1  27   31.09    5.83   0
 -10  -2  28   29.77    6.15   0
 -10   0  24  185.10   12.04   0
  -9  -1  27   79.94    8.24   0
  -8  -2  28   28.73    6.44   0
  -7   1  15  223.36   12.42   0
  -7   1  16    9.09    4.54   0
  -7   1  17  187.08   11.46   0
  -6  -2  28   20.46    5.68   0
  -6   0  25    0.82    4.65   0
  -5  -1  27   35.09    6.38   0
  -5   1  17  297.41   14.60   0
  -5   1  18   75.89    8.29   0
  -3  -1  27   41.38    6.71   0
 -13  -1  25   52.01    7.83   0
 -12   0  21    2.81    5.92   0
 -12   0  22   95.24    9.15   0
 -11  -1  26    5.40    5.26   0
 -10   0  23   -0.80    5.30   0
  -8   0  24  252.23   13.48   0
  -7  -1  27   52.46    6.59   0
  -6   0  24  132.22   10.28   0
  -5   1  15  146.15   10.23   0
  -5   1  16   29.75    6.14   0
  -4   0  24  118.24   10.05   0
  -2  -2  27    1.55    2.82   0
  -2  -2  27    0.69    2.63   0
  -1  -1  26    2.85    3.67   0
 -12   0  20   83.89    8.33   0
 -10  -2  27    1.69    3.73   0
 -10   0  22  108.32    9.38   0
  -9  -1  26    3.46    4.13   0
  -8  -2  27    3.22    4.32   0
  -8   0  23    6.54    5.09   0
  -7  -1  26    9.35    5.55   0
  -6  -2  27    3.29    5.09   0
  -6   0  23    2.55    6.39   0
  -5  -1  26    5.49    5.02   0
  -4  -2  27    2.02    4.98   0
  -4   0  23    0.20    6.04   0
  -3  -1  26    0.02    3.46   0
  -2   0  23    1.02    4.51   0
   0  -2  26   16.82    5.44   0
 -13  -1  24   11.53    5.06   0
 -12   0  17    3.96    4.76   0
 -12   0  18  328.85   14.72   0
 -12   0  19   -1.26    4.39   0
 -11  -1  25   24.49    5.79   0
 -10   0  21   -3.18    5.08   0
  -8   0  22  118.64    9.63   0
  -7  -3  26    0.34    3.35   0
  -7  -3  26   -0.10    2.39   0
  -5  -3  26    1.07    3.62   0
  -5  -3  26    0.78    2.23   0
  -2  -2  26   32.59    7.32   0
  -2   0  22  141.75   11.26   0
  -1  -1  25   35.59    5.90   0
 -11  -1  24   27.94    5.92   0
 -10  -2  26   54.03    6.44   0
 -10   0  19   -1.08    5.68   0
 -10   0  20  332.76   14.44   0
  -9  -1  25   44.77    6.22   0
  -8  -2  26   63.86    7.23   0
  -8   0  21    1.53    4.75   0
  -7  -1  25   54.63    6.80   0
  -6   0  22   24.90    5.94   0
  -5  -1  25   33.94    5.91   0
  -4  -2  26   42.91    6.67   0
  -4   0  22   51.61    7.15   0
  -3  -1  25   27.45    5.59   0
  -1  -3  25    4.78    3.74   0
 -11  -1  23   74.98    7.94   0
 -10  -2  25    0.40    4.62   0
 -10   0  17    0.85    5.01   0
 -10   0  18  586.40   18.56   0
  -9  -1  24   19.48    5.43   0
  -8   0  20  366.65   15.18   0
  -6  -2  26   44.14    5.69   0
  -6   0  21   -3.45    4.87   0
  -4   0  21   -0.11    4.71   0
  -3  -3  25   10.07    5.37   0
  -2   0  21   -0.46    4.26   0
  -1  -1  24   11.91    4.62   0
   0  -2  25   -1.75    4.22   0
 -11  -1  22   15.42    6.43   0
 -10   0  16  205.63   11.31   0
  -9  -1  23  170.62   11.43   0
  -8  -2  25    2.74    3.80   0
  -8   0  19    0.61    4.52   0
  -7  -3  25   24.40    4.96   0
  -7  -1  24    5.86    4.39   0
  -6  -2  25    1.04    4.55   0
  -6   0  20  108.23    9.16   0
  -5  -3  25   17.21    4.85   0
  -5  -1  24    3.27    4.25   0
  -4  -2  25   -1.58    4.24   0
  -4   0  20   70.82    7.72   0
  -3  -1  24    1.21    4.32   0
  -2  -2  25    1.79    3.57   0
  -2   0  20   81.28    8.84   0
   1  -3  24    1.00    2.20   0
   1  -3  24    0.05    2.17   0
   2  -2  24   22.41    5.46   0
 -11  -1  21  103.95    9.36   0
 -10  -2  24   58.31    7.18   0
  -8   0  17   -0.58    3.00   0
  -8   0  18  486.90   16.59   0
  -7  -1  23  143.85    9.78   0
  -6   0  19   -2.23    4.21   0
  -5  -1  23   76.91    8.36   0
  -4   0  19   -0.57    5.49   0
  -3  -1  23   76.08    8.20   0
  -2   0  19   -3.27    5.25   0
  -1  -3  24   -0.57    4.13   0
  -1  -1  23   38.54    6.34   0
   0  -2  24   36.96    5.47   0
   3  -3  23    3.04    2.77   0
   3  -3  23    1.44    2.53   0
   5  -3  22    0.54    2.80   0
 -11  -1  20    1.65    5.24   0
 -10  -2  23   -0.41    4.89   0
  -9  -1  22    6.02    4.50   0
  -8  -2  24  139.68    9.44   0
  -8   0  16  451.94   15.99   0
  -7  -3  24    0.22    2.99   0
  -7  -1  22    1.00    5.10   0
  -6  -2  24  105.68    8.95   0
  -6   0  18  238.00   12.01   0
  -5  -3  24    1.22    3.20   0
  -4  -2  24   72.73    7.78   0
  -4   0  18  226.61   12.04   0
  -3  -3  24    2.16    4.00   0
  -2  -2  24   69.63    6.94   0
   1  -1  22    4.05    4.50   0
   2  -2  23   -0.60    2.96   0
  -9  -1  21  332.24   13.97   0
  -8  -2  23    4.93    5.62   0
  -6   0  16  782.03   21.92   0
  -6   0  17    0.18    3.74   0
  -5  -1  22   -1.73    4.61   0
  -4   0  17   -0.76    4.75   0
  -3  -1  22    3.96    4.11   0
  -2   0  18  238.31   12.16   0
  -1  -1  22   10.32    4.45   0
   0  -2  23    2.87    4.49   0
   1  -3  23   13.26    4.72   0
  -9  -1  20    1.94    4.59   0
  -7  -3  23   36.84    5.22   0
  -7  -1  21  328.13   13.50   0
  -6  -2  23    2.50    4.21   0
  -5  -3  23   37.95    4.84   0
  -5  -1  21  222.35   12.13   0
  -4  -2  23    2.34    4.00   0
  -4   0  16  405.03   15.64   0
  -3  -3  23   29.40    4.65   0
  -3  -1  21  188.24   11.40   0
  -2  -2  23   -1.48    3.78   0
  -2   0  17   -0.08    3.93   0
  -1  -3  23   18.03    4.32   0
  -1  -1  21   78.65    8.75   0
   0  -4  21   -0.19    3.00   0
   0  -4  21   -0.16    2.14   0
   1  -1  21   27.48    5.59   0
   2  -2  22   29.87    6.02   0
   3  -3  22    2.38    3.81   0
   5  -3  21   -0.13    4.97   0
  -9  -1  19  244.37   12.00   0
  -8  -2  22  143.12    9.46   0
  -7  -1  20    2.57    4.58   0
  -2  -4  21    4.33    3.67   0
  -2   0  16  399.26   15.46   0
   0  -2  22   53.28    6.84   0
   1  -3  22    5.31    3.63   0
   1  -1  20   31.79    7.05   0
   4  -2  21    5.63    3.76   0
  -9  -1  18   10.13    4.58   0
  -8  -2  21    3.27    5.05   0
  -7  -1  19  336.90   13.46   0
  -6  -2  22  147.36    9.64   0
  -5  -3  22   -2.15    3.35   0
  -5  -1  20    5.59    4.75   0
  -4  -2  22  105.61    8.22   0
  -3  -3  22    1.85    3.05   0
  -3  -1  20    1.98    4.46   0
  -2  -2  22   95.28    7.67   0
  -2   0  15    3.37    3.41   0
  -1  -3  22    2.36    3.20   0
  -1  -1  20   13.13    4.85   0
   2  -4  20    6.09    2.77   0
   2  -4  20    1.19    2.66   0
   2  -2  21    2.44    4.69   0
   3  -3  21   20.24    4.52   0
  -9  -1  17  259.44   12.33   0
  -7  -1  18   16.08    5.62   0
  -6  -2  21   -0.54    4.50   0
  -5  -1  19  311.56   12.97   0
  -3  -1  19  311.90   13.75   0
  -2  -4  20   34.40    5.67   0
  -1  -1  19  282.24   13.22   0
   0  -4  20   15.81    4.35   0
   0  -2  21    3.65    4.12   0
   1  -3  21   22.25    5.01   0
   1  -1  19  119.00    9.18   0
   4  -4  19    0.22    2.05   0
   4  -4  19    1.35    2.14   0
   4  -2  20   39.08    5.67   0
   5  -3  20    1.16    3.28   0
   7  -3  19   10.96    4.63   0
  -8  -2  20   72.69    7.16   0
  -7  -1  17  236.99   12.02   0
  -5  -3  21   36.14    5.50   0
  -5  -1  18   86.82    8.08   0
  -4  -2  21    4.52    4.27   0
  -3  -3  21   56.96    6.15   0
  -2  -2  21    3.35    4.16   0
  -1  -3  21   43.77    5.49   0
   2  -4  19   -2.70    4.31   0
   2  -2  20   33.26    6.52   0
   3  -3  20   -2.07    3.87   0
   6  -4  18    5.13    2.80   0
   6  -4  18    2.56    2.49   0
   8  -4  17   -0.03    1.86   0
   8  -4  17    0.79    1.84   0
  -8  -2  19    5.99    3.99   0
  -6  -2  20   99.82    7.87   0
  -4  -2  20   98.52    8.31   0
  -3  -1  18    0.55    3.88   0
  -2  -4  19   10.66    4.12   0
  -2  -2  20   70.54    8.11   0
  -1  -1  18    5.63    4.62   0
   0  -4  19    1.13    2.98   0
   0  -2  20   35.99    5.78   0
   1  -3  20    0.19    4.36   0
   1  -1  18    3.90    4.15   0
   4  -2  19    4.28    4.21   0
   5  -3  19   24.88    4.34   0
  -7  -1  16    5.12    3.98   0
  -6  -2  19    5.64    4.17   0
  -5  -3  20    6.38    3.94   0
  -5  -1  17  334.56   13.14   0
  -3  -3  20    2.68    3.92   0
  -3  -1  17  213.75   11.53   0
  -1  -3  20    0.15    3.37   0
   1  -1  17  183.43   11.56   0
   2  -2  19   -3.63    4.30   0
   3  -3  19   48.55    6.15   0
   4  -4  18   11.26    4.20   0
   6  -4  17    1.96    4.35   0
   7  -3  18    0.53    2.73   0
  -5  -3  19   81.95    7.94   0
  -5  -1  16   33.60    5.64   0
  -4  -2  19    5.36    4.22   0
  -2  -4  18   66.96    6.56   0
  -2  -2  19    1.20    4.27   0
  -1  -1  17  206.98   10.72   0
   0  -4  18   23.18    3.85   0
   0  -2  19   10.77    4.53   0
   1  -3  19   38.86    6.00   0
   2  -4  18    9.54    3.64   0
   4  -2  18  111.36    8.50   0
   5  -3  18   -1.24    4.17   0
   8  -4  16   19.39    4.35   0
  10  -4  15   -0.11    2.19   0
  10  -4  15    0.16    2.10   0
  -6  -2  18  104.59    7.95   0
  -5  -1  15  186.26    9.90   0
  -4  -2  18  106.04    8.99   0
  -3  -3  19   80.85    7.49   0
  -3  -1  16   22.66    4.42   0
  -1  -3  19   43.95    6.09   0
  -1  -1  16    3.25    4.25   0
   1  -1  16    2.10    4.39   0
   2  -2  18   62.46    6.84   0
   3  -3  18    1.99    4.85   0
   4  -4  17    1.52    2.93   0
   6  -2  17   18.61    5.05   0
   7  -3  17   39.32    5.25   0
   9  -3  16    5.98    3.90   0
  -6  -2  17    8.81    4.41   0
  -5  -3  18   -2.87    4.12   0
  -3  -3  18    4.54    5.44   0
  -3  -1  15  106.96    7.93   0
  -2  -4  17   12.67    3.77   0
  -2  -2  18   72.14    7.09   0
  -1  -3  18    6.76    5.32   0
   0  -4  17    3.96    2.95   0
   0  -2  18   49.67    6.31   0
   1  -3  18    1.33    3.92   0
   2  -4  17    1.23    2.59   0
   3  -1  15   78.69    8.13   0
   4  -2  17   -0.26    4.11   0
   5  -5  13    4.70    3.79   0
   5  -3  17   71.52    6.99   0
   6  -4  16   22.43    4.42   0
   8  -4  15    4.37    3.55   0
  10  -4  14   26.73    5.44   0
  -6  -2  16  230.26   11.47   0
  -5  -3  17  200.39   11.69   0
  -4  -2  17    8.51    4.78   0
  -2  -2  17    0.07    5.41   0
  -1  -1  15  204.45   10.41   0
   0  -2  17   28.59    6.43   0
   1  -1  15  235.58   11.71   0
   2  -2  17   36.76    5.85   0
   3  -3  17   60.94    6.94   0
   4  -4  16   22.86    4.00   0
   6  -2  16  121.86    9.17   0
   7  -5  12   -0.09    2.73   0
   7  -5  12   -0.39    1.83   0
   7  -3  16    4.75    3.75   0
   9  -3  15   54.64    6.47   0
  -4  -2  16  271.05   12.30   0
  -3  -3  17  221.27   11.27   0
  -1  -3  17   95.48    8.85   0
  -1  -1  14    0.10    3.33   0
   0  -4  16   20.06    4.34   0
   1  -3  17   32.54    5.69   0
   1  -1  14    1.88    4.39   0
   2  -4  16   14.62    3.70   0
   3  -1  14    2.74    3.89   0
   4  -2  16   91.19    7.86   0
   5  -3  16    8.11    5.05   0
   6  -4  15    2.14    2.94   0
   8  -4  14   29.07    4.76   0
   9  -5  11    2.10    2.28   0
   9  -5  11    0.23    1.96   0
  12  -4  12   24.17    5.34   0
  -6  -2  15   36.43    5.00   0
  -2  -2  16  223.63   11.11   0
   0  -2  16   99.74    8.00   0
   2  -2  16   40.98    5.99   0
   3  -3  16   -0.39    5.39   0
   4  -4  15    3.48    2.97   0
   5  -5  12   -1.24    3.05   0
   6  -2  15    2.12    4.19   0
   7  -5  11    5.30    4.50   0
   7  -3  15   73.01    6.77   0
  10  -4  13    4.95    3.01   0
  -4  -2  15   23.73    4.86   0
  -3  -3  16   63.72    7.25   0
  -1  -3  16   13.61    5.10   0
   0  -4  15    3.10    3.17   0
   1  -3  16    4.00    4.46   0
   1  -1  13  431.33   16.41   0
   2  -4  15    1.99    3.33   0
   3  -1  13  197.85   11.13   0
   4  -2  15   19.45    4.87   0
   5  -3  15  105.82    8.69   0
   6  -4  14   41.09    4.99   0
   8  -4  13    5.23    3.80   0
   9  -5  10   -0.96    2.96   0
   9  -3  14    1.03    3.42   0
  11  -5   9    1.37    2.40   0
  11  -5   9    1.61    2.22   0
  -4  -2  14  156.66   10.43   0
  -3  -3  15  361.75   14.99   0
  -2  -2  15   15.98    4.96   0
   0  -2  15    6.36    4.43   0
   2  -4  14   37.30    5.76   0
   2  -2  15    0.00    4.19   0
   3  -3  15   64.39    6.76   0
   4  -4  14   41.52    5.32   0
   5  -5  11    7.82    3.32   0
   6  -2  14   88.06    7.71   0
   7  -5  10    1.15    4.03   0
   7  -3  14    3.03    4.08   0
  10  -4  12   27.82    4.29   0
  12  -4  11    2.58    3.16   0
  -2  -2  14  193.75   10.40   0
  -1  -3  15  224.31   11.36   0
   0  -4  14   41.68    5.64   0
   0  -2  14  183.40   10.84   0
   1  -3  15   39.56    6.27   0
   2  -2  14   56.08    7.27   0
   4  -2  14   37.37    6.05   0
   5  -5  10    2.16    3.12   0
   5  -3  14    9.09    5.91   0
   6  -4  13    2.47    3.39   0
   8  -4  12   30.09    5.19   0
   9  -5   9    9.18    3.85   0
   9  -3  13   87.77    7.19   0
  11  -5   8    0.41    2.40   0
  11  -5   8    1.24    2.29   0
  13  -5   7    6.72    2.78   0
  13  -5   7    3.05    2.37   0
  14  -4   9    1.08    3.49   0
  -4  -2  13    6.27    3.75   0
  -3  -3  14  211.22   11.33   0
  -1  -3  14  120.71    9.31   0
   0  -4  13    3.25    4.82   0
   1  -3  14    3.26    6.76   0
   2  -4  13   -0.22    3.73   0
   3  -3  14    6.49    4.81   0
   4  -4  13    1.62    3.74   0
   6  -2  13    8.73    4.78   0
   7  -5   9   11.71    4.22   0
   7  -3  13  130.19    8.93   0
  10  -4  11    2.26    3.16   0
  12  -4  10   32.70    4.79   0
  15  -5   5    4.08    2.43   0
  15  -5   5    1.43    2.28   0
  -2  -2  13   13.14    3.78   0
   0  -2  13   39.21    6.88   0
   2  -2  13    0.97    4.19   0
   4  -4  12   58.21    6.98   0
   4  -2  13   13.72    4.91   0
   5  -5   9   18.88    4.16   0
   5  -3  13  121.94    9.88   0
   6  -4  12   34.50    5.47   0
   8  -4  11    3.55    5.03   0
   9  -5   8    3.06    3.51   0
   9  -3  12    4.37    4.22   0
  11  -5   7   20.28    4.58   0
  11  -3  11   61.88    6.78   0
  13  -5   6    2.23    3.44   0
  -3  -3  13  294.45   13.05   0
  -1  -3  13  326.93   13.89   0
   0  -4  12   66.21    6.97   0
   1  -3  13   53.00    6.74   0
   2  -4  12   30.41    5.43   0
   3  -3  13   33.84    6.26   0
   6  -2  12  157.50   10.00   0
   7  -5   8    0.47    3.14   0
   7  -3  12    4.10    4.73   0
  10  -4  10   44.99    5.46   0
  12  -4   9    3.16    3.50   0
  14  -4   8   29.26    4.77   0
  15  -5   4    0.53    3.23   0
  -2  -2  12  526.42   16.77   0
   0  -2  12  297.96   12.72   0
   2  -2  12  152.40    9.31   0
   4  -2  12  164.89   10.05   0
   5  -5   8    1.54    3.01   0
   5  -3  12    4.04    4.89   0
   6  -4  11    9.73    4.07   0
   9  -5   7   29.48    4.93   0
   9  -3  11  121.77    8.83   0
  11  -5   6    2.02    3.86   0
  11  -3  10    4.74    4.29   0
  13  -5   5   17.22    4.94   0
  17  -5   2    0.99    2.24   0
  17  -5   2    1.55    2.00   0
 -27  -1  27   18.55    7.01   0
 -26   0  23   -0.15    6.80   0
 -25  -1  28   -0.97    6.67   0
 -24   0  25    0.18    6.06   0
 -22   0  26  114.78   11.27   0
 -20   0  26   65.83   10.75   0
 -19   1  19  257.75   15.97   0
 -19   1  20    2.47    7.61   0
 -18   0  26   15.22    8.96   0
 -17   1  20   15.23    7.96   0
 -15   1  20   23.66    8.16   0
 -13   1  20   16.87    7.99   0
 -11   1  19   59.46    9.78   0
 -27  -1  26   -3.15    4.30   0
 -26  -2  28    0.96    4.01   0
 -26   0  22   77.98   10.17   0
 -25  -1  27   20.97    6.93   0
 -24   0  24  138.10   11.72   0
 -23  -1  28    0.00    5.68   0
 -22  -2  29    0.65    3.46   0
 -22   0  25    1.55    6.19   0
 -21  -1  28   10.85    6.32   0
 -19   1  16   11.93    6.99   0
 -19   1  17  298.16   16.76   0
 -19   1  18   83.00   10.34   0
 -17   1  18   10.84    8.65   0
 -17   1  19  191.07   13.81   0
 -15   1  19  150.08   12.49   0
 -13   1  18   17.05    7.99   0
 -13   1  19   36.18    8.20   0
 -11   1  18    4.37    6.09   0
 -28  -2  26    8.43    4.84   0
 -28  -2  26    3.66    4.54   0
 -27  -1  25   28.03    5.84   0
 -24  -2  28   21.96    6.42   0
 -24   0  23   -2.75    5.91   0
 -22   0  24  210.56   13.81   0
 -20   0  25   -2.90    6.27   0
 -18   0  25   -2.92    6.16   0
 -17   1  14   10.38    7.31   0
 -17   1  15  658.85   23.11   0
 -17   1  16    3.70    6.08   0
 -17   1  17  262.69   15.33   0
 -16   0  25    6.27    6.08   0
 -15   1  17  234.25   14.30   0
 -15   1  18    7.76    6.28   0
 -13   1  17   93.61    9.91   0
 -11   1  16   33.42    8.11   0
 -11   1  17  151.52   12.30   0
  -9   1  16   -0.69    5.13   0
 -28  -2  25    0.52    3.49   0
 -28  -2  25   -0.13    3.55   0
 -27  -1  24    5.87    5.78   0
 -26  -2  27    1.23    5.40   0
 -25  -1  26   -4.41    4.09   0
 -24   0  21    0.77    7.42   0
 -24   0  22   51.17    8.09   0
 -23  -1  27   47.47    6.96   0
 -22  -2  28   26.22    7.26   0
 -22   0  23   -3.44    6.25   0
 -21  -1  27  106.48    9.38   0
 -20   0  24  313.12   15.87   0
 -19  -1  27  105.81   10.43   0
 -18   0  24   87.64   10.56   0
 -16   0  24  118.18   11.02   0
 -15   1  13  431.31   18.23   0
 -15   1  14   23.06    6.21   0
 -15   1  15  322.81   15.98   0
 -15   1  16    0.22    5.29   0
 -13   1  15  196.92   12.75   0
 -13   1  16    8.79    5.70   0
 -11   1  15  246.03   14.14   0
 -27  -1  23   58.88    8.06   0
 -26  -2  26   31.49    7.75   0
 -25  -1  25   24.78    6.02   0
 -24  -2  27    2.84    5.75   0
 -24   0  20    8.10    5.59   0
 -23  -1  26   -0.72    4.61   0
 -22   0  22  265.94   14.91   0
 -20  -2  28   31.65    7.12   0
 -20   0  23   -2.86    6.56   0
 -18   0  23    2.08    7.80   0
 -16   0  23   -2.23    6.12   0
 -13   1  14   44.12    6.86   0
 -25  -1  24   -1.51    4.75   0
 -23  -1  25   30.10    7.63   0
 -22  -2  27   -2.83    5.85   0
 -22   0  20   35.56    8.29   0
 -22   0  21    0.07    5.78   0
 -21  -1  26   11.45    5.46   0
 -20   0  22  602.11   20.51   0
 -19  -1  26    6.42    4.93   0
 -18   0  22  247.15   14.73   0
 -17  -1  26    2.72    5.04   0
 -14   0  22  159.31   12.67   0
 -26  -2  25    0.08    4.27   0
 -25  -3  25   14.92    3.74   0
 -25  -3  25    7.48    3.54   0
 -25  -1  23   48.94    7.15   0
 -24  -2  26   49.28    7.19   0
 -23  -3  26    1.27    2.62   0
 -23  -3  26   -1.05    2.47   0
 -22   0  18  106.31   10.61   0
 -22   0  19    2.59    5.09   0
 -21  -1  25  116.02   10.35   0
 -20  -2  27    0.15    4.45   0
 -20   0  21    1.90    6.13   0
 -16   0  22  112.45   10.31   0
 -26  -2  24   17.47    4.30   0
 -25  -1  22    0.13    4.67   0
 -24  -2  25    4.15    4.65   0
 -23  -1  24    1.62    5.09   0
 -22  -2  26   45.82    6.45   0
 -21  -3  26    2.92    4.89   0
 -20   0  19    0.09    6.85   0
 -20   0  20  278.37   14.20   0
 -19  -1  25  154.70   10.67   0
 -18   0  20  267.42   14.65   0
 -18   0  21   -0.16    5.64   0
 -17  -1  25  132.65   10.22   0
 -16   0  21   -2.83    5.38   0
 -14   0  21   -0.65    5.24   0
 -26  -2  23   -1.42    3.67   0
 -25  -3  24   -0.02    4.25   0
 -25  -1  21   55.63    7.37   0
 -23  -3  25   34.80    6.15   0
 -23  -1  23   26.64    6.14   0
 -21  -1  24    1.23    5.05   0
 -20  -2  26   45.51    6.35   0
 -20   0  17   -0.78    6.31   0
 -20   0  18  189.47   11.65   0
 -19  -3  26    2.84    3.05   0
 -19  -3  26    0.40    2.94   0
 -19  -1  24   11.74    7.21   0
 -18  -2  26   73.00    7.49   0
 -18   0  19    0.55    6.88   0
 -17  -1  24   17.41    7.04   0
 -16   0  20  330.09   14.93   0
 -14   0  20  199.89   12.15   0
 -12   0  20   75.26    8.32   0
 -26  -2  22   18.79    4.81   0
 -25  -3  23   24.18    6.47   0
 -24  -2  24   31.99    5.59   0
 -23  -1  22    1.36    5.02   0
 -22  -2  25    0.21    3.95   0
 -21  -1  23   74.99    8.34   0
 -20   0  16  225.34   12.75   0
 -18   0  18  480.87   17.19   0
 -16   0  19    6.44    5.31   0
 -14   0  19    3.53    5.19   0
 -12   0  19   -0.41    4.90   0
 -24  -2  23    0.98    3.98   0
 -23  -3  24    0.40    4.72   0
 -23  -1  20    1.00    6.45   0
 -23  -1  21   64.11    7.81   0
 -22  -2  24   47.45    7.12   0
 -21  -3  25   18.71    5.25   0
 -21  -1  22    0.06    5.22   0
 -20  -2  25    1.36    4.13   0
 -19  -3  25   23.42    6.94   0
 -19  -1  23   87.03    8.73   0
 -18  -2  25    1.96    4.20   0
 -18   0  16  251.77   13.40   0
 -18   0  17   -1.88    5.11   0
 -17  -1  23   74.15    8.38   0
 -16   0  18  703.22   20.49   0
 -15  -1  23  103.61    9.26   0
 -14   0  18  451.51   16.76   0
 -12   0  18  290.80   13.82   0
 -25  -3  22    0.08    3.79   0
 -24  -2  22   21.84    5.28   0
 -23  -1  19   98.04    8.94   0
 -21  -3  24    5.00    4.85   0
 -21  -1  21  152.31   10.91   0
 -20  -2  24   60.69    7.12   0
 -19  -1  22   16.87    6.18   0
 -18   0  15    3.58    4.42   0
 -17  -1  22   37.25    7.64   0
 -16   0  16  605.39   19.39   0
 -16   0  17   -0.40    5.02   0
 -14   0  17    1.89    4.60   0
 -12   0  17   -1.71    3.56   0
 -25  -3  21   31.63    5.52   0
 -24  -2  21    0.37    5.35   0
 -23  -3  23   49.81    6.24   0
 -22  -2  23    2.17    4.43   0
 -21  -1  20    1.39    5.31   0
 -19  -3  24    5.67    4.89   0
 -19  -1  21  146.23   10.46   0
 -18  -4  23    0.81    2.21   0
 -18  -4  23   -0.51    2.19   0
 -18  -2  24   71.44    7.70   0
 -16  -2  24   58.13    7.23   0
 -16   0  15    2.11    4.39   0
 -15  -1  22    8.88    5.72   0
 -14   0  16   50.00    6.83   0
 -12   0  16   43.83    7.38   0
 -24  -2  20   46.59    6.55   0
 -23  -3  22    2.95    4.07   0
 -22  -4  21    0.11    2.42   0
 -22  -4  21    0.10    2.34   0
 -22  -2  22   56.87    7.07   0
 -21  -3  23   36.53    5.68   0
 -21  -1  19  335.24   14.66   0
 -20  -4  22    4.33    3.09   0
 -20  -4  22    3.96    2.80   0
 -20  -2  23    2.91    4.67   0
 -19  -1  20    2.26    5.58   0
 -18  -2  23   -0.54    6.38   0
 -17  -3  24    1.71    3.81   0
 -17  -1  21   70.50    8.35   0
 -16   0  14  228.58   12.06   0
 -15  -1  21  156.94   10.96   0
 -14   0  15    0.68    4.33   0
 -13  -1  21   93.64    8.90   0
 -24  -2  19    6.66    5.02   0
 -23  -3  21   61.91    7.60   0
 -22  -4  20   24.41    6.10   0
 -22  -2  21    0.33    4.89   0
 -21  -1  17  182.97   11.64   0
 -21  -1  18   36.95    7.24   0
 -20  -2  22   83.66    8.08   0
 -19  -3  23   49.45    6.40   0
 -19  -1  19  207.57   11.82   0
 -18  -4  22   14.85    4.59   0
 -17  -1  20   14.67    6.16   0
 -16  -2  23    9.45    5.53   0
 -15  -1  20   12.85    7.39   0
 -13  -1  20   23.05    7.41   0
 -23  -3  20    5.53    5.29   0
 -22  -2  20   97.88    8.69   0
 -21  -3  22    0.06    4.13   0
 -20  -4  21   -1.04    3.98   0
 -20  -2  21    6.13    6.59   0
 -19  -1  18   74.70    8.35   0
 -18  -2  22  112.45    9.29   0
 -17  -3  23   58.04    6.74   0
 -17  -1  19  155.17   10.88   0
 -16  -4  22   14.96    4.96   0
 -16  -2  22  128.15   10.89   0
 -15  -3  23   43.10    6.41   0
 -14  -2  22   82.05    9.64   0
 -23  -3  19   59.45    7.67   0
 -22  -4  19    0.97    3.97   0
 -22  -2  19   25.45    6.20   0
 -21  -3  21   39.66    6.27   0
 -20  -4  20   25.24    6.06   0
 -19  -3  22    0.59    4.54   0
 -19  -1  17  265.02   13.43   0
 -18  -4  21    2.02    4.28   0
 -18  -2  21    3.06    7.09   0
 -17  -3  22    2.85    6.16   0
 -17  -1  18    2.57    7.77   0
 -15  -1  19  130.04   10.25   0
 -13  -1  19   43.46    7.04   0
 -23  -3  18    3.09    5.85   0
 -22  -4  18   32.57    5.33   0
 -22  -2  18  118.92    9.79   0
 -21  -3  20    1.13    5.88   0
 -20  -2  20  102.29    8.92   0
 -19  -3  21   41.72    7.61   0
 -19  -1  16   19.14    6.15   0
 -17  -1  17  246.05   13.89   0
 -16  -4  21    3.61    4.41   0
 -16  -2  21    8.80    5.97   0
 -15  -3  22    0.70    4.96   0
 -15  -1  18    3.58    6.01   0
 -14  -4  21    2.72    4.05   0
 -14  -2  21    6.68    5.67   0
 -13  -1  18   16.69    7.07   0
 -11  -1  18   -1.01    6.97   0
 -22  -4  17    1.79    3.45   0
 -22  -2  17   10.07    5.76   0
 -21  -3  19   49.66    8.11   0
 -20  -4  19    4.69    4.02   0
 -20  -2  19    5.24    6.13   0
 -19  -1  15  322.63   14.67   0
 -18  -4  20   23.17    5.56   0
 -18  -2  20   80.76    8.52   0
 -17  -3  21  105.92    9.06   0
 -17  -1  16    2.29    7.65   0
 -16  -2  20  132.33   11.38   0
 -15  -1  17  256.84   13.88   0
 -21  -3  18   -2.16    6.77   0
 -20  -4  18   32.37    5.15   0
 -20  -2  18  109.05    9.83   0
 -19  -3  20    4.60    5.20   0
 -18  -4  19    1.50    4.93   0
 -18  -2  19   25.18    7.10   0
 -17  -5  16    1.00    2.40   0
 -17  -5  16    0.71    2.24   0
 -17  -1  15  721.95   21.43   0
 -16  -4  20   26.33    5.23   0
 -15  -5  17    0.53    2.79   0
 -15  -5  17    0.35    2.50   0
 -15  -3  21  103.18    8.95   0
 -15  -1  16    2.66    7.13   0
 -14  -4  20   29.39    6.06   0
 -14  -2  20   95.33    9.27   0
 -13  -1  17  122.18    9.75   0
 -11  -1  17  230.77   12.68   0
 -21  -3  17   67.80    9.41   0
 -20  -4  17    2.15    4.57   0
 -20  -2  17   -2.12    6.14   0
 -19  -3  19   36.09    6.92   0
 -18  -2  18  103.13    9.54   0
 -17  -5  15   12.58    5.63   0
 -17  -3  20    1.05    5.74   0
 -17  -1  14    9.42    6.08   0
 -16  -4  19    4.80    6.11   0
 -16  -2  19   15.48    6.95   0
 -15  -3  20    1.24    7.49   0
 -15  -1  15  324.13   15.13   0
 -14  -2  19    1.79    7.03   0
 -13  -5  17    2.88    2.94   0
 -13  -5  17   -0.85    2.60   0
 -13  -1  16    8.82    6.06   0
 -11  -1  16   40.53    8.18   0
 -21  -3  16   12.69    7.52   0
 -20  -4  16   34.14    6.26   0
 -20  -2  15   38.22    9.37   0
 -20  -2  16   94.14    9.45   0
 -19  -3  18    5.48    5.89   0
 -18  -4  18   32.63    5.35   0
 -18  -2  17   16.89    8.63   0
 -17  -3  19   98.86    9.51   0
 -16  -2  18  163.94   12.60   0
 -15  -5  16    1.41    4.00   0
 -14  -4  19    2.92    4.30   0
 -13  -3  20    2.53    5.68   0
 -13  -1  15  226.83   13.50   0
 -12  -4  19   -2.75    5.25   0
 -12  -2  19   11.05    7.06   0
 -20  -4  15    3.73    5.13   0
 -19  -3  17   50.90    9.09   0
 -18  -4  17    0.33    4.30   0
 -18  -2  16  114.03   11.29   0
 -17  -5  14    1.31    4.02   0
 -16  -4  18   62.12    6.81   0
 -15  -5  15   11.81    5.72   0
 -15  -3  19  167.10   11.30   0
 -15  -1  13  575.28   19.46   0
 -15  -1  14   19.98    6.57   0
 -14  -2  18   97.43    9.85   0
 -13  -5  16    0.63    4.14   0
 -13  -3  19  109.20   11.11   0
 -12  -2  18   43.77    9.31   0
 -11  -5  16    1.10    5.13   0
 -11  -1  15  360.20   15.14   0
 -19  -3  16    1.81    6.69   0
 -18  -4  16   47.88    7.24   0
 -18  -2  15   12.11    8.10   0
 -17  -5  13   17.21    5.18   0
 -17  -3  18    2.78    6.63   0
 -16  -4  17    6.16    6.24   0
 -16  -2  17   45.04    8.14   0
 -15  -3  18    7.92    8.17   0
 -14  -4  18   49.83    6.98   0
 -14  -2  17   -2.12    7.31   0
 -13  -1  14   53.81    7.60   0
 -12  -4  18   47.21    7.51   0
 -19  -3  15   58.93    9.89   0
 -18  -4  15    2.79    5.92   0
 -18  -2  14  220.61   13.77   0
 -17  -5  12   -0.53    3.84   0
 -17  -3  17  105.38    9.88   0
 -16  -2  16  168.74   11.38   0
 -15  -5  14    3.56    4.52   0
 -14  -4  17    2.59    7.21   0
 -13  -5  15    4.72    4.84   0
 -13  -3  18    8.88    6.46   0
 -12  -2  17   14.25    6.55   0
 -11  -5  15   11.65    5.03   0
 -11  -3  18   14.34    8.37   0
 -10  -2  17    7.69    6.28   0
 -19  -3  14    7.37    7.67   0
 -18  -4  14   40.72    7.65   0
 -17  -3  16    0.03    6.73   0
 -16  -4  16   60.12    7.43   0
 -16  -2  15   36.84    7.93   0
 -15  -5  13   29.52    6.03   0
 -15  -3  17  164.38   11.63   0
 -14  -2  16  193.67   12.35   0
 -13  -5  14    2.73    4.96   0
 -12  -4  17    1.46    4.91   0
 -12  -2  16  103.77   11.48   0
 -10  -4  17    5.47    4.74   0
 -18  -4  13    1.56    6.00   0
 -17  -3  15   99.70   10.12   0
 -16  -4  15   -0.33    5.27   0
 -16  -2  14  159.31   11.68   0
 -15  -5  12    2.27    4.43   0
 -15  -3  16   -2.21    8.69   0
 -14  -4  16   62.62    7.66   0
 -14  -2  15   16.37    7.05   0
 -13  -5  13   21.96    7.01   0
 -13  -3  17  103.80    9.99   0
 -11  -5  14   -0.13    4.14   0
 -11  -3  17   45.09    8.82   0
 -10  -2  16  118.60   10.43   0
  -9  -5  14    4.55    5.66   0
 -18  -4  12   39.43    6.50   0
 -17  -3  14   12.27    8.70   0
 -16  -4  14   52.26    7.38   0
 -16  -2  13    2.76    6.15   0
 -15  -5  11   31.85    5.92   0
 -14  -4  15    1.97    7.04   0
 -14  -2  14  376.91   17.01   0
 -13  -3  16    6.99    7.07   0
 -12  -4  16   58.29    7.67   0
 -12  -2  15   41.68    7.89   0
 -11  -5  13   14.39    6.53   0
 -10  -4  16   51.14    7.63   0
 -10  -2  15    5.29    7.60   0
 -17  -3  13   77.43   10.85   0
 -16  -4  13    5.22    6.93   0
 -16  -2  12  272.16   13.90   0
 -15  -5  10    0.69    3.75   0
 -15  -3  15  166.75   11.80   0
 -13  -5  12    7.18    4.24   0
 -12  -4  15    2.57    5.67   0
 -11  -3  16    8.12    7.17   0
  -9  -5  13   10.73    4.78   0
  -9  -3  16   15.43    7.07   0
  -7  -5  13   24.37    6.14   0
 -17  -3  12   29.49    7.31   0
 -16  -4  12   63.67    8.98   0
 -15  -5   9   35.80    6.44   0
 -15  -3  14   10.24    6.96   0
 -14  -4  14   66.77    7.75   0
 -14  -2  13    1.06    6.35   0
 -13  -5  11   38.71    6.72   0
 -13  -3  15  160.24   12.03   0
 -12  -2  14  322.26   15.07   0
 -11  -5  12   -4.82    4.23   0
 -11  -3  15   60.95   10.49   0
 -10  -4  15    2.32    5.84   0
 -10  -2  14  224.66   13.10   0
  -8  -4  15   -5.51    5.75   0
  -8  -2  14  294.56   15.54   0
 -16  -4  11    5.59    5.29   0
 -15  -3  13  110.03   10.39   0
 -14  -4  13    3.04    5.91   0
 -14  -2  12  307.98   14.41   0
 -13  -5  10    5.70    4.26   0
 -13  -3  14   11.86    7.32   0
 -12  -4  14   50.49    7.93   0
 -12  -2  13   11.69    6.41   0
 -11  -5  11   36.66    6.45   0
 -10  -4  14   31.05    8.52   0
  -9  -5  12    3.88    4.34   0
  -9  -3  15   38.25    8.00   0
  -7  -5  12    1.95    4.44   0
 -16  -4  10   64.30    8.13   0
 -15  -3  12   52.55    8.41   0
 -14  -4  12  116.60    9.56   0
 -14  -2  11   10.33    5.92   0
 -13  -5   9   50.86    6.82   0
 -13  -3  13  160.19   12.28   0
 -12  -4  13    2.85    5.98   0
 -12  -2  12  400.53   17.07   0
 -11  -5  10    4.08    5.81   0
 -11  -3  14   26.27    8.09   0
 -10  -2  13    2.94    5.68   0
  -9  -5  11   21.23    5.94   0
  -9  -3  14    9.51    8.89   0
  -8  -4  14   75.57    8.81   0
  -8  -2  13    4.98    6.33   0
  -6  -6   5    2.70    2.72   0
 -15  -3  11   93.74   10.20   0
 -14  -4  11   13.13    6.22   0
 -14  -2  10  569.57   19.36   0
 -13  -5   7   42.08    7.72   0
 -13  -5   8    3.45    4.22   0
 -12  -4  12   78.75    9.98   0
 -11  -5   9   44.31    7.65   0
 -11  -3  13   77.43   10.74   0
 -10  -4  13    2.29    6.20   0
 -10  -2  12   76.38    9.53   0
  -9  -5  10   -1.38    6.05   0
  -8  -4  13    4.85    7.46   0
  -7  -5  11   36.09    6.37   0
  -6  -6   3    3.07    5.19   0
  -6  -6   4    2.44    2.84   0
  -6  -6   4    0.10    2.83   0
  -5  -5  11   37.72    6.53   0
  -4  -6   5    1.30    2.70   0
  -4  -6   5    0.27    2.51   0
 -15  -3  10   11.32    7.47   0
 -14  -4  10  123.46   10.36   0
 -13  -5   6    1.27    4.41   0
 -13  -3  12   12.11    7.30   0
 -12  -2  11    6.06    5.42   0
 -11  -5   8    5.99    5.79   0
 -10  -4  12   44.33    8.97   0
  -9  -3  13   99.34    9.99   0
  -8  -2  12  288.69   14.25   0
  -7  -5  10    2.50    5.02   0
  -7  -3  13  111.44   11.97   0
  -6  -6   2    0.55    2.65   0
  -6  -6   2    0.59    2.57   0
  -5  -5  10    9.49    6.14   0
  -4  -6   4    3.51    3.36   0
  -4  -6   4    0.49    2.98   0
  -2  -6   4    5.60    3.66   0
  -2  -6   4    1.94    3.28   0
 -14  -4   9   14.58    6.19   0
 -13  -3  11  214.21   12.84   0
 -12  -4  11   12.71    6.57   0
 -12  -2  10  369.38   15.88   0
 -11  -5   7   35.37    6.55   0
 -11  -3  12   32.35    7.91   0
  -9  -5   9   40.03    6.48   0
  -8  -4  12   65.32    8.87   0
  -7  -5   9   61.63    8.25   0
  -6  -4  12  121.56   10.53   0
  -4  -6   2    4.40    5.73   0
  -4  -6   3    3.98    3.07   0
  -4  -6   3   -0.52    2.79   0
  -2  -6   3    0.89    4.07   0
  -2  -6   3    0.84    2.66   0
   0  -6   3   -0.93    3.62   0
   0  -6   3    1.95    2.74   0
 -14  -4   8   76.59    8.50   0
 -13  -3  10   16.51    6.98   0
 -12  -4  10   63.09    8.27   0
 -11  -5   6    0.56    4.74   0
 -11  -3  11   71.88    9.92   0
 -10  -4  11   11.93    6.19   0
  -9  -5   8    3.89    5.01   0
  -9  -3  12   12.75    6.40   0
  -8  -4  11   22.18    8.33   0
  -7  -3  12   25.91    8.77   0
  -5  -5   9   82.21    8.65   0
  -4  -6   1    1.49    2.81   0
  -4  -6   1    0.66    2.62   0
  -2  -6   2    9.47    5.56   0
 -13  -3   9  190.65   12.43   0
 -12  -4   9   -0.38    5.60   0
 -11  -5   4   -1.20    4.02   0
 -11  -5   5   18.99    5.33   0
 -10  -4  10    8.89    5.93   0
  -9  -5   7   16.75    5.39   0
  -9  -3  11  150.45   11.88   0
  -7  -5   8   -1.19    4.95   0
  -6  -4  11   -2.99    5.65   0
  -5  -5   8    0.17    6.15   0
  -4  -6  -1    0.28    2.85   0
  -4  -6  -1    0.26    2.47   0
  -4  -6   0    1.68    2.65   0
  -4  -6   0    0.47    2.69   0
  -3  -5   8   10.68    6.25   0
  -2  -6   1   -0.63    2.82   0
  -2  -6   1   -0.11    2.81   0
   0  -6   2   11.13    4.74   0
   2  -6   1   -1.29    4.76   0
 -13  -3   8    2.39    5.71   0
 -12  -4   8   62.54    8.08   0
 -11  -3  10    4.83    5.91   0
 -10  -4   9    2.05    5.43   0
  -9  -5   5   12.54    6.32   0
  -9  -5   6    4.59    4.80   0
  -8  -4  10   36.63    7.36   0
  -7  -5   7   22.39    5.95   0
  -7  -3  11  322.84   15.16   0
  -6  -4  10   41.33    8.29   0
  -5  -3  11  181.09   13.03   0
  -2  -6  -1    3.39    4.80   0
  -2  -6   0    2.51    4.21   0
   0  -6   0    6.63    5.68   0
   0  -6   1   -0.86    2.88   0
   0  -6   1   -0.18    2.75   0
 -12  -4   6  114.66    9.53   0
 -12  -4   7    5.55    5.45   0
 -11  -3   9  123.59   10.05   0
 -10  -4   8    1.01    7.12   0
  -9  -5   4    5.48    4.53   0
  -9  -3  10    3.95    4.48   0
  -8  -4   9    1.58    7.17   0
  -7  -5   6    0.64    4.91   0
  -5  -5   7   51.26    6.58   0
  -4  -4  10   62.39    7.66   0
  -3  -5   7   58.08    7.59   0
  -2  -6  -3   -0.40    2.71   0
  -2  -6  -3    0.94    2.51   0
  -2  -6  -2    5.70    3.09   0
  -2  -6  -2    2.54    2.87   0
   0  -6  -1    1.55    3.93   0
   0  -6  -1    1.66    2.76   0
   2  -6   0    2.85    2.83   0
   2  -6   0    1.91    2.66   0
   4  -6  -1    0.82    2.42   0
   4  -6  -1    0.44    2.35   0
 -12  -4   5    3.20    5.60   0
 -11  -3   8    2.46    5.18   0
 -10  -4   7   12.24    6.61   0
  -9  -5   2    4.42    5.00   0
  -9  -5   3   13.02    4.83   0
  -9  -3   9  176.92   12.19   0
  -7  -5   5   12.04    5.45   0
  -7  -3  10   40.67    7.19   0
  -6  -4   9    1.98    5.45   0
  -5  -5   6   -0.51    4.68   0
  -5  -3  10   60.32    7.71   0
  -4  -4   9    1.37    6.62   0
  -3  -5   6   -0.79    5.74   0
  -1  -5   6    2.07    5.57   0
   0  -6  -4   13.70    5.47   0
   0  -6  -3    0.34    3.55   0
   0  -6  -3   -0.78    2.62   0
   0  -6  -2   10.55    4.76   0
   2  -6  -2    5.33    4.86   0
   2  -6  -1   -3.03    3.81   0
   4  -6  -2    0.07    2.68   0
   4  -6  -2    1.58    2.58   0
  -8  -4   8   24.77    6.29   0
  -7  -5   4    4.84    4.49   0
  -5  -5   5   39.27    6.14   0
   0  -6  -5    1.11    2.25   0
   0  -6  -5   -0.36    2.20   0
   2  -6  -3    0.61    2.54   0
   2  -6  -3   -0.15    2.47   0
   4  -6  -3   -0.68    2.56   0
   4  -6  -3   -0.75    2.44   0
 -29   3  16    0.96    3.02   0
 -29   3  17   23.94    5.17   0
 -27   3  12    2.13    3.14   0
 -25   3  10   -0.23    4.66   0
 -23   3   8    8.79    5.26   0
 -22   4  13    0.40    2.86   0
 -22   4  14   16.52    4.48   0
 -21   3   6    7.44    4.48   0
 -20   2   3    2.36    3.73   0
 -20   4  11    0.14    4.04   0
 -18   2   2  130.59    8.61   0
 -18   4   9    3.30    3.77   0
 -17   3   3   83.42    7.33   0
 -15   3   2    8.61    4.58   0
 -14   2   0  380.02   13.35   0
 -12   2  -1   67.67    5.95   0
 -11   3   1  275.01   11.64   0
 -29   3  18    2.16    3.50   0
 -29   3  19   24.42    5.13   0
 -27   3  13   13.74    3.64   0
 -22   4  15    1.01    3.05   0
 -22   4  16   13.97    4.33   0
 -20   4  12   23.31    4.54   0
 -19   3   5   57.87    6.44   0
 -18   4  10   55.63    6.25   0
 -17   3   4    3.08    4.06   0
 -16   2   1    2.66    3.53   0
 -15   3   3  285.54   12.15   0
 -13   3   2   15.15    4.77   0
 -29   3  20    2.84    3.28   0
 -29   3  21    7.60    2.87   0
 -29   3  21    2.81    2.56   0
 -27   3  14    0.13    2.81   0
 -27   3  15   14.30    4.43   0
 -25   3  11   31.16    4.93   0
 -23   3   9   48.34    5.81   0
 -22   4  17    0.96    3.09   0
 -21   3   7   58.55    5.99   0
 -20   2   4   27.10    4.99   0
 -20   4  13    1.09    3.02   0
 -20   4  14   20.25    4.75   0
 -19   3   6    2.45    5.06   0
 -18   2   3   -0.70    4.35   0
 -18   4  11    0.70    3.50   0
 -11   3   2   30.31    5.23   0
 -27   3  16    1.10    2.80   0
 -25   3  12    6.49    3.80   0
 -23   3  10   -1.13    3.94   0
 -21   3   8   10.99    4.15   0
 -17   3   5  163.79    9.17   0
 -16   2   2  164.65    9.12   0
 -15   3   4   19.72    4.93   0
 -14   2   1   14.48    4.03   0
 -13   3   3  373.39   13.40   0
 -27   3  17   33.52    4.54   0
 -27   3  18   -1.29    3.56   0
 -25   3  13    5.09    3.80   0
 -25   3  14    2.98    4.20   0
 -23   3  11   23.91    4.54   0
 -22   2   7    6.90    4.96   0
 -21   3   9   33.40    5.38   0
 -20   2   5   50.87    5.76   0
 -19   3   7  119.07    8.22   0
 -18   2   4   67.69    7.04   0
 -17   3   6    1.53    5.26   0
 -15   3   5  315.45   12.68   0
 -13   3   4    6.81    5.20   0
 -11   3   3  260.06   11.30   0
 -27   3  19   26.79    4.44   0
 -27   3  20    0.61    3.58   0
 -27   3  21   19.27    4.54   0
 -27   3  22    0.53    3.49   0
 -27   3  23    4.64    2.59   0
 -27   3  23    2.00    2.31   0
 -25   3  15   18.09    4.98   0
 -23   3  12    3.05    3.76   0
 -21   3  10    7.17    5.28   0
 -19   3   8   60.84    6.60   0
 -16   2   3    6.03    3.54   0
 -14   2   2  271.32   11.15   0
 -25   3  16    2.04    3.19   0
 -25   3  25    5.85    3.46   0
 -25   3  25    3.76    2.47   0
 -24   2  10   49.63    5.97   0
 -23   3  13   24.10    4.75   0
 -22   2   8   35.77    5.24   0
 -20   2   6  134.34    8.46   0
 -19   3   9  217.17   11.16   0
 -18   2   5    9.79    4.76   0
 -17   3   7  230.04   10.61   0
 -15   3   6    4.35    3.98   0
 -13   3   5  305.65   12.31   0
 -11   3   4   31.24    5.00   0
 -25   3  17   21.15    4.38   0
 -25   3  18   -0.76    3.09   0
 -25   3  19   25.63    4.89   0
 -25   3  24    3.04    2.29   0
 -25   3  24    1.07    2.23   0
 -23   3  14    1.88    3.88   0
 -21   3  11   45.91    5.67   0
 -20   2   7    7.70    5.15   0
 -17   3   8   50.74    5.87   0
 -16   2   4  130.57    8.18   0
 -15   3   7  218.27   10.71   0
 -14   2   3   -0.85    3.17   0
 -13   3   6   12.47    5.06   0
 -28   2  18   59.91    6.49   0
 -26   2  14   55.04    6.19   0
 -25   3  20   -1.89    3.06   0
 -25   3  21   19.82    4.16   0
 -25   3  22    3.35    3.82   0
 -25   3  23   20.01    4.61   0
 -24   2  11    0.20    3.72   0
 -23   3  15   52.94    5.87   0
 -23   3  16   12.79    5.13   0
 -22   2   9    7.38    4.02   0
 -21   3  12    0.79    4.25   0
 -21   3  13   75.10    7.73   0
 -19   3  10   16.49    5.10   0
 -18   2   6  236.29   10.89   0
 -17   3   9  144.29    9.51   0
 -28   2  19    1.71    3.18   0
 -28   2  20   17.43    4.74   0
 -28   2  26    5.16    3.10   0
 -28   2  26    3.25    2.52   0
 -26   2  15    2.16    3.69   0
 -24   2  12   78.60    7.11   0
 -23   3  17   50.26    5.81   0
 -23   3  24    2.42    5.02   0
 -23   3  25   23.01    4.65   0
 -22   2  10   48.15    5.94   0
 -21   3  14    6.41    5.66   0
 -20   2   8  255.43   11.25   0
 -19   3  11  175.69    9.63   0
 -17   3  10   10.26    5.16   0
 -16   2   5   11.01    3.98   0
 -15   3   8   14.40    4.55   0
 -14   2   4  281.47   11.38   0
 -13   3   7  200.57   10.33   0
 -28   2  21   -0.14    2.76   0
 -28   2  22   10.48    3.30   0
 -28   2  23    4.70    3.04   0
 -28   2  24   13.94    4.02   0
 -28   2  25    1.28    3.34   0
 -26   2  16   48.19    5.63   0
 -24   2  13    4.38    4.01   0
 -23   3  18    5.07    3.84   0
 -23   3  19   45.76    5.43   0
 -23   3  20    3.53    3.38   0
 -23   3  21   41.28    4.98   0
 -23   3  22    3.59    3.03   0
 -23   3  23   42.91    5.64   0
 -21   3  15   66.08    6.74   0
 -19   3  12    7.34    4.55   0
 -18   2   7   -0.67    3.65   0
 -15   3   9  110.70    8.13   0
 -13   3   8    5.50    4.91   0
 -26   2  17    1.43    3.55   0
 -24   2  14   82.45    7.18   0
 -22   2  11   35.71    5.47   0
 -21   3  16    7.46    4.14   0
 -21   3  17   54.62    6.79   0
 -21   3  24    1.36    4.18   0
 -20   2   9   20.96    5.05   0
 -19   3  13  116.59    8.10   0
 -19   3  14    4.44    5.19   0
 -17   3  11   82.48    7.33   0
 -16   2   6  334.61   12.72   0
 -15   3  10   10.57    4.45   0
 -14   2   5   22.42    4.55   0
 -13   3   9  183.18   10.50   0
 -26   2  18   28.66    5.04   0
 -26   2  19    0.10    3.35   0
 -26   2  26   17.79    5.47   0
 -26   2  27    1.11    3.34   0
 -24   2  15    5.05    4.18   0
 -22   2  12  129.05    8.60   0
 -21   3  18    0.65    3.73   0
 -21   3  19   43.72    5.51   0
 -21   3  20    3.61    3.45   0
 -21   3  21   31.88    4.74   0
 -21   3  22   -2.51    3.06   0
 -21   3  23   29.47    4.52   0
 -20   2  10  141.37    8.90   0
 -19   3  15   52.22    6.45   0
 -18   2   8  225.29   10.64   0
 -17   3  12   24.50    5.37   0
 -17   3  13   73.73    7.90   0
 -16   2   7   15.59    4.90   0
 -15   3  11   92.95    8.34   0
 -26   2  20   23.80    4.72   0
 -26   2  21    1.61    3.53   0
 -26   2  22   13.75    4.20   0
 -26   2  23    0.04    3.03   0
 -26   2  24   13.78    3.78   0
 -26   2  25    0.22    3.36   0
 -24   2  16   73.62    7.48   0
 -24   2  28    2.55    3.79   0
 -24   2  28    1.12    2.68   0
 -22   2  13   15.18    5.18   0
 -20   2  11    5.35    5.22   0
 -19   3  16    2.68    3.96   0
 -19   3  17   40.49    6.00   0
 -18   2   9   -0.10    3.84   0
 -17   3  14    8.10    4.66   0
 -15   3  12   47.78    6.87   0
 -14   2   6  472.06   15.07   0
 -24   2  17   13.96    4.90   0
 -24   2  18   67.95    7.90   0
 -24   2  27    1.43    4.87   0
 -22   2  14  166.40    9.77   0
 -22   2  29    0.90    2.25   0
 -22   2  29   -0.98    2.03   0
 -19   3  18    7.07    4.19   0
 -19   3  19   31.95    5.08   0
 -19   3  20    0.44    3.36   0
 -19   3  21   28.01    5.21   0
 -19   3  22    3.19    3.10   0
 -17   3  15   96.50    7.98   0
 -17   3  16    1.34    5.63   0
 -16   2   8  445.55   14.74   0
 -15   3  13   94.54    8.11   0
 -24   2  19   11.80    4.37   0
 -24   2  20   42.01    6.82   0
 -24   2  25    0.71    3.82   0
 -24   2  26   41.53    5.72   0
 -22   2  15    4.14    4.56   0
 -20   2  12  213.49   10.84   0
 -18   2  10  218.00   10.60   0
 -17   3  17   91.03    7.81   0
 -17   3  18    0.95    4.15   0
 -17   3  19   73.70    7.81   0
 -15   3  14    8.26    4.67   0
 -14   2   7   10.31    3.81   0
 -24   2  21   -0.24    4.07   0
 -24   2  22   21.44    4.84   0
 -24   2  23   -0.40    3.64   0
 -24   2  24   23.92    4.49   0
 -22   2  16  156.75    9.99   0
 -22   2  28   17.37    5.07   0
 -20   2  13   25.01    5.48   0
 -20   2  29    6.01    3.78   0
 -18   2  11   63.28    6.76   0
 -16   2   9    3.00    4.08   0
 -14   2   8 1014.28   22.79   0
 -25   1  29   16.71    4.80   0
 -22   2  17   13.08    5.01   0
 -22   2  18  112.08    8.74   0
 -22   2  26   40.88    5.83   0
 -22   2  27   -1.65    4.14   0
 -20   2  14  180.10   10.26   0
 -20   2  28   32.84    6.29   0
 -18   2  12  384.90   14.41   0
 -16   2  10  428.15   14.91   0
 -25   1  27   13.75    4.83   0
 -25   1  28    0.08    3.43   0
 -23   1  30    1.31    2.52   0
 -23   1  30    0.49    2.34   0
 -22   2  19   18.38    5.73   0
 -22   2  20   79.22    7.89   0
 -22   2  21    0.17    5.36   0
 -22   2  22   44.43    7.09   0
 -22   2  23   -0.90    4.92   0
 -22   2  24   41.36    5.54   0
 -22   2  25   -0.41    3.44   0
 -20   2  15   36.45    6.35   0
 -20   2  16  109.84    9.44   0
 -20   2  27    1.59    4.22   0
 -18   2  13   79.15    8.42   0
 -16   2  11   27.87    6.57   0
 -14   2   9    6.53    4.31   0
 -25   1  22   -1.31    4.86   0
 -25   1  23   39.71    6.59   0
 -25   1  24    1.69    4.50   0
 -25   1  25   14.63    5.06   0
 -25   1  26   -1.38    2.96   0
 -23   1  29   53.32    7.63   0
 -21   1  31    3.12    2.92   0
 -20   2  17    1.39    4.79   0
 -20   2  26   31.79    5.36   0
 -18   2  14  228.92   12.33   0
 -18   2  28   43.23    6.52   0
 -14   2  10  583.87   18.11   0
 -23   1  28    2.26    4.56   0
 -21   1  30    1.86    4.88   0
 -20   2  18   97.26    8.70   0
 -20   2  19    3.72    4.97   0
 -20   2  20   95.42    9.31   0
 -20   2  21    0.03    5.79   0
 -20   2  23   -2.92    5.45   0
 -20   2  24   54.23    6.45   0
 -20   2  25    1.43    3.61   0
 -19   1  31    3.95    3.88   0
 -19   1  31    1.92    2.59   0
 -18   2  15    6.34    5.03   0
 -18   2  27   -0.24    3.73   0
 -16   2  12  310.60   13.21   0
 -23   1  19   90.27    8.90   0
 -23   1  27   42.68    5.60   0
 -20   2  22   68.02    7.54   0
 -18   2  16  113.84    8.97   0
 -18   2  17   13.39    6.78   0
 -18   2  25    1.31    4.93   0
 -18   2  26   60.68    6.74   0
 -16   2  13    1.86    4.38   0
 -14   2  11   12.30    4.72   0
 -23   1  20    0.69    4.54   0
 -23   1  21   55.89    7.22   0
 -23   1  22    0.49    5.86   0
 -23   1  23   18.23    6.41   0
 -23   1  24    1.08    5.49   0
 -23   1  25   28.88    5.38   0
 -23   1  26   -0.65    3.58   0
 -21   1  16    4.50    5.74   0
 -21   1  29   52.69    6.75   0
 -19   1  13  231.87   12.36   0
 -19   1  30    2.64    4.31   0
 -18   2  18  102.26    8.84   0
 -18   2  19   23.36    7.25   0
 -18   2  20   68.21    8.51   0
 -18   2  22   95.07    9.56   0
 -18   2  23    5.66    5.47   0
 -18   2  24   64.65    7.13   0
 -17   1  31    5.68    3.45   0
 -17   1  31    2.34    2.90   0
 -16   2  14  169.37   10.65   0
 -16   2  15   35.57    7.23   0
 -16   2  26   51.37    6.41   0
 -14   2  12  335.16   13.99   0
 -12   2  10  382.84   14.96   0
 -22   0  30   12.38    4.58   0
 -21   1  17  174.18   11.00   0
 -21   1  28    5.37    3.69   0
 -18   2  21    3.50    4.87   0
 -17   1  11  308.92   13.69   0
 -16   2  16  182.61   10.88   0
 -16   2  24   59.00    7.83   0
 -16   2  25    1.33    3.81   0
 -14   2  13    3.19    4.82   0
 -12   2  11    9.43    4.28   0
 -22   0  29   -0.55    4.02   0
 -21   1  18   39.60    6.64   0
 -21   1  19  299.19   14.54   0
 -21   1  26   10.34    4.60   0
 -21   1  27   73.99    7.54   0
 -20   0  31   -0.53    2.45   0
 -20   0  31    0.29    2.62   0
 -19   1  14    0.72    4.50   0
 -19   1  29   34.97    5.97   0
 -17   1  12    3.51    5.67   0
 -17   1  30   -1.66    4.75   0
 -16   2  17   38.04    6.74   0
 -16   2  18  141.86    9.99   0
 -16   2  19    7.41    6.83   0
 -16   2  20   98.77    9.81   0
 -16   2  21    0.14    6.49   0
 -16   2  22  114.05    9.05   0
 -16   2  23   13.04    4.97   0
 -14   2  14  398.22   15.55   0
 -12   2  12  413.04   15.67   0
 -22   0  28   22.62    5.29   0
 -21   1  20    4.47    5.19   0
 -21   1  21  148.28   10.55   0
 -21   1  22    1.37    4.86   0
 -21   1  23   71.78    8.07   0
 -21   1  24    2.16    4.72   0
 -21   1  25   83.00    7.96   0
 -20   0  30   18.54    6.23   0
 -19   1  15  368.91   15.20   0
 -19   1  16   17.74    6.69   0
 -19   1  28   -1.56    3.68   0
 -17   1  29   41.89    6.38   0
 -15   1  30    1.00    4.34   0
 -14   2  15   16.07    5.35   0
 -14   2  16  203.47   11.87   0
 -14   2  23    4.02    5.85   0
 -12   2  13    7.70    4.82   0
 -22   0  27    1.38    3.46   0
 -19   1  17  249.57   12.97   0
 -19   1  26    0.70    5.50   0
 -19   1  27   81.60    7.79   0
 -18   0  31    0.69    4.20   0
 -17   1  13  544.88   18.28   0
 -17   1  28    0.90    4.94   0
 -15   1  29   29.86    5.46   0
 -14   2  17   -4.06    4.87   0
 -14   2  18   82.61    8.47   0
 -14   2  19    3.98    4.68   0
 -14   2  20   81.61    8.52   0
 -14   2  21    2.24    5.19   0
 -14   2  22   79.78    8.32   0
 -12   2  14  354.08   14.96   0
 -20   0  29   -1.63    3.47   0
 -19   1  18   76.65    8.40   0
 -19   1  19  202.33   12.06   0
 -19   1  20    3.72    6.51   0
 -19   1  23   88.47    9.55   0
 -19   1  24   20.63    5.81   0
 -19   1  25  138.94   10.33   0
 -18   0  30   26.57    6.24   0
 -17   1  14   12.23    5.20   0
 -17   1  27   78.13    8.52   0
 -16   0  31    4.91    4.29   0
 -13   1  29   19.08    5.30   0
 -12   2  15   35.02    6.42   0
 -12   2  16  104.34    9.12   0
 -12   2  17    7.94    6.18   0
 -20   0  28   15.61    4.41   0
 -19   1  21  137.60   10.21   0
 -19   1  22   19.17    5.96   0
 -17  -1  31    4.38    3.69   0
 -17   1  15  779.13   22.05   0
 -17   1  16   13.22    6.71   0
 -17   1  26    3.24    4.58   0
 -15   1  28    2.83    3.69   0
 -14   0  31   -0.06    2.93   0
 -14   0  31   -0.09    2.81   0
 -13   1  28   -1.23    4.65   0
 -12   2  18   28.12    6.26   0
 -20   0  26   47.69    7.32   0
 -20   0  27    1.95    3.72   0
 -18   0  29    0.89    3.42   0
 -17   1  17  261.82   13.27   0
 -17   1  18    8.13    6.80   0
 -17   1  24   15.60    7.12   0
 -17   1  25  127.54    9.95   0
 -16   0  30   37.43    6.44   0
 -15   1  13  638.53   20.16   0
 -15   1  27   68.69    7.43   0
 -12   0  31    0.74    2.63   0
 -12   0  31   -0.25    2.67   0
 -20   0  23   -6.61    6.62   0
 -20   0  24  220.75   13.00   0
 -20   0  25    0.13    4.36   0
 -18   0  28   19.90    5.21   0
 -17  -1  30    2.46    4.19   0
 -17   1  19  167.64   11.31   0
 -17   1  20    7.85    6.03   0
 -17   1  21   71.48    8.28   0
 -17   1  22   42.23    7.72   0
 -17   1  23   74.37    8.79   0
 -16   0  29   -0.48    5.28   0
 -15  -1  31    6.45    4.03   0
 -15  -1  31    2.80    3.37   0
 -15   1  14   27.39    5.98   0
 -15   1  25   93.45   10.32   0
 -15   1  26    0.96    4.75   0
 -14   0  30    9.40    5.34   0
 -13   1  27   30.78    5.97   0
 -18   0  27    1.98    4.32   0
 -15   1  15  371.71   15.65   0
 -15   1  16    1.20    6.01   0
 -15   1  23  118.24   10.86   0
 -15   1  24    6.09    5.34   0
 -13  -1  31    5.84    3.67   0
 -13  -1  31    1.67    3.22   0
 -13   1  26    8.16    5.10   0
 -12   0  30    0.72    5.08   0
 -11   1  27   29.49    5.91   0
 -10   0  30    5.63    5.35   0
 -18   0  25    0.58    6.29   0
 -18   0  26   17.58    5.46   0
 -17  -1  29   38.86    6.34   0
 -16   0  28   36.80    6.07   0
 -15  -1  30    0.25    4.27   0
 -15   1  17  229.96   13.06   0
 -15   1  18    2.48    5.66   0
 -15   1  19  118.56   10.13   0
 -15   1  20   16.18    6.20   0
 -15   1  21  156.30   11.14   0
 -15   1  22   14.24    6.22   0
 -14   0  29   -0.08    3.88   0
 -13   1  25   44.42    7.29   0
 -11   1  26   -0.46    4.97   0
 -18   0  20  262.61   14.24   0
 -18   0  21   -1.76    6.58   0
 -18   0  22  242.97   14.42   0
 -18   0  23    4.97    5.47   0
 -18   0  24   83.19    8.91   0
 -17  -1  28    1.64    3.69   0
 -16   0  27    0.82    4.34   0
 -14   0  28   23.39    5.36   0
 -13  -1  30   -1.93    4.61   0
 -13   1  14   53.74    7.19   0
 -13   1  15  244.45   13.89   0
 -13   1  23   48.61    7.88   0
 -13   1  24   12.12    6.02   0
 -12   0  29    0.97    3.54   0
 -11   1  25   25.03    5.96   0
 -10   0  29   -2.31    4.93   0
  -8   0  29   -1.38    5.07   0
 -17  -1  27   77.01    8.16   0
 -16   0  25   -3.07    6.53   0
 -16   0  26   29.03    6.53   0
 -15  -1  29   32.25    5.54   0
 -14   0  27   -2.19    5.64   0
 -13   1  16   10.86    5.36   0
 -13   1  17  120.24   10.89   0
 -13   1  18   17.11    6.44   0
 -13   1  19   41.98    7.88   0
 -13   1  20   20.82    7.70   0
 -13   1  21  106.08    9.86   0
 -13   1  22    2.23    6.05   0
 -12   0  28    6.58    5.70   0
 -11  -1  30    1.22    4.80   0
 -11   1  24   35.35    7.10   0
  -9  -1  30    2.88    4.41   0
  -9  -1  30   -1.20    3.07   0
  -7  -1  30    0.76    2.66   0
  -7  -1  30    0.90    2.56   0
 -16   0  24  116.40   10.37   0
 -15  -1  28   -0.26    3.78   0
 -14   0  26   36.88    8.00   0
 -13  -1  29   26.59    5.74   0
 -11   1  22   10.65    6.29   0
 -11   1  23   66.07    8.83   0
 -10   0  28   18.62    5.58   0
  -9   1  24   16.03    6.13   0
  -8   0  28   31.95    6.58   0
 -16   0  17    1.01    5.12   0
 -16   0  18  671.84   21.69   0
 -16   0  19   -1.36    6.51   0
 -16   0  20  308.44   16.25   0
 -16   0  21    2.06    5.55   0
 -16   0  22  111.91   10.14   0
 -16   0  23   -3.20    5.53   0
 -15  -1  27   56.94    7.40   0
 -14   0  25   -1.31    5.44   0
 -12   0  27    0.86    4.61   0
 -11  -1  29   39.97    6.48   0
 -11   1  15  365.38   16.10   0
 -11   1  16   35.56    7.11   0
 -11   1  19   76.15    9.72   0
 -11   1  20    3.58    5.57   0
 -11   1  21  114.64   10.27   0
 -10  -2  29    0.02    2.76   0
 -10  -2  29    0.70    2.69   0
 -10   0  27    0.38    5.63   0
  -9   1  22    0.03    6.07   0
  -9   1  23  157.26   11.84   0
  -5  -1  29   13.90    6.00   0
  -5  -1  29    9.94    4.54   0
 -15  -1  26    0.36    5.87   0
 -14   0  24  199.24   12.74   0
 -13  -1  28    1.08    3.92   0
 -12   0  26   52.28    7.50   0
 -11   1  17  207.68   12.32   0
 -11   1  18    6.05    5.55   0
  -9  -1  29   50.37    7.67   0
  -9   1  21  324.43   15.99   0
  -8  -2  29   -0.10    2.56   0
  -8  -2  29    0.25    2.49   0
  -8   0  27   -1.21    4.27   0
  -7  -1  29   38.49    7.25   0
  -6   0  27   -0.41    4.89   0
 -15  -1  25   83.80    9.61   0
 -14   0  22  160.57   11.71   0
 -14   0  23    0.16    5.88   0
 -13  -1  27   30.68    6.31   0
 -12   0  25   -4.45    5.33   0
 -11  -1  28   -0.25    4.04   0
 -10  -2  28   36.20    6.98   0
 -10   0  26  148.96   11.08   0
  -9   1  15  417.94   17.52   0
  -9   1  18    8.05    6.21   0
  -9   1  19  248.78   14.00   0
  -9   1  20    7.36    5.75   0
  -3  -1  28    1.34    5.92   0
 -15  -1  24    0.48    4.63   0
 -14   0  16   51.47    7.32   0
 -14   0  17   -2.38    4.64   0
 -14   0  18  479.59   18.55   0
 -14   0  19    0.34    5.39   0
 -14   0  20  237.65   13.83   0
 -14   0  21    0.73    5.05   0
 -13  -1  26   11.21    5.06   0
 -12   0  23    0.73    6.99   0
 -12   0  24  104.05   10.02   0
 -11  -1  27   38.51    7.22   0
 -10   0  25   -2.34    5.41   0
  -9  -1  28    1.65    3.95   0
  -9   1  16   -1.96    4.61   0
  -9   1  17  268.74   14.32   0
  -8  -2  28   29.95    7.47   0
  -8   0  26  158.26   10.98   0
  -7  -1  28    1.56    4.86   0
  -6  -2  28   22.65    7.38   0
  -6   0  26  113.47    9.93   0
  -5  -1  28    0.40    5.33   0
  -4  -2  28    2.69    3.47   0
  -4  -2  28    2.79    3.38   0
 -15  -1  23   99.73    9.48   0
 -13  -1  25   52.78    7.56   0
 -12   0  22   87.86    9.38   0
 -10   0  24  194.63   12.64   0
  -9  -1  27   69.32    7.99   0
  -8   0  25    2.60    5.25   0
 -32   0  23    1.02    5.63   0
 -32   0  24   22.26    5.28   0
 -29   1  17   41.54    6.07   0
 -29   1  18    0.77    4.16   0
 -29   1  19   42.43    5.77   0
 -27   1  12   -1.84    4.66   0
 -27   1  22    5.17    5.45   0
 -27   1  23   40.90    5.86   0
 -32   0  17    1.09    3.63   0
 -32   0  18   46.42    6.79   0
 -32   0  19   -5.11    4.45   0
 -32   0  20   62.68    7.34   0
 -32   0  21    0.29    4.34   0
 -32   0  22   38.85    5.97   0
 -30   0  25    0.96    5.24   0
 -27   1  13  170.97   10.42   0
 -27   1  14    8.84    5.58   0
 -27   1  15   76.87    9.24   0
 -27   1  20    5.77    5.57   0
 -27   1  21   57.09    6.91   0
 -25   1  11  115.50   10.18   0
 -33  -1  23   22.35    6.04   0
 -33  -1  24    1.05    2.42   0
 -33  -1  24    0.08    2.35   0
 -30   0  24   45.95    6.89   0
 -27   1  16   18.64    5.85   0
 -27   1  17   38.06    6.64   0
 -27   1  18   19.68    5.54   0
 -27   1  19   57.90    7.08   0
 -25   1  12    8.37    5.32   0
 -25   1  21   47.44    7.57   0
 -23   1   9   74.89    7.89   0
 -33  -1  20    1.68    4.06   0
 -33  -1  21   25.01    5.79   0
 -33  -1  22   -1.78    4.18   0
 -31  -1  26   -0.09    2.44   0
 -31  -1  26    0.62    2.43   0
 -30   0  15    1.30    5.36   0
 -30   0  23    0.28    3.45   0
 -28   0  25    0.33    4.29   0
 -25   1  13  117.17    9.31   0
 -25   1  14    1.56    5.24   0
 -25   1  15   43.32    8.19   0
 -25   1  18   14.25    6.69   0
 -25   1  19   37.29    7.90   0
 -25   1  20   -2.00    4.62   0
 -23   1  10   29.37    6.15   0
 -21   1   8   38.11    6.19   0
 -31  -1  25   26.03    5.64   0
 -30   0  16   90.56    8.07   0
 -30   0  17   -1.35    5.67   0
 -30   0  18   96.72    9.20   0
 -30   0  19   -5.05    5.48   0
 -30   0  20  104.36    9.20   0
 -30   0  21    1.51    4.13   0
 -30   0  22   46.76    6.19   0
 -28   0  24   33.66    6.42   0
 -25   1  16    0.06    5.51   0
 -25   1  17   20.65    5.84   0
 -23   1  11  122.40    9.62   0
 -23   1  12   28.06    7.29   0
 -23   1  20   -0.73    4.67   0
 -21   1   9  242.53   12.74   0
 -19   1   7  127.74    9.28   0
 -31  -1  24   -0.79    5.02   0
 -29  -1  26    0.45    5.31   0
 -28   0  23    0.94    4.22   0
 -23   1  13  203.67   11.47   0
 -23   1  14   50.02    7.26   0
 -23   1  15   91.06    8.93   0
 -23   1  16   16.27    7.12   0
 -23   1  17   46.93    7.40   0
 -23   1  18    6.72    5.30   0
 -23   1  19   85.75    8.47   0
 -21   1  10   14.92    5.74   0
 -19   1   8   -0.72    4.28   0
 -32  -2  21    0.55    4.00   0
 -32  -2  21    2.40    2.80   0
 -32  -2  22    4.31    3.30   0
 -32  -2  22    2.67    2.95   0
 -31  -1  22    3.96    4.86   0
 -31  -1  23   68.46    7.63   0
 -28   0  14   40.45    6.80   0
 -28   0  15    2.54    6.18   0
 -28   0  21   -0.74    5.83   0
 -28   0  22   83.98    7.60   0
 -21   1  11  195.96   11.34   0
 -21   1  12   -0.86    5.17   0
 -21   1  13  204.11   12.61   0
 -21   1  17  177.79   11.59   0
 -21   1  18   38.97    7.21   0
 -19   1   9  149.57    9.69   0
 -31  -1  18    2.07    3.72   0
 -31  -1  19   26.52    5.38   0
 -31  -1  20    0.82    3.72   0
 -31  -1  21   57.33    6.50   0
 -30  -2  25   -1.19    2.54   0
 -30  -2  25   -0.17    2.51   0
 -29  -1  25   29.62    6.10   0
 -28   0  16  152.03   10.48   0
 -28   0  17    2.50    5.11   0
 -28   0  18  162.48   10.78   0
 -28   0  19   -1.03    4.99   0
 -28   0  20  138.49    9.72   0
 -26   0  23    1.49    4.47   0
 -21   1  14   32.88    6.70   0
 -21   1  15  112.86    9.36   0
 -21   1  16    2.87    5.51   0
 -19   1  10   31.71    6.06   0
 -19   1  11  227.56   12.18   0
 -19   1  17  240.89   13.76   0
 -17   1   9  152.19   10.57   0
 -30  -2  24   12.40    4.30   0
 -30  -2  24    4.67    3.75   0
 -29  -1  23   62.29    7.23   0
 -29  -1  24    3.14    3.87   0
 -28  -2  26   17.24    5.69   0
 -26   0  13   -2.64    6.19   0
 -26   0  21   -0.66    6.42   0
 -26   0  22   67.21    7.64   0
 -19   1  12    6.43    5.35   0
 -19   1  13  199.20   11.48   0
 -19   1  14    1.58    5.13   0
 -19   1  15  302.71   13.90   0
 -19   1  16   13.77    5.63   0
 -17   1  10   15.58    4.94   0
 -17   1  11  264.05   13.45   0
 -30  -2  23    0.78    5.24   0
 -29  -1  22   -1.49    3.91   0
 -27  -1  25   20.04    4.64   0
 -26   0  14   15.20    5.84   0
 -26   0  15   -2.97    5.26   0
 -26   0  16  130.35   11.14   0
 -26   0  17   -5.84    7.00   0
 -26   0  18  166.72   11.78   0
 -26   0  19   -3.07    5.42   0
 -26   0  20  136.08    9.94   0
 -24   0  22   40.27    6.60   0
 -17   1  12    3.63    4.49   0
 -17   1  13  399.27   15.58   0
 -17   1  14   14.77    4.36   0
 -17   1  15  629.31   19.51   0
 -30  -2  21    2.41    4.81   0
 -30  -2  22   15.63    5.59   0
 -29  -1  16    3.04    4.85   0
 -29  -1  17   52.98    7.20   0
 -29  -1  18    3.96    4.51   0
 -29  -1  19   40.00    6.42   0
 -29  -1  20    2.06    4.19   0
 -29  -1  21   58.01    6.27   0
 -28  -2  25    1.24    4.31   0
 -27  -1  24    6.44    4.23   0
 -24   0  12   31.31    7.51   0
 -24   0  21    0.21    4.95   0
 -30  -2  19   -1.11    3.04   0
 -30  -2  20   29.42    5.10   0
 -29  -3  21    9.72    3.39   0
 -29  -3  21    5.77    2.86   0
 -28  -2  24   17.37    5.61   0
 -27  -1  23   61.53    6.99   0
 -26  -2  26   22.77    5.69   0
 -24   0  13    0.68    4.93   0
 -24   0  14    9.00    5.87   0
 -24   0  15    2.12    6.98   0
 -24   0  16  104.36   10.26   0
 -24   0  17    2.05    6.98   0
 -24   0  18   41.83    8.42   0
 -24   0  19    3.21    5.28   0
 -24   0  20    5.33    5.40   0
 -22   0  21   -2.08    6.35   0
 -28  -2  23   -0.38    4.46   0
 -27  -1  21   66.64    7.44   0
 -27  -1  22    3.87    4.66   0
 -26  -2  25    0.75    5.22   0
 -25  -1  24   -3.12    4.13   0
 -22   0  11    3.99    6.25   0
 -22   0  20   32.08    6.68   0
 -28  -2  21   -0.08    4.88   0
 -28  -2  22   15.01    4.13   0
 -27  -3  23   12.04    4.26   0
 -27  -1  15   81.87    8.48   0
 -27  -1  16   20.28    6.02   0
 -27  -1  17   51.03    7.33   0
 -27  -1  18   15.55    6.01   0
 -27  -1  19   68.75    7.61   0
 -27  -1  20    4.26    4.85   0
 -25  -3  25    8.99    3.39   0
 -25  -1  23   50.04    6.73   0
 -22   0  12   84.66    8.41   0
 -22   0  13   -4.33    6.42   0
 -22   0  14   41.10    7.80   0
 -22   0  17    2.06    6.91   0
 -22   0  18  108.51    9.35   0
 -22   0  19   -1.05    5.39   0
 -28  -2  17    3.24    5.15   0
 -28  -2  18   64.67    7.56   0
 -28  -2  19   -2.91    3.77   0
 -28  -2  20   22.16    4.67   0
 -27  -3  22   -2.14    3.82   0
 -26  -2  24   12.59    4.17   0
 -25  -1  21   56.94    8.11   0
 -25  -1  22   -0.69    4.78   0
 -24  -2  25    0.47    4.49   0
 -23  -1  23   21.30    6.75   0
 -22   0  15   -5.47    5.18   0
 -22   0  16  231.18   12.23   0
 -20   0  10  524.94   17.27   0
 -20   0  19    0.09    5.14   0
 -27  -3  20    1.04    4.04   0
 -27  -3  21   24.85    5.31   0
 -26  -2  22   22.61    5.80   0
 -26  -2  23    0.79    3.55   0
 -25  -3  24    2.19    3.90   0
 -25  -1  14   -1.17    5.73   0
 -25  -1  19   43.66    8.09   0
 -25  -1  20    0.11    5.22   0
 -23  -3  25   24.37    5.19   0
 -23  -1  22   -0.72    5.10   0
 -20   0  11   -2.53    4.62   0
 -20   0  12  162.10   10.30   0
 -20   0  13    3.60    6.10   0
 -20   0  16  259.31   13.44   0
 -20   0  17    0.98    5.04   0
 -20   0  18  184.08   10.99   0
 -27  -3  18    1.03    3.74   0
 -27  -3  19   31.29    5.45   0
 -26  -2  21   -1.17    3.93   0
 -25  -3  23   29.87    5.71   0
 -25  -1  15   43.03    7.00   0
 -25  -1  16    2.48    5.65   0
 -25  -1  17   20.44    6.22   0
 -25  -1  18   15.28    6.01   0
 -24  -2  24   22.24    4.72   0
 -23  -1  21   73.05    8.84   0
 -20   0  14  152.44    9.97   0
 -20   0  15    7.03    4.91   0
 -26  -2  16   42.74    7.37   0
 -26  -2  17    4.02    5.39   0
 -26  -2  18   26.06    6.64   0
 -26  -2  19    0.35    4.29   0
 -26  -2  20   26.01    5.24   0
 -25  -3  22   -0.31    4.37   0
 -24  -2  23    5.53    3.83   0
 -23  -3  24    1.45    4.00   0
 -23  -1  19   97.06    9.55   0
 -23  -1  20    0.82    5.26   0
 -22  -2  24   39.29    6.65   0
 -21  -1  22    0.70    4.94   0
 -18   0  10  287.55   12.64   0
 -18   0  11    1.07    3.75   0
 -18   0  12  280.22   13.09   0
 -18   0  13   -1.18    5.56   0
 -18   0  14  174.12   11.01   0
 -18   0  15    2.90    5.92   0
 -18   0  16  258.30   12.60   0
 -18   0  17    0.23    4.98   0
 -25  -3  21   26.47    5.23   0
 -24  -4  18    4.50    3.53   0
 -24  -4  18    0.42    2.42   0
 -24  -4  19   -0.59    2.03   0
 -24  -4  19   -1.05    1.93   0
 -24  -2  22   22.48    5.20   0
 -23  -3  23   51.37    7.58   0
 -23  -1  12   24.38    5.82   0
 -23  -1  13  219.01   11.45   0
 -23  -1  14   45.14    8.33   0
 -23  -1  15  125.30   10.32   0
 -23  -1  16   29.98    7.20   0
 -23  -1  17   48.42    7.24   0
 -23  -1  18    4.19    5.67   0
 -21  -1  21  171.67   10.65   0
 -25  -3  18    1.51    4.67   0
 -25  -3  19   28.77    5.30   0
 -25  -3  20    3.81    3.57   0
 -24  -2  20   51.64    6.40   0
 -24  -2  21   -0.85    4.56   0
 -23  -3  22    1.21    4.87   0
 -22  -4  21    0.52    2.09   0
 -22  -4  21   -0.20    2.14   0
 -22  -2  23    0.41    4.07   0
 -21  -3  24    4.01    3.99   0
 -21  -1  19  333.63   14.76   0
 -21  -1  20    6.77    5.57   0
 -16   0  13   -1.50    4.22   0
 -16   0  14  250.49   11.92   0
 -16   0  15    1.76    3.21   0
 -25  -3  17   26.59    5.06   0
 -24  -2  14   90.20    8.47   0
 -24  -2  17    7.67    6.39   0
 -24  -2  18   72.44    7.23   0
 -24  -2  19    6.05    4.99   0
 -23  -3  21   59.24    7.52   0
 -22  -4  20   26.99    5.07   0
 -22  -2  22   49.77    6.56   0
 -21  -3  23   25.46    6.03   0
 -21  -1  11  196.90   11.13   0
 -21  -1  17  196.74   12.07   0
 -21  -1  18   42.82    7.34   0
 -20  -4  22    5.10    2.77   0
 -20  -4  22    2.62    2.37   0
 -19  -1  20    0.46    6.32   0
 -24  -2  15    5.84    5.13   0
 -24  -2  16   72.44    7.37   0
 -23  -3  20    2.96    5.11   0
 -22  -4  19    2.82    3.54   0
 -22  -2  20   91.18    8.93   0
 -22  -2  21    0.25    4.71   0
 -21  -1  12    7.33    4.75   0
 -21  -1  13  201.83   10.91   0
 -21  -1  14   33.49    6.45   0
 -21  -1  15  146.16    9.60   0
 -21  -1  16    4.53    5.36   0
 -20  -2  22   90.04    8.58   0
 -19  -1  19  217.04   11.38   0
 -23  -3  18   10.60    6.10   0
 -23  -3  19   62.05    6.53   0
 -22  -4  17    2.44    3.61   0
 -22  -4  18   31.50    4.85   0
 -22  -2  19   20.07    5.88   0
 -21  -3  22    4.52    3.63   0
 -20  -4  21    3.96    3.26   0
 -20  -2  21   -0.44    5.86   0
 -19  -3  23   44.53    5.92   0
 -19  -1  17  253.97   12.83   0
 -19  -1  18   81.75    7.92   0
 -18  -4  22    5.27    2.86   0
 -18  -4  22    3.29    2.58   0
 -23  -3  15   54.82    7.09   0
 -23  -3  16   11.45    4.79   0
 -23  -3  17   59.07    6.63   0
 -22  -4  16   17.89    4.12   0
 -22  -2  13   18.66    5.88   0
 -22  -2  15   10.11    6.24   0
 -22  -2  16  151.81   10.70   0
 -22  -2  17    9.85    5.45   0
 -22  -2  18  121.07    8.55   0
 -21  -3  21   45.89    5.87   0
 -20  -4  20   18.16    4.55   0
 -20  -2  20  104.14    9.06   0
 -19  -3  22    4.34    4.85   0
 -19  -1  10   26.95    5.51   0
 -19  -1  11  216.91   10.93   0
 -19  -1  12   11.93    5.81   0
 -19  -1  14   -1.19    5.78   0
 -19  -1  15  368.97   14.38   0
 -19  -1  16   24.11    5.60   0
 -16  -4  22   12.90    4.87   0
 -22  -2  14  134.23    9.05   0
 -21  -3  19   58.47    7.35   0
 -21  -3  20    1.77    3.80   0
 -20  -4  19    2.52    2.96   0
 -20  -2  19    7.92    6.21   0
 -19  -1  13  205.36   10.53   0
 -18  -4  21    2.41    3.53   0
 -18  -2  21    0.92    4.36   0
 -17  -1  17  248.50   12.04   0
 -17  -1  18    6.83    5.06   0
 -21  -3  18    0.31    4.49   0
 -20  -4  17    4.98    3.85   0
 -20  -4  18   24.09    4.22   0
 -20  -2  17   -1.09    6.12   0
 -20  -2  18  104.28    8.20   0
 -19  -3  21   37.30    5.68   0
 -18  -4  20   19.32    4.64   0
 -18  -2  20   70.18    8.01   0
 -17  -5  15    2.01    2.45   0
 -17  -5  15    0.09    2.14   0
 -17  -3  22    5.47    4.12   0
 -17  -1  15  745.00   19.15   0
 -17  -1  16    9.73    4.84   0
 -16  -4  21    3.87    4.22   0
 -21  -3  14    5.23    6.27   0
 -21  -3  15   79.28    8.83   0
 -21  -3  16    6.24    5.22   0
 -21  -3  17   59.13    6.86   0
 -20  -4  15    3.97    3.15   0
 -20  -4  16   32.10    4.52   0
 -20  -2  12  195.03   10.70   0
 -20  -2  13   25.76    6.68   0
 -20  -2  14  178.19   10.72   0
 -20  -2  15   34.28    7.46   0
 -20  -2  16  108.29    8.21   0
 -19  -3  20    2.52    4.03   0
 -18  -4  19    3.83    3.09   0
 -18  -2  19   27.16    5.57   0
 -17  -3  21  111.03    8.68   0
 -17  -1  10    9.36    4.24   0
 -17  -1  11  267.12   11.60   0
 -17  -1  12    3.02    4.01   0
 -17  -1  13  503.76   15.43   0
 -17  -1  14   10.93    4.05   0
 -15  -5  17    0.37    2.26   0
 -15  -5  17    0.97    2.05   0
 -15  -1  17  228.68   11.39   0
 -19  -3  18    9.55    6.00   0
 -19  -3  19   33.44    5.60   0
 -18  -4  18   32.39    4.56   0
 -18  -2  18  102.84    8.29   0
 -17  -3  20    1.88    5.24   0
 -16  -4  20   26.42    4.11   0
 -16  -2  20  114.81    8.48   0
 -15  -5  16    0.47    2.93   0
 -15  -1  16    2.48    4.26   0
 -14  -4  21    4.05    3.23   0
 -19  -3  17   61.79    6.92   0
 -18  -4  16   42.74    5.76   0
 -18  -4  17    3.75    3.10   0
 -18  -2  16   98.03    9.01   0
 -18  -2  17   16.88    5.34   0
 -16  -4  19   13.89    3.66   0
 -16  -2  19   11.26    5.07   0
 -15  -5  15    8.63    3.79   0
 -15  -1  14   28.07    5.22   0
 -15  -1  15  329.97   12.66   0
 -14  -4  20   21.03    4.72   0
 -13  -5  17    4.56    3.36   0
 -11  -5  18    1.06    1.71   0
 -19  -3  14    6.48    6.28   0
 -19  -3  15   74.34    7.85   0
 -19  -3  16    0.60    4.91   0
 -18  -4  14   43.34    6.15   0
 -18  -4  15    0.58    3.30   0
 -18  -2  11   48.59    7.31   0
 -18  -2  12  380.93   14.28   0
 -18  -2  13   71.75    7.36   0
 -18  -2  14  219.30   10.59   0
 -18  -2  15   11.06    4.82   0
 -17  -3  19   92.07    7.73   0
 -16  -4  18   50.80    5.40   0
 -16  -2  18  141.41    9.41   0
 -15  -5  13   21.67    4.31   0
 -15  -5  14    2.27    3.02   0
 -15  -3  20    1.09    4.23   0
 -15  -1  13  510.69   15.29   0
 -13  -5  16    0.10    3.18   0
 -13  -1  15  234.91   11.79   0
 -12  -4  20   20.31    4.83   0
 -11  -5  17    6.88    4.10   0
 -19  -3  12    4.85    4.40   0
 -19  -3  13  116.78    8.41   0
 -18  -4  13   -3.01    3.21   0
 -17  -3  17  126.99   10.08   0
 -17  -3  18    6.31    4.86   0
 -16  -4  17    4.48    3.49   0
 -16  -2  17   45.21    6.49   0
 -15  -3  19  156.55   10.33   0
 -14  -4  19    2.65    3.19   0
 -13  -5  15    5.03    3.75   0
 -17  -3  16   10.23    5.42   0
 -16  -4  16   59.17    5.94   0
 -16  -2  15   36.77    6.94   0
 -16  -2  16  168.18    9.48   0
 -15  -3  18    4.67    5.12   0
 -14  -4  18   49.83    5.61   0
 -14  -2  18   78.84    7.59   0
 -13  -5  14   -0.14    3.02   0
 -12  -4  19    1.56    3.19   0
 -11  -5  16   -0.61    3.41   0
  -9  -5  17    7.93    3.73   0
  -7  -5  17    4.36    3.30   0
  -7  -5  17    1.46    2.21   0
 -17  -3  13   96.63    9.55   0
 -17  -3  14   11.49    5.71   0
 -17  -3  15  115.80    8.98   0
 -16  -4  14   56.84    5.96   0
 -16  -4  15   -0.21    3.61   0
 -16  -2  12  286.71   12.69   0
 -16  -2  13   -0.00    4.62   0
 -16  -2  14  162.50    9.67   0
 -15  -3  17  186.23   11.33   0
 -14  -4  17    2.48    3.51   0
 -14  -2  17   -2.05    4.46   0
 -13  -5  12    4.26    3.55   0
 -13  -5  13   22.12    4.68   0
 -13  -3  19  109.34    8.19   0
 -12  -4  18   39.36    6.03   0
 -11  -5  15   11.35    3.99   0
  -9  -5  16    1.79    3.26   0
 -17  -3  11   77.04    7.34   0
 -17  -3  12   25.11    5.94   0
 -16  -4  12   50.04    6.04   0
 -16  -4  13    2.76    3.75   0
 -16  -2  10  390.90   13.83   0
 -16  -2  11   28.80    4.84   0
 -15  -3  16    5.27    6.54   0
 -14  -4  16   64.17    6.43   0
 -14  -2  15   17.40    6.28   0
 -14  -2  16  210.73   10.46   0
 -13  -3  18    2.69    4.72   0
 -11  -5  14    1.28    3.35   0
  -7  -5  16   -0.36    3.36   0
 -15  -3  15  220.69   11.54   0
 -14  -4  15    4.67    3.93   0
 -14  -2  14  403.64   13.85   0
 -13  -3  17  108.67    8.44   0
 -12  -4  17   -0.23    3.72   0
 -12  -2  16  121.91    9.73   0
 -11  -5  13   11.34    3.65   0
 -11  -3  18   15.02    6.08   0
 -10  -4  18   33.95    5.09   0
  -9  -5  15    9.32    4.38   0
  -5  -5  16    0.91    3.10   0
 -15  -3  13  111.40    9.44   0
 -15  -3  14    9.68    5.91   0
 -14  -4  13   10.09    4.21   0
 -14  -4  14   48.94    6.23   0
 -14  -2  12  349.07   13.70   0
 -14  -2  13    3.95    4.56   0
 -13  -3  16    5.63    5.09   0
 -12  -4  16   59.42    6.18   0
 -11  -5  11   33.71    4.75   0
 -11  -5  12    1.44    2.92   0
 -10  -4  17   -0.02    3.83   0
  -9  -5  14    1.18    3.41   0
  -7  -5  15   22.31    4.76   0
  -5  -5  15   19.58    5.26   0
 -15  -3  10    9.64    5.00   0
 -15  -3  11  102.31    9.02   0
 -15  -3  12   42.22    7.41   0
 -14  -4  10  106.12    8.08   0
 -14  -4  11    5.45    4.26   0
 -14  -4  12   90.92    7.56   0
 -14  -2   9    9.26    4.39   0
 -14  -2  10  555.23   16.58   0
 -14  -2  11    8.58    4.53   0
 -13  -3  15  176.08   10.58   0
 -12  -4  15    1.19    4.03   0
 -12  -2  14  399.26   15.20   0
 -12  -2  15   38.56    5.90   0
 -11  -5  10    2.21    3.19   0
 -11  -3  17   61.06    7.12   0
 -10  -4  16   47.14    7.02   0
  -9  -5  13    9.56    3.91   0
  -8  -4  17    3.52    3.57   0
  -7  -5  14    0.39    2.94   0
 -13  -3  14   11.07    5.95   0
 -12  -4  14   47.91    6.24   0
 -11  -3  16   13.88    5.14   0
  -9  -5  12    0.51    3.22   0
  -5  -5  14    2.18    3.73   0
 -21  -3 -10    0.07    1.21   0
 -21  -3 -10   -0.19    1.22   0
 -19  -3 -11   16.49    3.54   0
 -17  -3 -12    2.58    2.77   0
 -15  -3 -13   17.93    2.96   0
 -14  -2 -16   13.16    3.17   0
 -13  -3 -14    0.16    2.01   0
 -11  -3 -14    0.24    3.19   0
 -10  -2 -17    0.38    3.02   0
  -9  -3 -14    0.35    3.51   0
  -7  -3 -14    2.94    3.83   0
  -5  -3 -14    2.85    2.97   0
  -4  -2 -17    1.54    2.73   0
  -3  -3 -13   34.29    4.13   0
  -3  -3 -12    6.99    3.58   0
  -2  -2 -16   45.56    4.95   0
   0  -2 -15    2.47    2.75   0
   2  -2 -13    9.78    2.87   0
   2  -2 -12  485.51   12.15   0
 -20  -2 -13    0.55    2.31   0
 -18  -2 -14    7.82    2.94   0
 -16  -2 -15    2.11    2.22   0
 -13  -3 -13   24.71    3.40   0
 -12  -2 -16   24.83    3.85   0
  -8  -2 -17    5.68    2.70   0
  -7  -3 -13  131.53    7.63   0
  -6  -2 -17   17.86    3.45   0
  -5  -3 -13  128.80    6.91   0
  -4  -2 -16   94.81    6.65   0
  -3  -3 -11   21.18    3.62   0
   0  -2 -14  149.77    6.97   0
 -21  -3  -9   12.20    3.14   0
 -19  -3 -10    3.85    2.81   0
 -17  -3 -11   19.38    3.55   0
 -15  -3 -12    0.24    2.28   0
 -14  -2 -15    2.56    2.70   0
 -11  -3 -13   51.17    4.79   0
 -10  -2 -16   43.94    4.47   0
  -9  -3 -13   85.03    5.95   0
  -8  -2 -16   48.35    5.33   0
  -6  -2 -16  139.76    7.22   0
  -5  -3 -12    4.29    3.17   0
  -2  -2 -15   -0.85    3.00   0
   0  -2 -13   41.44    4.39   0
 -23  -3  -7    4.46    2.57   0
 -22  -2 -11   -0.57    2.30   0
 -20  -2 -12    4.26    3.08   0
 -18  -2 -13   -1.05    3.03   0
 -16  -2 -14   14.79    2.90   0
 -15  -3 -11   19.02    3.96   0
 -13  -3 -12    0.02    2.54   0
 -12  -2 -15   -1.18    3.40   0
 -11  -3 -12    3.13    2.92   0
  -9  -3 -12    3.91    3.29   0
  -7  -3 -12    7.58    3.40   0
  -5  -3 -11  113.74    6.88   0
  -5  -3 -10   14.65    4.36   0
  -4  -2 -15   18.71    3.74   0
  -2  -2 -14   57.92    5.03   0
   0  -2 -12  278.84    9.58   0
 -24  -2  -9    3.03    3.12   0
 -21  -3  -8   -0.83    2.25   0
 -19  -3  -9   34.09    4.18   0
 -17  -3 -10   -0.22    2.27   0
 -14  -2 -14   25.44    4.45   0
 -13  -3 -11   34.95    4.42   0
 -11  -3 -11   61.59    6.11   0
 -10  -2 -15    2.50    2.99   0
  -9  -3 -11  117.71    7.00   0
  -8  -2 -15    7.38    3.16   0
  -7  -3 -11  148.05    7.79   0
  -6  -2 -15    4.54    3.34   0
  -4  -2 -14   42.90    4.66   0
  -2  -2 -13    2.77    2.94   0
   0  -2 -11   24.61    3.53   0
 -23  -3  -6   -0.49    2.15   0
 -22  -2 -10    7.11    3.67   0
 -21  -3  -7   23.16    3.96   0
 -17  -3  -9   27.45    4.43   0
 -16  -2 -13    1.43    2.44   0
 -15  -3 -10    1.55    2.57   0
 -13  -3 -10    1.91    3.66   0
 -12  -2 -14   70.52    5.65   0
 -10  -2 -14   66.05    6.27   0
  -9  -3 -10    8.75    4.17   0
  -8  -2 -14   72.01    6.11   0
  -7  -3 -10    2.99    3.38   0
  -6  -2 -14   94.56    6.36   0
  -4  -2 -13   11.18    4.19   0
  -2  -2 -12  143.34    7.29   0
 -26  -2  -7   -0.70    2.35   0
 -20  -2 -11    0.02    2.21   0
 -19  -3  -8    2.97    2.57   0
 -18  -2 -12    9.13    2.66   0
 -15  -3  -9   35.23    4.91   0
 -14  -2 -13    1.23    2.80   0
 -11  -3 -10    6.19    3.38   0
  -9  -3  -9  149.10    8.55   0
  -6  -2 -13   10.00    4.23   0
  -4  -2 -12  174.92    8.84   0
  -2  -2 -11   69.03    5.36   0
 -24  -2  -8   18.26    4.01   0
 -22  -2  -9    3.00    3.17   0
 -21  -3  -6   -0.34    2.07   0
 -19  -3  -7   45.27    4.73   0
 -18  -2 -11   -0.72    3.23   0
 -17  -3  -8    3.46    2.83   0
 -16  -2 -12   46.34    4.64   0
 -13  -3  -9   51.38    5.41   0
 -12  -2 -13   -0.09    3.28   0
 -11  -3  -9   77.99    6.24   0
 -10  -2 -13   33.23    4.90   0
  -8  -2 -13    1.99    3.38   0
  -2  -2 -10  263.61    9.70   0
 -28  -2  -4    7.59    2.87   0
 -28  -2  -4    4.73    2.24   0
 -26  -2  -6   24.60    4.31   0
 -21  -3  -5   15.62    3.70   0
 -20  -2 -10   10.23    3.23   0
 -19  -3  -6    8.71    3.72   0
 -17  -3  -7   25.17    4.21   0
 -15  -3  -8    0.53    2.87   0
 -14  -2 -12   70.78    5.89   0
 -13  -3  -8    5.36    3.41   0
 -12  -2 -12   99.96    7.23   0
 -11  -3  -8    9.53    3.79   0
  -8  -2 -12  123.21    7.76   0
  -6  -2 -12  178.70    8.48   0
  -4  -2 -11   16.41    3.72   0
  -3  -1 -13  220.15    9.08   0
 -24  -2  -7    1.87    2.74   0
 -22  -2  -8   24.25    4.06   0
 -20  -2  -9    3.88    3.29   0
 -18  -2 -10   42.55    5.14   0
 -17  -3  -6    8.71    3.99   0
 -16  -2 -11   11.25    3.58   0
 -15  -3  -7   59.25    5.64   0
 -13  -3  -7   98.15    6.87   0
 -10  -2 -12   96.73    6.81   0
  -6  -2 -11    4.67    3.18   0
  -5  -1 -13  228.47    9.76   0
  -4  -2 -10  225.26    9.12   0
 -30  -2  -1    0.18    1.49   0
 -30  -2  -1   -1.18    1.46   0
 -28  -2  -3    0.37    3.36   0
 -27  -1  -6    1.24    3.58   0
 -26  -2  -5    3.83    3.08   0
 -16  -2 -10   47.40    5.63   0
 -14  -2 -11    6.59    3.37   0
 -12  -2 -11   11.74    3.91   0
 -10  -2 -11   40.65    5.09   0
  -8  -2 -11    9.02    3.71   0
  -6  -2 -10  209.68    9.19   0
  -5  -1 -12   31.52    4.62   0
  -4  -2  -9   31.61    4.11   0
 -29  -1  -4   -0.96    1.80   0
 -29  -1  -4    0.20    1.70   0
 -24  -2  -6   34.05    4.16   0
 -22  -2  -7   -0.23    2.50   0
 -20  -2  -8   51.28    5.51   0
 -18  -2  -9    5.63    3.29   0
 -14  -2 -10   60.83    5.73   0
 -12  -2 -10  126.98    8.03   0
 -10  -2 -10  152.22    8.60   0
  -8  -2 -10  208.13    9.35   0
  -7  -1 -12    3.27    3.50   0
  -6  -2  -9    1.83    2.68   0
 -30  -2   0   10.29    3.30   0
 -28  -2  -2   20.27    3.72   0
 -26  -2  -4   32.58    4.16   0
 -25  -1  -7   17.32    3.66   0
 -24  -2  -5    1.36    3.06   0
 -23  -1  -8    0.35    2.44   0
 -21  -1  -9   33.41    4.74   0
 -19  -1 -10   -0.41    2.82   0
 -17  -1 -11   31.55    4.44   0
 -16  -2  -9    8.84    3.64   0
 -13  -1 -12   42.69    4.86   0
 -11  -1 -12    4.76    3.37   0
  -9  -1 -12    7.25    3.20   0
  -8  -2  -9    5.05    4.06   0
  -6  -2  -8  114.22    7.32   0
  -5  -1 -11  281.67   10.67   0
 -29  -1  -3   12.08    4.40   0
 -27  -1  -5   15.73    3.84   0
 -26  -2  -3    4.97    3.09   0
 -22  -2  -6   35.71    4.49   0
 -20  -2  -7    5.60    3.16   0
 -18  -2  -8   62.10    5.68   0
 -15  -1 -11   86.20    6.37   0
 -14  -2  -9    3.10    3.64   0
 -13  -1 -11  244.80   10.39   0
 -12  -2  -9    8.46    3.53   0
 -10  -2  -9   48.79    5.18   0
  -8  -2  -8  329.75   11.93   0
  -7  -1 -11  230.71    9.71   0
 -31  -1  -1    8.46    3.07   0
 -30  -2   1    0.83    2.57   0
 -28  -2  -1    1.05    2.54   0
 -25  -1  -6    1.39    2.41   0
 -24  -2  -4   45.05    4.70   0
 -23  -1  -7   31.93    4.63   0
 -22  -2  -5    2.03    3.49   0
 -21  -1  -8    3.25    3.54   0
 -20  -2  -6   98.08    7.14   0
 -19  -1  -9   16.21    3.84   0
 -18  -2  -7    4.63    3.30   0
 -17  -1 -10    0.90    3.07   0
 -16  -2  -8   39.83    4.91   0
 -14  -2  -8  161.22    8.42   0
 -12  -2  -8  207.69    9.66   0
 -11  -1 -11  210.62    9.49   0
 -10  -2  -8  213.81    9.44   0
  -9  -1 -11  212.91    9.46   0
 -33  -1   2    0.50    1.55   0
 -33  -1   2   -0.77    1.43   0
 -30  -2   2   13.80    3.13   0
 -28  -2   0   24.39    3.98   0
 -27  -1  -4    3.61    2.46   0
 -26  -2  -2   52.61    4.81   0
 -16  -2  -7    8.73    3.69   0
 -15  -1 -10   11.76    3.52   0
 -13  -1 -10   34.87    5.37   0
 -10  -2  -7   -0.14    3.80   0
  -9  -1 -10   66.25    6.25   0
  -8  -2  -7    1.51    2.75   0
  -7  -1 -10   24.96    3.86   0
 -31  -1   0    1.48    2.92   0
 -30  -2   3   -0.06    2.33   0
 -29  -1  -2    1.22    2.78   0
 -26  -2  -1   11.09    3.62   0
 -25  -1  -5   33.50    4.44   0
 -24  -2  -3   -0.72    2.75   0
 -23  -1  -6   13.44    3.93   0
 -22  -2  -4   41.80    4.91   0
 -21  -1  -7   30.51    4.86   0
 -20  -2  -5   11.57    3.65   0
 -19  -1  -8    5.67    3.43   0
 -18  -2  -6   77.04    6.33   0
 -17  -1  -9   15.16    3.79   0
 -14  -2  -7   38.04    4.84   0
 -12  -2  -7   18.18    4.08   0
 -11  -1 -10    8.73    3.31   0
  -8  -2  -6  462.36   13.54   0
 -33  -1   3    8.16    2.78   0
 -33  -1   3    4.82    2.29   0
 -31  -1   1   17.81    4.39   0
 -29  -1  -1   25.71    4.29   0
 -28  -2   1    1.63    2.30   0
 -27  -1  -3   37.26    4.54   0
 -24  -2  -2   62.13    5.43   0
 -22  -2  -3   -0.96    3.72   0
 -20  -2  -4  108.52    7.40   0
 -18  -2  -5    8.64    3.34   0
 -17  -1  -8   28.63    4.61   0
 -16  -2  -6   80.14    6.14   0
 -15  -1  -9  113.73    6.95   0
 -14  -2  -6  286.59   10.81   0
 -13  -1  -9  172.95    8.44   0
 -12  -2  -6  318.79   11.25   0
 -11  -1  -9  449.96   13.25   0
 -10  -2  -6  443.87   13.15   0
  -9  -1  -9  307.28   10.93   0
 -33  -1   4    2.70    3.70   0
 -30  -2   4   14.30    3.11   0
 -28  -2   2   29.72    4.02   0
 -26  -2   0   58.00    5.20   0
 -25  -1  -4    1.56    2.70   0
 -23  -1  -5   40.55    4.62   0
 -21  -1  -6   15.18    3.63   0
 -19  -1  -7   19.67    4.15   0
 -16  -2  -5    6.88    3.50   0
 -15  -1  -8    4.27    3.93   0
 -14  -2  -5   24.82    5.08   0
 -12  -2  -5   11.90    4.07   0
 -10  -2  -5   24.69    4.04   0
 -35  -1   8   -2.70    2.84   0
 -34   0   4    1.43    1.80   0
 -34   0   4    0.20    1.59   0
 -31  -1   2    1.52    2.57   0
 -29  -1   0    1.33    2.34   0
 -28  -2   3    2.26    2.89   0
 -27  -1  -2    3.97    2.76   0
 -26  -2   1   -0.16    2.60   0
 -25  -1  -3   72.28    6.05   0
 -24  -2  -1    0.40    2.95   0
 -22  -2  -2   57.65    5.56   0
 -20  -2  -3   19.82    3.95   0
 -18  -2  -4   77.09    6.08   0
 -17  -1  -7   92.31    7.06   0
 -16  -2  -4   61.78    5.79   0
 -13  -1  -8    1.22    2.89   0
 -11  -1  -8    5.87    3.05   0
  -9  -1  -8   16.19    3.30   0
 -33  -1   5   20.16    3.69   0
 -32   0   2    6.60    3.05   0
 -28  -2   4   51.87    5.10   0
 -27  -1  -1   61.62    5.55   0
 -26  -2   2   35.53    4.70   0
 -24  -2   0   50.04    5.10   0
 -23  -1  -4    6.93    3.14   0
 -22  -2  -1    5.37    3.73   0
 -21  -1  -5   66.11    5.73   0
 -20  -2  -2  129.36    8.03   0
 -19  -1  -6    0.92    3.13   0
 -18  -2  -3    6.08    3.21   0
 -15  -1  -7  121.10    7.09   0
 -14  -2  -4  316.49   11.26   0
 -12  -2  -4  343.97   12.02   0
 -35  -1   9    1.72    1.82   0
 -35  -1   9    0.12    1.54   0
 -34   0   5    0.47    1.65   0
 -34   0   5   -0.63    1.62   0
 -33  -1   6   -1.62    2.86   0
 -31  -1   3   20.79    3.29   0
 -29  -1   1   33.50    4.05   0
 -25  -1  -2    0.33    2.89   0
 -24  -2   1   33.37    4.47   0
 -18  -2  -2   65.83    5.77   0
 -17  -1  -6   29.10    4.26   0
 -16  -2  -3    7.17    3.20   0
 -14  -2  -3    1.72    3.16   0
 -13  -1  -7  426.05   12.59   0
 -12  -2  -3   33.63    4.41   0
 -11  -1  -7  434.14   12.80   0
 -35  -1  10   -1.06    1.43   0
 -35  -1  10   -0.00    1.45   0
 -32   0   3    0.13    2.34   0
 -31  -1   4    3.84    2.84   0
 -30   0   1    0.99    2.03   0
 -29  -1   2   -1.37    3.53   0
 -27  -1   0   -3.94    2.74   0
 -26  -2   3    6.84    2.83   0
 -24  -2   2   40.08    5.24   0
 -23  -1  -3  113.20    6.96   0
 -22  -2   0  103.98    6.90   0
 -21  -1  -4   10.27    3.76   0
 -20  -2  -1   22.94    4.16   0
 -19  -1  -5  136.63    7.49   0
 -16  -2  -2  109.31    6.98   0
 -15  -1  -6   -2.56    2.93   0
 -14  -2  -2  330.38   11.74   0
 -35  -1  11    2.31    2.20   0
 -35  -1  11    0.68    1.82   0
 -34   0   6   10.42    3.14   0
 -33  -1   7   17.68    3.35   0
 -25  -1  -1   91.22    6.38   0
 -23  -1  -2   21.31    4.78   0
 -22  -2   1    9.27    3.67   0
 -21  -1  -3  169.11    8.71   0
 -20  -2   0  114.23    7.10   0
 -19  -1  -4    7.22    4.20   0
 -18  -2  -1   29.12    4.32   0
 -17  -1  -5  109.82    6.88   0
 -16  -2  -1    8.82    3.60   0
 -13  -1  -6    5.27    2.94   0
 -11  -1  -6   16.46    3.17   0
 -36   0  10   -0.79    1.71   0
 -36   0  10    0.29    1.50   0
 -34   0   7   -1.42    3.25   0
 -33  -1   8    0.26    2.17   0
 -32   0   4   27.19    3.78   0
 -31  -1   5   23.44    3.38   0
 -30   0   2   29.14    4.10   0
 -29  -1   3   41.04    4.45   0
 -28   0   0   64.58    5.56   0
 -27  -1   1   84.71    6.07   0
 -25  -1   0    1.13    3.86   0
 -24  -2   3   39.74    4.67   0
 -22  -2   2   77.27    6.27   0
 -20  -2   1    7.86    3.27   0
 -18  -2   0  146.82    7.78   0
 -15  -1  -5  179.83    8.19   0
 -13  -1  -5  629.54   15.24   0
 -36   0  11   -0.09    1.43   0
 -36   0  11   -0.63    1.37   0
 -33  -1   9   22.33    3.44   0
 -32   0   5    1.41    2.59   0
 -31  -1   6    0.19    2.35   0
 -29  -1   4    2.08    3.17   0
 -28   0   1   -1.91    3.47   0
 -27  -1   2    2.43    3.12   0
 -26   0  -1   -1.04    2.71   0
 -24   0  -2   23.31    4.71   0
 -23  -1  -1  142.50    7.83   0
 -21  -1  -2    0.91    3.15   0
 -19  -1  -3  189.16    8.47   0
 -17  -1  -4    0.02    2.91   0
 -36   0  12    6.06    2.46   0
 -34   0   8   23.10    3.63   0
 -33  -1  10    1.77    1.91   0
 -31  -1   7   42.19    4.21   0
 -30   0   3    0.60    2.38   0
 -26   0   0   49.66    5.69   0
 -25  -1   1   99.64    6.58   0
 -17  -1  -3  113.36    7.04   0
 -15  -1  -4    2.83    2.18   0
 -13  -1  -4    8.68    2.88   0
 -36   0  13    0.50    1.46   0
 -36   0  13    0.17    1.36   0
 -35   1  10   -0.68    1.49   0
 -35   1  10   -0.67    1.39   0
 -34   0   9    0.37    2.48   0
 -33  -1  11   19.55    3.18   0
 -32   0   6   62.80    5.01   0
 -31  -1   8   -1.85    2.91   0
 -30   0   4   44.10    4.86   0
 -29  -1   5   53.96    4.80   0
 -28   0   2   95.88    6.49   0
 -27  -1   3  146.75    7.43   0
 -25  -1   2   11.20    3.99   0
 -24   0  -1    2.02    2.82   0
 -23  -1   0    9.11    3.60   0
 -21  -1  -1  128.98    7.29   0
 -19  -1  -2   30.25    4.07   0
 -15  -1  -3  135.02    7.35   0
 -36   0  14   11.04    2.72   0
 -34   0  10   19.77    3.85   0
 -32   0   7    1.03    2.87   0
 -31  -1   9   42.09    4.67   0
 -29  -1   6    0.89    2.61   0
 -27  -1   4   14.73    3.63   0
 -26   0   1   -0.97    3.69   0
 -23  -1   1   51.92    5.01   0
 -22   0  -2    3.27    2.77   0
 -21  -1   0   48.13    5.52   0
 -19  -1  -1  161.42    8.20   0
 -17  -1  -2    2.88    2.74   0
 -36   0  15   -0.26    1.38   0
 -36   0  15    0.44    1.34   0
 -36   0  16    2.52    1.75   0
 -36   0  16    1.45    1.62   0
 -35   1  11    6.93    2.42   0
 -35   1  11    1.89    1.90   0
 -33   1   8    1.84    2.22   0
 -31  -1  10   -2.12    2.83   0
 -30   0   5   -0.07    2.42   0
 -29  -1   7   58.47    4.95   0
 -28   0   3   -1.92    2.74   0
 -27  -1   5  107.87    7.14   0
 -25  -1   3   40.80    4.64   0
 -24   0   0   35.90    4.55   0
 -15  -1  -2   10.30    2.94   0
 -36   0  17   -0.03    1.24   0
 -36   0  17    0.09    1.23   0
 -35   1  12   -0.33    2.33   0
 -34   0  11    1.76    2.16   0
 -33   1   9   20.07    3.55   0
 -32   0   8   61.52    5.14   0
 -31  -1  11   56.24    5.02   0
 -30   0   6   30.52    4.48   0
 -29  -1   8    1.33    3.33   0
 -28   0   4  110.37    6.96   0
 -26   0   2  120.13    7.10   0
 -25  -1   4    7.60    3.78   0
 -23  -1   2    7.31    3.12   0
 -22   0  -1   -1.59    2.70   0
 -21  -1   1  116.57    6.91   0
 -20   0  -2   39.75    4.65   0
 -19  -1   0   18.23    3.38   0
 -17  -1  -1  100.54    6.06   0
 -35   1  13   16.22    3.39   0
 -34   0  12   22.79    3.13   0
 -34   0  13    0.50    2.34   0
 -32   0   9   -0.46    2.35   0
 -31   1   7   36.20    4.38   0
 -29  -1   9   64.81    5.71   0
 -27  -1   6    0.38    2.98   0
 -24   0   1    0.52    2.83   0
 -23  -1   3   49.98    4.99   0
 -22   0   0   43.97    5.13   0
 -15  -1  -1   90.39    6.10   0
 -35   1  14   -1.73    2.35   0
 -34   0  14   22.28    3.47   0
 -33   1  10    0.42    2.19   0
 -32   0  10   53.67    4.63   0
 -30   0   7    0.71    2.56   0
 -29  -1  10    1.98    3.30   0
 -28   0   5   -2.13    2.89   0
 -27  -1   7  110.38    6.77   0
 -26   0   3   -0.91    3.15   0
 -25  -1   5   27.48    3.97   0
 -23  -1   4    6.72    3.80   0
 -21  -1   2   99.35    6.20   0
 -20   0  -1    0.39    2.70   0
 -19  -1   1   71.11    5.52   0
 -18   0  -2  308.28   10.61   0
 -17  -1   0    2.35    2.54   0
 -35   1  15   16.87    3.27   0
 -34   0  15    0.66    2.02   0
 -33   1  11   23.66    3.27   0
 -32   0  11    1.59    2.82   0
 -31   1   8    2.32    2.16   0
 -30   0   8   47.58    4.73   0
 -29  -1  11   81.91    5.69   0
 -28   0   6  138.67    7.74   0
 -27  -1   8   17.50    3.69   0
 -26   0   4  202.68    9.32   0
 -25  -1   6    5.31    3.18   0
 -24   0   2   63.67    5.37   0
 -22   0   1   -0.94    3.41   0
 -21  -1   3  212.68    8.68   0
 -19  -1   2    3.71    3.43   0
 -17  -1   1  233.95    9.33   0
 -16   0  -2  306.16   10.76   0
 -35   1  16    2.56    2.23   0
 -35   1  17    3.34    2.01   0
 -34   0  16   16.13    2.91   0
 -34   0  17   -0.46    1.85   0
 -29   1   6   -0.37    2.46   0
 -27  -1   9   62.89    5.29   0
 -25  -1   7   22.71    3.79   0
 -23  -1   5   35.86    4.41   0
 -20   0   0  215.20    9.02   0
 -18   0  -1   -0.96    2.54   0
 -23   3  16   12.63    4.66   0
 -23   3  26   -1.32    2.16   0
 -23   3  26    0.39    2.16   0
 -21   3  13   80.75    7.46   0
 -20   2   8  241.83   11.82   0
 -19   3  11  174.14   10.87   0
 -17   3   9  139.64    9.09   0
 -16   2   5   16.01    4.22   0
 -14   2   4  236.53   11.08   0
 -23   3  17   54.88    6.15   0
 -23   3  18    4.99    4.07   0
 -23   3  24   -3.75    5.36   0
 -23   3  25   23.35    5.31   0
 -21   3  14    9.28    4.73   0
 -20   2   9   20.36    5.80   0
 -19   3  12    3.29    6.16   0
 -18   2   7   -2.16    3.88   0
 -17   3  10    6.57    5.89   0
 -15   3   8   11.05    4.74   0
 -13   3   7  200.09   10.78   0
 -11   3   6   -0.14    3.65   0
 -23   3  19   49.00    5.84   0
 -23   3  20    2.08    3.62   0
 -23   3  21   42.48    5.54   0
 -23   3  22    3.49    3.31   0
 -23   3  23   53.30    6.05   0
 -21   3  15   64.75    7.27   0
 -21   3  16    6.32    5.56   0
 -21   3  26   -1.39    3.69   0
 -19   3  13  125.93    9.88   0
 -17   3  11   95.37    8.24   0
 -16   2   6  349.07   13.82   0
 -15   3   9  108.32    8.53   0
 -14   2   5   24.04    5.69   0
 -13   3   8    3.40    4.86   0
 -11   3   7   71.57    8.01   0
 -26   2  26   19.16    5.46   0
 -26   2  27   -0.13    2.48   0
 -26   2  27    0.17    2.25   0
 -22   2  12  116.49    8.71   0
 -21   3  17   56.06    6.62   0
 -21   3  18   -1.38    5.28   0
 -21   3  25   20.03    5.20   0
 -20   2  10  137.96    9.47   0
 -19   3  14   -3.54    4.75   0
 -18   2   8  223.14   11.31   0
 -17   3  12   31.38    7.06   0
 -15   3  10   14.68    4.89   0
 -26   2  21    5.80    3.62   0
 -26   2  22   18.97    4.29   0
 -26   2  23    0.74    3.01   0
 -26   2  24   11.61    4.02   0
 -26   2  25   -0.19    3.22   0
 -24   2  16   78.16    7.71   0
 -22   2  13   13.94    5.29   0
 -21   3  19   43.77    5.95   0
 -21   3  20    2.17    3.77   0
 -21   3  21   37.17    5.42   0
 -21   3  22    2.90    3.44   0
 -21   3  23   27.69    5.07   0
 -21   3  24    1.69    4.15   0
 -20   2  11    4.70    4.71   0
 -19   3  15   62.21    7.33   0
 -19   3  26   -0.31    2.63   0
 -19   3  26    0.69    2.79   0
 -18   2   9   -1.66    5.25   0
 -17   3  13   93.07    9.10   0
 -16   2   7   19.99    4.83   0
 -15   3  11  101.40    9.01   0
 -14   2   6  486.12   16.24   0
 -13   3   9  184.74   10.59   0
 -11   3   8    3.74    4.17   0
 -24   2  17   13.46    5.00   0
 -24   2  18   66.12    8.06   0
 -24   2  28   10.99    4.48   0
 -22   2  14  158.93   10.15   0
 -19   3  16    0.08    4.46   0
 -19   3  17   46.89    6.81   0
 -19   3  24    1.08    4.17   0
 -19   3  25   21.85    5.23   0
 -17   3  14    9.06    5.00   0
 -16   2   8  435.78   16.00   0
 -15   3  12   41.24    7.73   0
 -13   3  10   21.49    5.18   0
 -11   3   9  104.17    9.29   0
 -24   2  19    9.74    4.74   0
 -24   2  26   40.71    6.47   0
 -24   2  27   -1.21    4.13   0
 -22   2  15    0.50    4.84   0
 -22   2  29    0.73    2.57   0
 -22   2  29    0.88    2.39   0
 -20   2  12  213.27   11.57   0
 -19   3  18    5.23    4.73   0
 -19   3  19   30.49    5.85   0
 -19   3  20   -2.51    4.11   0
 -19   3  21   36.99    5.78   0
 -19   3  22    1.66    3.82   0
 -19   3  23   42.78    5.75   0
 -18   2  10  207.14   11.41   0
 -17   3  15   98.68    8.69   0
 -15   3  13  105.49    9.49   0
 -14   2   7    9.31    4.24   0
 -13   3  11  200.29   11.29   0
 -24   2  20   44.12    6.20   0
 -24   2  21    1.22    3.74   0
 -24   2  22   19.02    5.05   0
 -24   2  23    0.32    3.64   0
 -24   2  24   22.43    5.14   0
 -24   2  25    3.86    3.34   0
 -22   2  16  159.69   10.52   0
 -22   2  28   26.56    6.34   0
 -20   2  13   23.47    6.04   0
 -18   2  11   57.20    7.91   0
 -17   3  16    3.15    5.06   0
 -17   3  17  108.43    8.66   0
 -17   3  18    6.60    6.23   0
 -17   3  22    6.59    5.23   0
 -17   3  23   42.34    5.95   0
 -17   3  24    2.87    3.30   0
 -16   2   9    4.65    3.55   0
 -15   3  14    7.06    5.34   0
 -13   3  12   16.48    5.38   0
 -22   2  17   10.64    5.04   0
 -22   2  18  124.57   10.31   0
 -22   2  27    4.19    4.99   0
 -20   2  14  176.02   10.87   0
 -20   2  29    6.50    4.41   0
 -17   3  19   87.75    8.02   0
 -17   3  20    4.41    4.36   0
 -17   3  21   85.92    7.93   0
 -15   3  15  176.96   10.97   0
 -15   3  16   -1.42    6.18   0
 -14   2   8 1013.83   23.58   0
 -13   3  13  156.96   10.35   0
 -23   1  30   -0.48    3.41   0
 -23   1  30    0.50    2.30   0
 -22   2  19   15.02    5.91   0
 -22   2  20   83.37    9.09   0
 -22   2  25   -0.86    4.66   0
 -22   2  26   38.48    5.74   0
 -20   2  15   40.55    6.95   0
 -20   2  28   41.70    7.07   0
 -18   2  12  390.79   15.32   0
 -16   2  10  424.20   15.87   0
 -15   3  17  150.61   10.32   0
 -15   3  18    3.30    4.76   0
 -15   3  19  113.72    9.25   0
 -15   3  20    2.21    4.42   0
 -15   3  21   75.38    7.92   0
 -13   3  14    3.00    5.37   0
 -13   3  15  134.58   10.04   0
 -22   2  21    3.63    4.48   0
 -22   2  22   50.83    6.73   0
 -22   2  23   -0.89    4.19   0
 -22   2  24   36.07    5.78   0
 -20   2  16  103.91    9.18   0
 -20   2  27    2.48    4.66   0
 -18   2  13   89.52    8.30   0
 -18   2  29    2.50    4.44   0
 -16   2  11   28.83    5.79   0
 -14   2   9    9.78    4.59   0
 -13   3  16   10.01    4.89   0
 -23   1  29   49.20    6.73   0
 -20   2  17    6.31    4.83   0
 -20   2  18  102.53    8.92   0
 -20   2  26   34.51    5.76   0
 -18   2  14  248.75   12.77   0
 -18   2  28   48.86    7.06   0
 -16   2  12  286.78   13.50   0
 -16   2  29    1.02    4.16   0
 -14   2  10  583.29   18.36   0
 -23   1  27   39.00    6.23   0
 -23   1  28    4.37    3.50   0
 -21   1  30    1.78    4.24   0
 -20   2  19    5.78    5.45   0
 -20   2  20   98.32    9.03   0
 -20   2  21    1.99    5.17   0
 -20   2  22   79.73    8.09   0
 -20   2  23    3.37    4.47   0
 -20   2  24   60.22    7.07   0
 -20   2  25   -0.20    4.14   0
 -19   1  31    4.22    3.39   0
 -19   1  31    1.20    2.94   0
 -18   2  15    5.50    5.19   0
 -18   2  16  111.78   10.16   0
 -18   2  27    2.27    3.61   0
 -16   2  13   -2.37    6.27   0
 -16   2  28   33.53    6.51   0
 -14   2  11   14.69    6.13   0
 -23   1  25   24.79    5.35   0
 -23   1  26    2.47    3.55   0
 -21   1  29   43.63    6.72   0
 -18   2  17   14.97    5.93   0
 -18   2  25   -2.37    5.31   0
 -18   2  26   67.13    7.08   0
 -16   2  14  187.95   11.92   0
 -16   2  27   -0.58    4.62   0
 -14   2  28   27.30    6.10   0
 -21   1  28    0.85    3.89   0
 -19   1  30    0.63    4.77   0
 -18   2  18   98.67    9.14   0
 -18   2  19   24.11    6.18   0
 -18   2  20   65.00    8.03   0
 -18   2  21    3.52    7.03   0
 -18   2  22  100.92    9.78   0
 -18   2  23    3.70    4.85   0
 -18   2  24   73.91    7.76   0
 -17   1  31   15.98    5.12   0
 -16   2  15   40.71    6.87   0
 -16   2  26   53.19    6.63   0
 -15   1  31   14.89    6.27   0
 -14   2  12  353.56   15.08   0
 -14   2  27   -2.08    4.43   0
 -12   2  10  388.63   15.60   0
 -21   1  26   15.00    5.86   0
 -21   1  27   82.00    7.79   0
 -19   1  29   34.45    5.95   0
 -17   1  30   -1.38    6.11   0
 -16   2  16  188.42   11.45   0
 -16   2  17   45.95    8.71   0
 -16   2  24   67.31    8.66   0
 -16   2  25    5.20    4.34   0
 -14   2  13   -0.42    4.99   0
 -14   2  26   29.49    6.62   0
 -13   1  31    3.19    3.31   0
 -12   2  11    6.81    4.59   0
 -21   1  20    1.52    5.50   0
 -21   1  21  148.11   10.86   0
 -21   1  22    5.03    6.31   0
 -21   1  23   58.92    8.79   0
 -21   1  24    4.29    4.87   0
 -21   1  25   87.11    8.52   0
 -19   1  28   -1.80    3.63   0
 -16   2  18  147.24   10.96   0
 -16   2  19    9.76    5.95   0
 -16   2  20  101.39    9.71   0
 -16   2  21    4.96    5.74   0
 -16   2  22  121.37   10.02   0
 -16   2  23    6.36    5.57   0
 -14   2  14  420.08   16.56   0
 -14   2  15   10.20    6.16   0
 -14   2  25    3.72    4.62   0
 -12   2  12  388.70   16.01   0
 -19   1  17  258.93   14.46   0
 -19   1  27   90.95    8.35   0
 -18   0  31   -1.47    2.76   0
 -18   0  31   -0.23    2.78   0
 -17   1  29   40.31    6.41   0
 -15   1  30   -2.69    5.03   0
 -14   2  16  219.39   12.51   0
 -14   2  17    1.64    6.64   0
 -14   2  23    7.29    6.42   0
 -14   2  24   37.93    6.97   0
 -13   1  30    1.61    5.90   0
 -12   2  13   12.57    5.20   0
 -12   2  25    0.87    4.42   0
 -11   1  30    0.13    6.12   0
 -19   1  18   75.86    8.53   0
 -19   1  19  187.53   12.40   0
 -19   1  25  149.77   11.27   0
 -19   1  26    2.62    4.95   0
 -17   1  14    7.94    4.40   0
 -17   1  28   -2.98    4.01   0
 -15   1  29   35.77    6.22   0
 -14   2  18   91.47    8.86   0
 -14   2  19    0.77    5.09   0
 -14   2  20   90.24    9.30   0
 -14   2  21    4.00    5.63   0
 -14   2  22   92.71    9.05   0
 -12   2  14  385.18   16.21   0
 -12   2  15   40.95    7.89   0
 -12   2  23    0.36    6.07   0
 -12   2  24   32.39    6.43   0
 -10   2  12   81.73    8.15   0
 -19   1  20    0.16    5.34   0
 -19   1  21  123.94   10.69   0
 -19   1  22   14.59    6.01   0
 -19   1  23   74.96    8.99   0
 -19   1  24   14.34    6.16   0
 -18   0  30   23.51    5.43   0
 -17   1  15  714.46   22.31   0
 -17   1  27   93.57    8.24   0
 -16   0  31    0.30    4.46   0
 -15   1  28    1.08    4.98   0
 -13   1  29   15.23    5.36   0
 -12   2  16  117.00    9.82   0
 -12   2  17    8.92    6.80   0
 -12   2  21   20.28    7.41   0
 -12   2  22   34.36    6.78   0
 -10   2  13   -0.99    4.46   0
 -18   0  29    1.68    3.36   0
 -17   1  16    8.96    5.15   0
 -17   1  17  228.33   13.46   0
 -17   1  25  111.15   10.83   0
 -17   1  26    6.01    4.98   0
 -16   0  30   24.08    6.77   0
 -15   1  13  602.18   20.09   0
 -15   1  27   71.81    8.74   0
 -14   0  31   -1.05    4.56   0
 -13   1  28   -2.02    5.06   0
 -12   0  31   -0.04    5.09   0
 -12   2  18   31.30    7.15   0
 -12   2  19   15.43    6.18   0
 -12   2  20   48.45    7.45   0
 -11   1  29   25.53    6.47   0
 -10   2  14  239.54   13.27   0
 -10   2  15    2.90    6.07   0
 -18   0  28   16.44    5.04   0
 -17   1  18    3.25    5.58   0
 -17   1  19  135.77   10.85   0
 -17   1  20    5.07    6.66   0
 -17   1  21   60.17    9.71   0
 -17   1  22   45.09    8.58   0
 -17   1  23   78.38    8.82   0
 -17   1  24    9.81    6.05   0
 -15   1  14   26.70    6.60   0
 -15   1  26    5.80    6.43   0
 -11   1  28    2.62    4.02   0
 -10   2  16  120.71   10.36   0
 -10   2  17    7.90    5.48   0
 -10   2  18   92.53    9.35   0
 -10   2  19   58.33    8.03   0
 -10   2  20   53.52    8.13   0
  -9   1  28    0.57    5.54   0
 -18   0  27   -3.00    4.25   0
 -16   0  29    1.73    3.56   0
 -15   1  15  354.90   16.01   0
 -15   1  25   90.31    8.95   0
 -14   0  30    5.85    5.22   0
 -13   1  27   34.52    6.18   0
 -18   0  26   17.02    5.46   0
 -16   0  28   35.86    6.23   0
 -15   1  16    0.26    5.31   0
 -15   1  17  222.82   13.79   0
 -15   1  22   12.65    7.78   0
 -15   1  23   94.18    9.83   0
 -15   1  24   10.18    5.52   0
 -14   0  29    3.16    4.80   0
 -13   1  26    2.80    5.06   0
 -12   0  30    3.99    5.28   0
 -11   1  27   27.89    5.87   0
 -10   0  30    2.61    5.86   0
  -9   1  27   68.05    7.85   0
  -8   0  30   10.80    5.81   0
 -18   0  24   76.39    8.83   0
 -18   0  25   -4.01    4.92   0
 -16   0  27   -2.52    4.43   0
 -15   1  18    8.43    5.60   0
 -15   1  19  141.16   11.07   0
 -15   1  20   20.37    6.28   0
 -15   1  21  171.63   12.32   0
 -13  -1  30    0.35    6.00   0
 -13   1  14   59.42    8.21   0
 -13   1  24    8.64    7.46   0
 -13   1  25   40.51    7.47   0
 -12   0  29    1.15    4.86   0
 -11   1  26   11.37    5.11   0
  -9   1  26    0.67    5.75   0
 -16   0  26   34.92    6.82   0
 -14   0  28   21.60    5.48   0
 -13   1  15  257.44   13.78   0
 -13   1  16    4.82    5.65   0
 -13   1  22   11.70    7.63   0
 -13   1  23   63.42    8.53   0
 -11  -1  30   -0.35    5.79   0
 -11   1  25   19.73    6.27   0
 -10   0  29   -1.03    3.84   0
  -8   0  29    1.33    5.97   0
  -6   0  29   -0.70    4.82   0
 -16   0  24  114.20   10.78   0
 -16   0  25   -2.22    5.16   0
 -14   0  27   -2.82    4.53   0
 -13  -1  29   14.86    5.88   0
 -13   1  17  115.99   10.06   0
 -13   1  18   18.31    6.08   0
 -13   1  19   44.77    7.38   0
 -13   1  20   28.80    6.80   0
 -13   1  21   95.92    9.84   0
 -12   0  28    9.03    4.83   0
 -11   1  23   69.99   10.36   0
 -11   1  24   33.73    7.19   0
  -9  -1  30   -0.98    4.67   0
  -9   1  25   39.75    6.93   0
  -7  -1  30   -0.06    2.81   0
  -7  -1  30   -0.77    2.93   0
  -7   1  25   44.27    7.60   0
 -16   0  22   96.30   10.52   0
 -16   0  23    5.52    4.88   0
 -14   0  26   48.37    7.54   0
 -12   0  27   -1.70    4.70   0
 -11  -1  29   42.88    7.57   0
 -11   1  21   99.05   11.07   0
 -11   1  22   13.62    6.23   0
 -10   0  28   19.05    5.53   0
  -9   1  23  147.54   12.64   0
  -9   1  24   17.24    6.22   0
  -8   0  28   32.46    6.08   0
  -7   1  24    4.65    5.40   0
  -6   0  28   22.29    5.87   0
 -16   0  21    2.79    5.36   0
 -14   0  25   -0.33    5.24   0
 -13  -1  28    4.76    3.71   0
 -12   0  26   55.00    8.67   0
 -11   1  15  372.55   16.31   0
 -11   1  16   45.25    6.85   0
 -11   1  17  211.95   12.99   0
 -11   1  18    2.45    5.52   0
 -11   1  19   75.42    8.65   0
 -11   1  20   -2.32    5.69   0
 -10   0  27   -1.45    4.59   0
  -9  -1  29   51.27    7.51   0
  -9   1  22   -0.67    5.72   0
  -7  -1  29   40.43    8.09   0
  -7   1  23  124.46   11.93   0
  -5  -1  29   29.96    6.97   0
 -14   0  23   -3.01    5.40   0
 -14   0  24  188.76   12.16   0
 -13  -1  27   26.73    6.80   0
 -12   0  25   -4.35    6.75   0
 -11  -1  28    3.09    4.06   0
 -10   0  26  147.37   11.73   0
  -9   1  20    6.75    6.97   0
  -9   1  21  331.38   16.12   0
  -8   0  27   -1.34    4.42   0
  -7   1  22    1.46    5.65   0
  -6   0  27    2.48    4.09   0
  -4   0  27   -0.75    3.76   0
 -14   0  20  234.69   14.20   0
 -14   0  21   -0.25    5.45   0
 -14   0  22  168.75   11.85   0
 -12   0  24  104.17   10.86   0
  -9  -1  28   -2.18    4.00   0
  -9   1  15  412.11   17.18   0
  -9   1  16    4.15    5.57   0
  -9   1  17  281.79   15.01   0
  -9   1  18   14.57    5.82   0
  -9   1  19  235.39   13.84   0
  -8   0  26  156.41   12.00   0
  -7   1  21  327.16   16.25   0
  -5  -1  28    2.42    5.89   0
  -3  -1  28    1.64    5.05   0
 -14   0  18  464.82   18.45   0
 -14   0  19   -1.30    5.12   0
 -13  -1  26    3.93    4.77   0
 -12   0  23   -0.31    5.95   0
 -11  -1  27   29.96    6.29   0
 -10   0  25    1.33    5.47   0
  -8  -2  28   22.06    5.95   0
  -7  -1  28    2.55    3.97   0
  -7   1  19  297.23   15.12   0
  -7   1  20    3.29    5.26   0
  -6  -2  28   12.58    5.80   0
  -6   0  26  120.98    9.85   0
  -4  -2  28    3.47    3.35   0
  -4  -2  28    0.97    3.04   0
  -4   0  26   84.15    8.72   0
  -1  -1  27   22.73    8.07   0
 -13  -1  25   47.69    7.26   0
 -12   0  21    1.77    6.81   0
 -12   0  22   99.87    9.88   0
 -11  -1  26    9.53    4.62   0
 -10   0  24  186.88   12.42   0
  -9  -1  27   78.80    8.00   0
  -8   0  25    3.00    5.35   0
  -7  -1  27   54.15    7.90   0
  -7   1  15  239.38   14.04   0
  -7   1  16   11.16    4.86   0
  -7   1  17  200.22   12.85   0
  -7   1  18   13.02    5.76   0
  -6   0  25    1.25    5.20   0
  -4   0  25    2.40    5.90   0
  -3  -1  27   45.83    7.56   0
 -13  -1  24   10.47    5.28   0
 -12   0  18  330.44   16.23   0
 -12   0  19   -0.62    5.21   0
 -12   0  20   91.31    9.49   0
 -11  -1  25   14.42    7.15   0
 -10   0  22  113.49   10.96   0
 -10   0  23   -2.67    5.65   0
  -9  -1  26    0.70    5.66   0
  -8  -2  27    3.55    4.12   0
  -8   0  24  261.44   14.16   0
  -6  -2  27   -1.91    5.29   0
  -5  -1  27   36.08    5.96   0
  -5   1  17  303.15   15.78   0
  -5   1  18   67.52    8.25   0
  -4  -2  27   -1.38    6.56   0
  -2  -2  27    1.06    3.25   0
  -2  -2  27    3.37    3.10   0
   1  -1  26    0.24    4.88   0
 -13  -1  23   50.91    7.51   0
 -12   0  16   53.79    7.16   0
 -12   0  17    0.18    3.49   0
  -8   0  23   -2.13    5.98   0
  -7  -1  26    7.39    5.19   0
  -6   0  24  118.85   10.24   0
  -5   1  16   36.09    6.67   0
  -4   0  24  111.94   10.37   0
  -2   0  24   96.45    9.71   0
  -1  -1  26    2.85    4.32   0
  -4  -4  15    2.31    4.67   0
  -2  -4  15    7.33    5.04   0
  -1  -3  15  218.84   14.23   0
   0  -2  14  161.20   11.53   0
   1  -5  12    3.46    3.83   0
   2  -4  14   25.86    6.36   0
   3  -5  11   12.58    5.62   0
   3  -3  14    7.89    5.89   0
   4  -4  13   -5.79    5.18   0
   5  -3  13  136.13   11.12   0
   6  -4  12   47.13    6.67   0
   7  -3  12    1.46    5.98   0
   8  -4  11    1.24    4.81   0
   9  -5   8   -1.18    4.44   0
  -4  -2  14  190.03   11.74   0
  -3  -3  15  391.08   16.66   0
  -2  -2  14  207.60   12.28   0
  -1  -5  12    2.30    3.68   0
   0  -4  14   50.34    7.13   0
   1  -3  14   25.41    6.81   0
   2  -4  13    4.50    6.35   0
   2  -2  13    3.14    5.51   0
   4  -2  12  157.58   10.92   0
   5  -5  10   -0.17    4.46   0
   6  -2  11    4.56    5.48   0
   7  -5   9    9.24    4.85   0
  -4  -4  14   49.50    6.86   0
  -2  -4  14   56.61    6.96   0
  -2  -2  13   11.15    5.95   0
  -1  -3  14  125.66   10.42   0
   0  -2  13   39.14    6.94   0
   1  -5  11   32.04    5.44   0
   2  -2  12  154.62   11.34   0
   3  -5  10    3.79    4.74   0
   3  -3  13   33.43    7.25   0
   4  -4  12   60.15    7.61   0
   5  -3  12    0.26    6.08   0
   6  -4  11    5.93    5.08   0
   7  -5   8    2.32    4.66   0
   7  -3  11  155.31   11.15   0
   8  -4  10   54.70    6.95   0
   9  -5   7   24.46    5.39   0
  -4  -2  13    5.91    4.54   0
  -3  -3  14  212.66   12.47   0
  -2  -4  13    8.34    6.53   0
  -1  -5  11   36.47    5.61   0
   0  -4  13   -0.03    4.96   0
   1  -3  13   51.03    8.03   0
   2  -4  12   36.74    7.70   0
   4  -2  11   11.08    5.94   0
   5  -5   9   17.78    4.71   0
   6  -2  10  194.94   11.72   0
  -4  -4  13    5.09    4.90   0
  -1  -5  10   -0.12    4.86   0
  -1  -3  13  333.85   15.16   0
   0  -4  12   76.87    8.74   0
   0  -2  12  279.75   13.47   0
   1  -5  10    6.93    4.09   0
   2  -6   4    5.70    3.01   0
   3  -5   9   38.28    5.80   0
   3  -3  12    1.49    5.80   0
   4  -4  11    3.98    5.51   0
   5  -5   8   -1.06    5.41   0
   5  -3  11  123.81   10.32   0
   6  -4  10   66.46    7.86   0
   7  -5   7   29.81    6.36   0
   7  -3  10    3.79    5.76   0
   8  -4   9    4.29    4.87   0
   9  -5   6    1.50    3.81   0
  -3  -3  13  297.67   14.21   0
  -2  -4  12  110.60    9.80   0
  -2  -2  12  399.63   15.49   0
   1  -5   9   49.34    7.27   0
   1  -3  12   14.03    6.84   0
   2  -6   3   -1.44    4.39   0
   2  -4  11    9.17    6.83   0
   2  -2  11   46.51    6.15   0
   4  -2  10  196.03   11.52   0
   6  -2   9    5.88    4.80   0
  10  -4   7    7.02    4.93   0
  -1  -5   9   53.22    6.52   0
  -1  -3  12   45.89    7.72   0
   0  -4  11    8.60    6.77   0
   0  -2  11   22.22    5.73   0
   3  -5   8    3.23    4.58   0
   3  -3  11   22.82    6.67   0
   4  -6   2    2.08    2.66   0
   4  -6   2    1.66    2.55   0
   4  -4  10   76.14    7.75   0
   5  -5   7   50.70    6.41   0
   5  -3  10   22.24    6.46   0
   6  -4   9    5.07    5.22   0
   7  -5   6    4.25    4.11   0
   7  -3   9  143.95   10.18   0
   8  -4   8   74.81    7.58   0
   9  -5   5   24.65    4.99   0
  -3  -3  12    0.21    5.64   0
  -2  -4  11    5.58    5.41   0
   1  -5   8    0.58    4.14   0
   1  -3  11   70.84    8.51   0
   2  -6   2    3.18    2.86   0
   2  -6   2    1.35    2.57   0
   2  -4  10   35.89    6.58   0
   2  -2  10  238.24   12.19   0
   4  -6   1    0.84    2.31   0
   4  -2   9   24.90    5.75   0
   6  -6   0    0.01    2.60   0
   6  -6   0   -0.10    2.46   0
   6  -2   8   95.96    9.09   0
   9  -5   4    3.25    5.09   0
  10  -4   6   52.59    6.80   0
  -1  -5   8    1.33    4.23   0
  -1  -3  11  283.06   13.63   0
   0  -4  10   57.88    7.54   0
   2  -6   1   -1.26    2.39   0
   2  -6   1   -0.69    2.41   0
   3  -5   7   38.74    6.19   0
   3  -3  10   23.57    6.88   0
   4  -4   9    0.96    5.50   0
   5  -5   6    6.30    4.48   0
   5  -3   9   68.51    7.89   0
   6  -6  -1    1.12    2.26   0
   6  -4   8  130.49    9.24   0
   7  -5   5   35.87    6.29   0
   7  -3   8    0.30    5.49   0
   8  -4   7    3.77    5.48   0
  11  -5   2    3.85    3.73   0
  -3  -3  11  211.95   11.93   0
  -2  -4  10   60.97    7.46   0
  -1  -5   7   48.63    7.35   0
   1  -5   7   35.14    6.13   0
   1  -3  10    4.90    6.22   0
   2  -4   9   12.21    5.82   0
   3  -5   6    9.20    5.89   0
   4  -4   8   57.90    8.53   0
   7  -5   4    1.74    6.42   0
   8  -4   6   80.86    9.13   0
   9  -5   3   44.91    6.27   0
  10  -4   5   -2.96    5.00   0
  -1  -3  10   25.08    6.71   0
   0  -4   9    5.38    5.55   0
   1  -5   6   -2.65    5.75   0
   2  -6  -1   -0.22    2.39   0
   3  -3   9   37.34    6.96   0
   4  -6  -1    0.92    2.38   0
   4  -6  -1    0.72    2.48   0
   5  -5   5   25.81    5.68   0
   5  -3   8   14.83    6.10   0
   6  -6  -3    0.66    2.35   0
   6  -4   7    7.74    5.68   0
   7  -3   7   99.61    9.12   0
  11  -5   1   34.84    5.81   0
  -3  -3  10   45.78    7.10   0
  -2  -4   9    1.28    5.44   0
  -1  -5   6    5.69    4.65   0
   1  -3   9  200.82   11.53   0
   2  -6  -2    2.95    2.84   0
   2  -6  -2    0.61    2.62   0
   2  -4   8   45.71    7.15   0
   3  -5   5   23.91    5.81   0
   4  -6  -2    3.09    2.68   0
   4  -4   7    9.47    7.16   0
   5  -5   4    5.79    4.78   0
   6  -6  -4    1.54    2.55   0
   6  -4   6   24.26    7.81   0
   7  -5   3   57.41    7.11   0
   8  -4   5   12.35    6.00   0
   9  -5   2    8.38    4.57   0
  10  -4   4   28.92    6.51   0
  11  -5   0    6.26    5.37   0
  -1  -5   5   20.12    6.86   0
  -1  -3   9  289.69   13.25   0
   0  -4   8   81.43    8.31   0
   1  -5   5   22.69    5.63   0
   2  -6  -3    1.02    2.43   0
   2  -6  -3   -1.94    2.29   0
   3  -5   4    9.80    6.86   0
   3  -3   8   16.74    6.19   0
   4  -6  -4    1.73    2.63   0
   5  -3   7  108.01    9.26   0
   6  -6  -5    0.82    2.24   0
   7  -3   6    2.17    5.41   0
   9  -5   1   56.28    6.53   0
  10  -4   3   -0.54    6.53   0
  -3  -3   9  225.05   12.15   0
  -2  -4   8  122.48    9.47   0
   1  -5   4    6.16    5.96   0
   1  -3   8   17.96    5.39   0
   2  -6  -4    6.20    3.11   0
   2  -6  -4    1.47    2.64   0
   2  -4   7   41.44    6.86   0
   4  -6  -5   -0.76    2.24   0
   4  -6  -5   -1.68    2.19   0
   4  -4   6   10.61    6.19   0
   5  -5   3   21.07    5.89   0
   6  -4   5    2.75    5.57   0
   7  -5   2    2.82    4.80   0
   8  -4   4   69.73    8.01   0
  11  -5  -1   25.67    5.28   0
  -2  -4   7    9.98    6.23   0
  -1  -5   4    4.22    4.57   0
  -1  -3   8    6.18    6.97   0
   0  -4   7    4.68    5.88   0
   2  -4   6  112.92   10.50   0
   3  -5   3    4.87    5.69   0
   3  -3   7  337.95   14.08   0
   5  -5   2   14.02    5.37   0
   5  -3   6   19.78    6.34   0
   7  -5   1   41.83    6.46   0
   7  -3   5  246.45   12.06   0
   9  -5   0    2.18    4.56   0
  10  -4   2   66.53    8.97   0
  11  -5  -2    2.09    4.13   0
  -3  -3   8   11.39    5.39   0
  -1  -5   3   25.45    6.87   0
   0  -4   6  162.14   11.67   0
   1  -5   3   19.63    5.75   0
   1  -3   7  248.81   13.08   0
   3  -5   2    1.56    6.64   0
   4  -4   5   23.77    6.63   0
   6  -4   4   24.37    6.71   0
   7  -5   0    4.38    6.19   0
   8  -4   3   -0.27    5.86   0
   9  -5  -1   14.59    5.56   0
  11  -5  -3   11.52    6.57   0
  -2  -4   6  264.91   13.10   0
  -1  -3   7   98.29    9.01   0
   1  -5   2    8.22    7.01   0
   2  -4   5   12.66    7.64   0
   3  -3   6   28.03    6.21   0
   5  -5   1   19.25    5.78   0
   5  -3   5  162.27   11.22   0
   7  -3   4   53.56    7.87   0
   9  -5  -2   -0.91    6.22   0
  10  -4   1   12.39    5.91   0
  -3  -3   7  130.41    9.67   0
  -1  -5   2    4.98    5.01   0
   0  -4   5    4.32    7.38   0
   1  -3   6    7.89    6.53   0
   3  -5   1   41.87    6.83   0
   4  -4   4  133.01   10.13   0
   5  -5   0   19.58    5.86   0
   6  -4   3   22.15    6.52   0
   7  -5  -1   19.98    6.14   0
   8  -4   2   83.62    8.62   0
  11  -5  -4    1.64    4.24   0
  -2  -4   5   10.01    5.92   0
  -1  -5   1  103.78    8.99   0
   1  -5   1   65.09    8.00   0
   2  -4   4  239.02   12.47   0
   3  -5   0    8.14    5.33   0
   3  -3   5  300.49   13.34   0
   4  -4   3    9.47    8.00   0
   5  -3   4    6.72    6.44   0
   7  -5  -2    4.99    4.91   0
   7  -3   3  152.73   11.08   0
   8  -4   1    5.98    7.38   0
   9  -5  -3   19.15    5.54   0
  10  -4   0   91.10    8.99   0
  11  -5  -5   23.58    5.74   0
  -1  -3   6   -0.15    4.55   0
   0  -4   4  172.14   11.16   0
   1  -5   0   -1.90    5.33   0
   3  -5  -1   98.89    9.91   0
   6  -4   2   86.74    8.86   0
   9  -5  -4    7.76    5.12   0
  10  -4  -1    7.34    7.30   0
  11  -5  -6    1.51    4.36   0
  -2  -4   4  182.69   11.25   0
   1  -5  -1  103.10    9.16   0
   1  -3   5  158.95   10.33   0
   2  -4   3    2.94    5.70   0
   3  -3   4   16.48    6.60   0
   4  -4   2  213.57   12.15   0
   6  -4   1   17.93    7.79   0
   8  -4   0   98.44    9.41   0
   9  -5  -5   22.66    5.62   0
  11  -5  -7   37.57    6.27   0
  -2  -4   3   13.87    7.37   0
  -1  -3   5  184.42   11.28   0
   0  -4   3    5.68    5.92   0
   2  -4   2  156.93   11.79   0
   3  -5  -2   10.28    5.62   0
   5  -5  -3   53.16    7.46   0
   5  -3   3  118.64    9.12   0
   7  -3   2    9.22    5.27   0
   9  -5  -6    5.40    5.17   0
  10  -4  -2   81.77    9.05   0
  11  -5  -8    6.27    4.60   0
  -1  -5  -2    6.47    5.02   0
   0  -4   2   90.64   10.07   0
   1  -3   4   10.34    5.17   0
   3  -5  -3   55.92    7.83   0
   3  -3   3  362.24   15.28   0
   4  -4   1   14.18    6.52   0
   5  -5  -4    8.17    5.51   0
   6  -4   0  140.50   11.03   0
   7  -5  -5    9.39    5.57   0
   8  -4  -1   -0.60    5.94   0
   9  -5  -7   21.70    5.59   0
  11  -5  -9   45.44    6.37   0
  -2  -4   2   94.27    9.08   0
  -1  -5  -3   15.08    5.31   0
  -1  -3   4   31.40    5.63   0
   2  -4   1    7.69    6.13   0
   3  -5  -4    1.52    5.33   0
   4  -4   0  150.87   12.02   0
   5  -5  -5   37.90    6.97   0
   5  -3   2   11.39    5.31   0
   7  -3   1  147.16   10.38   0
   8  -4  -2   89.85   10.09   0
   9  -5  -8    3.36    4.88   0
  10  -4  -3    4.66    6.31   0
  11  -5 -11   40.00    6.98   0
  11  -5 -10    2.83    4.24   0
   0  -4   1   -1.18    6.18   0
   1  -3   3  419.18   16.04   0
   3  -5  -5   36.86    6.73   0
   5  -5  -6    2.00    5.40   0
   6  -4  -1    5.54    6.09   0
   9  -5 -10    5.10    5.90   0
   9  -5  -9   39.95    6.40   0
  10  -4  -4  115.82   10.12   0
  11  -5 -17   10.40    5.82   0
  11  -5 -13   14.43    5.66   0
  11  -5 -12    2.91    4.09   0
  -2  -4   1   16.34    6.15   0
  -1  -5  -6    2.50    4.75   0
   1  -5  -6   -2.77    5.14   0
   2  -4   0   98.64    9.41   0
   3  -5  -7   80.83    9.49   0
   3  -5  -6   -3.58    5.35   0
   3  -3   2   26.24    6.09   0
   4  -4  -1    6.63    6.29   0
   5  -3   1  277.00   13.35   0
   6  -4  -2  120.82   10.26   0
   7  -5  -9   59.88    7.52   0
   7  -3   0   22.98    5.23   0
   8  -4  -3    1.21    6.02   0
   9  -5 -18    1.40    2.63   0
   9  -5 -18    1.75    2.58   0
   9  -5 -12    0.77    5.29   0
   9  -5 -11   22.29    5.55   0
  11  -5 -16    3.17    4.39   0
  11  -5 -15    7.00    5.16   0
  11  -5 -14    1.00    4.45   0
  -2  -4   0   85.12    9.18   0
  -1  -5  -8   -0.97    5.69   0
  -1  -5  -7   33.61    6.06   0
   0  -4   0   31.41    7.02   0
   1  -5  -8    5.03    5.95   0
   1  -5  -7   46.44    7.27   0
   1  -3   2    8.13    4.95   0
   2  -4  -1   17.11    8.15   0
   3  -5 -17    0.76    3.90   0
   3  -5 -17    2.81    2.82   0
   3  -5  -8    8.30    5.40   0
   5  -5  -9   75.07    8.41   0
   7  -5 -18    1.16    2.67   0
   7  -5 -18   -0.94    2.47   0
   7  -5 -11   39.62    7.25   0
   7  -5 -10    2.63    4.83   0
   8  -4  -4  117.85   11.34   0
   9  -5 -17    8.61    5.10   0
   9  -5 -16   -2.75    4.73   0
   9  -5 -15   18.53    5.62   0
   9  -5 -14    4.92    4.50   0
   9  -5 -13   12.98    5.09   0
  10  -4  -5   21.86    6.48   0
   0  -4  -1    6.37    5.77   0
   1  -5 -15   11.76    4.91   0
   1  -5 -14    4.01    4.83   0
   1  -5 -10   -0.41    5.37   0
   1  -5  -9   45.01    6.69   0
   3  -5 -16   -0.18    4.33   0
   3  -5 -10    8.26    4.85   0
   3  -5  -9   63.65    7.63   0
   3  -3   1  532.81   18.37   0
   4  -4  -2  142.56   10.89   0
   5  -5 -17    9.62    4.88   0
   5  -5 -16    1.35    5.90   0
   5  -5 -12    1.86    5.27   0
   5  -5 -11   35.95    6.56   0
   5  -5 -10    3.95    4.86   0
   5  -3   0    3.41    4.81   0
   6  -4  -3    3.60    6.26   0
   7  -5 -17   11.83    5.08   0
   7  -5 -16   -1.64    4.96   0
   7  -5 -15   24.47    5.99   0
   7  -5 -14   -2.58    4.64   0
   7  -5 -13   22.27    5.55   0
   7  -5 -12   -2.77    4.30   0
   7  -3  -1  157.30   10.98   0
  10  -4  -6  107.09    9.72   0
  -2  -4  -1    0.75    5.66   0
   1  -5 -13   17.49    4.68   0
   1  -5 -12    2.72    3.56   0
   1  -5 -11   39.20    6.07   0
   2  -4  -2   97.94    9.57   0
   3  -5 -15   19.77    5.69   0
   3  -5 -14    0.60    4.23   0
   3  -5 -13   26.42    5.16   0
   3  -5 -12    0.42    4.30   0
   3  -5 -11   31.48    6.19   0
   4  -4  -3   10.17    6.43   0
   5  -5 -15   28.80    6.07   0
   5  -5 -14    1.97    4.46   0
   5  -5 -13   22.90    5.44   0
   6  -4  -4  170.79   11.77   0
   8  -4  -5    7.46    6.15   0
  10  -4  -7   10.40    7.65   0
  -2  -4  -2  162.63   11.41   0
   0  -4  -2  115.30    9.88   0
   2  -4  -3   15.19    6.30   0
   3  -3   0   12.21    4.99   0
   4  -4  -4  224.21   13.70   0
   5  -3  -1  381.71   15.53   0
   6  -4  -5   13.65    7.73   0
   7  -3  -2    5.79    4.73   0
   8  -4  -6  124.20   10.68   0
  10  -4  -8   15.53    7.46   0
  -2  -4  -3    6.75    7.24   0
   0  -4  -3    1.45    5.93   0
   8  -4  -7    0.03    5.99   0
   0  -4  -4  163.40   12.68   0
   2  -4  -4  150.30   11.29   0
   3  -3  -1  661.38   20.67   0
   4  -4  -5   13.40    6.35   0
   5  -3  -2   36.47    7.41   0
   6  -4  -6  180.05   11.76   0
   7  -3  -3  232.67   12.82   0
   8  -4  -8   30.08    8.56   0
  10  -4  -9    2.10    5.69   0
  -2  -4  -4  198.52   12.35   0
   0  -4  -5    1.84    6.39   0
   2  -4  -5    5.57    6.58   0
   4  -4  -6  266.46   13.87   0
   6  -4  -7   17.96    6.61   0
   8  -4  -9   10.68    7.33   0
  10  -4 -11    5.79    7.11   0
  10  -4 -10    6.59    5.68   0
  -2  -4  -5   12.51    5.87   0
   0  -4  -6  192.70   12.94   0
   2  -4  -6  285.49   14.65   0
   3  -3  -2   17.60    5.62   0
   4  -4  -7    2.86    6.44   0
   5  -3  -3  347.73   15.37   0
   6  -4  -8   80.17    9.31   0
   7  -3  -4   61.62    7.70   0
   8  -4 -10   48.43    8.73   0
  10  -4 -23   -1.11    4.23   0
  10  -4 -12   41.39    8.57   0
  12  -4 -21    2.17    5.16   0
  12  -4 -15    2.12    4.88   0
  12  -4 -14   47.92    7.63   0
  -2  -4  -6  122.65   10.62   0
   2  -4  -7    7.16    6.08   0
   4  -4  -8  123.64   10.69   0
   6  -4 -23    1.54    2.81   0
   6  -4 -23   -0.75    2.78   0
   6  -4  -9    2.11    6.00   0
   8  -4 -23   -0.74    4.36   0
   8  -4 -11   29.96    7.05   0
  10  -4 -22   21.16    5.96   0
  10  -4 -13    1.39    5.74   0
  12  -4 -20   24.26    5.42   0
  12  -4 -19    3.47    4.20   0
  12  -4 -18   46.27    6.89   0
  12  -4 -17    2.21    4.57   0
  12  -4 -16   45.28    7.27   0
 -20  -4  18   22.04    5.16   0
 -19  -3  19   37.36    6.73   0
 -18  -4  18   23.69    6.09   0
 -17  -5  15    1.53    4.50   0
 -17  -3  19   97.66   10.33   0
 -16  -4  18   46.94    7.37   0
 -15  -5  15    7.21    5.41   0
 -15  -3  19  172.97   12.12   0
 -14  -4  18   50.74    6.46   0
 -13  -5  15    3.10    4.58   0
 -13  -3  19  111.27    9.71   0
 -12  -4  18   19.38    5.66   0
 -12  -2  18   48.16    7.73   0
 -11  -5  15    2.00    4.50   0
 -10  -4  17    3.42    5.27   0
  -9  -1  15  328.64   14.35   0
  -8  -2  17   -3.57    6.10   0
  -7  -3  17  144.44   10.71   0
  -6  -2  16  254.30   13.11   0
  -4  -2  15   19.05    6.45   0
 -20  -4  17    3.29    4.71   0
 -19  -5  14   -0.01    3.29   0
 -16  -2  18  139.06   10.20   0
 -14  -2  18   88.11    9.18   0
 -12  -4  17    1.82    6.20   0
 -11  -5  14    3.85    5.05   0
 -11  -3  18   14.50    7.23   0
 -11  -1  15  310.60   13.94   0
 -10  -2  17    6.21    6.74   0
  -9  -3  17   54.26    9.66   0
  -8  -4  16   39.92    6.90   0
  -8  -2  16  197.41   12.88   0
 -19  -5  13    2.96    2.69   0
 -19  -5  13   -0.74    2.54   0
 -19  -3  18    9.95    5.88   0
 -18  -4  17   -1.62    4.18   0
 -17  -5  14    2.75    4.06   0
 -17  -3  18    9.56    6.39   0
 -16  -4  17   -3.98    4.70   0
 -15  -5  14    1.30    4.51   0
 -15  -3  18    4.46    6.62   0
 -14  -4  17    5.43    4.96   0
 -14  -2  17   -0.66    7.85   0
 -13  -5  14    3.45    4.53   0
 -13  -3  18    7.63    6.22   0
 -12  -2  17   12.14    6.54   0
 -10  -4  16   49.84    8.22   0
  -7  -3  16    7.26    6.33   0
  -6  -2  15   43.95    7.80   0
  -4  -2  14  195.91   11.85   0
 -20  -4  16   28.96    5.23   0
 -19  -5  12    0.62    4.68   0
 -19  -3  17   58.07    8.91   0
 -17  -5  13   17.98    5.82   0
 -16  -2  17   43.63    7.54   0
 -13  -3  17  110.71   11.49   0
 -12  -4  16   62.06    8.60   0
 -11  -5  13   12.94    6.15   0
 -11  -3  17   57.24    8.49   0
 -10  -2  16  135.93   10.29   0
  -9  -3  16   14.09    8.76   0
  -8  -4  15    1.28    5.60   0
 -20  -4  15    5.71    5.10   0
 -18  -4  16   45.74    6.12   0
 -17  -3  17  101.03   10.06   0
 -16  -4  16   66.02    7.22   0
 -15  -5  13   34.95    5.82   0
 -15  -3  17  177.79   11.62   0
 -14  -4  16   63.74    7.41   0
 -14  -2  16  197.58   12.82   0
 -13  -5  13   30.21    5.51   0
 -12  -2  16  120.16    9.97   0
 -10  -4  15    2.78    7.06   0
  -8  -2  15   35.91    6.63   0
  -7  -3  15  105.65    9.63   0
  -6  -2  14  198.77   11.28   0
  -4  -2  13    6.49    5.49   0
 -19  -5  11   12.41    4.32   0
 -19  -3  16    2.63    5.60   0
 -18  -4  15    2.94    5.82   0
 -17  -5  12    1.58    4.13   0
 -15  -5  12    0.72    5.15   0
 -13  -5  12   -1.00    5.12   0
 -13  -3  16    2.57    8.62   0
 -12  -4  15    5.06    5.35   0
 -11  -5  12    2.50    4.00   0
 -11  -3  16   13.62    6.98   0
 -10  -2  15    3.03    4.84   0
  -9  -3  15   27.00    8.23   0
  -8  -4  14   74.31    7.98   0
 -20  -4  14   27.93    5.29   0
 -19  -5  10    0.68    3.81   0
 -17  -5  11   18.98    5.35   0
 -17  -3  16    4.34    6.24   0
 -16  -4  15    4.69    4.97   0
 -15  -3  16    0.62    6.43   0
 -14  -4  15    5.54    5.39   0
 -14  -2  15   15.56    7.67   0
 -12  -2  15   36.82    7.04   0
 -11  -3  15   65.51    9.85   0
 -10  -4  14   31.48    6.77   0
  -8  -2  14  240.22   12.04   0
  -7  -3  14   25.43    7.13   0
  -6  -2  13    0.21    5.31   0
  -5  -3  13  127.71   11.19   0
 -20  -4  13   -0.36    5.08   0
 -19  -5   9   14.76    4.74   0
 -18  -4  14   41.26    6.31   0
 -17  -5  10    2.20    4.73   0
 -17  -3  15  104.41   10.62   0
 -16  -4  14   61.80    8.21   0
 -15  -5  11   33.99    5.86   0
 -15  -3  15  175.57   12.57   0
 -14  -4  14   70.48    8.45   0
 -13  -5  11   42.71    6.01   0
 -13  -3  15  176.50   11.02   0
 -12  -4  14   45.94    7.24   0
 -11  -5  11   42.41    5.78   0
 -10  -2  14  233.37   12.16   0
  -9  -3  14   28.71    8.12   0
  -8  -4  13    4.90    5.62   0
 -19  -5   8    1.77    4.35   0
 -18  -4  13    3.15    5.79   0
 -15  -5  10    2.83    5.10   0
 -14  -2  14  387.15   15.06   0
 -12  -2  14  377.01   14.83   0
 -11  -5  10    7.56    5.38   0
 -11  -3  14   27.96    8.65   0
 -10  -4  13    3.57    5.39   0
  -9  -5  10    5.10    4.12   0
  -8  -2  13   16.13    5.40   0
  -7  -3  13  108.60    9.38   0
  -6  -2  12  251.11   12.53   0
  -5  -3  12   36.65    8.07   0
 -20  -4  12   29.91    5.32   0
 -19  -5   7   10.70    4.40   0
 -17  -5   9   36.30    5.57   0
 -17  -3  14   15.02    6.00   0
 -16  -4  13    1.91    4.99   0
 -15  -3  14   17.11    6.39   0
 -14  -4  13    6.57    5.49   0
 -13  -5  10    3.73    3.87   0
 -13  -3  14    7.42    6.38   0
 -12  -4  13    5.83    5.22   0
 -10  -2  13    1.01    5.26   0
  -9  -5   9   37.70    6.64   0
  -9  -3  13   86.45   10.12   0
  -8  -4  12   64.65    7.54   0
 -20  -4  11   -0.26    3.85   0
 -19  -5   6    1.86    3.43   0
 -18  -4  12   42.87    6.44   0
 -17  -5   8    2.64    4.16   0
 -16  -4  12   71.47    8.19   0
 -15  -5   9   48.50    5.93   0
 -14  -2  13    3.36    3.86   0
 -13  -5   9   52.53    6.18   0
 -12  -4  12   66.84    8.90   0
 -12  -2  13    7.53    4.37   0
 -11  -5   9   40.09    6.19   0
 -11  -3  13   65.48    9.07   0
 -10  -4  12   37.95    6.80   0
  -8  -2  12  272.69   12.81   0
  -7  -3  12   25.49    6.48   0
  -5  -3  11  168.86   11.42   0
 -19  -5   4   -0.30    3.97   0
 -19  -5   5    3.86    3.73   0
 -18  -4  11    2.39    4.49   0
 -17  -5   7   36.82    5.35   0
 -17  -3  13   86.20    8.65   0
 -15  -5   8    6.09    3.98   0
 -15  -3  13  106.79    9.36   0
 -14  -4  12   89.54    8.27   0
 -13  -5   8    0.41    5.21   0
 -13  -3  13  168.73   10.59   0
 -11  -5   8    3.30    5.48   0
 -10  -4  11    5.29    6.48   0
 -10  -2  12   75.53    7.72   0
  -9  -5   8    2.16    4.14   0
  -9  -3  12    6.15    6.89   0
  -8  -4  11   28.33    5.89   0
 -17  -5   6   -1.31    3.69   0
 -17  -3  12   34.37    7.77   0
 -16  -4  11   -1.15    4.70   0
 -15  -5   7   55.11    6.17   0
 -14  -4  11    5.13    5.25   0
 -14  -2  12  306.27   13.61   0
 -12  -4  11    9.06    5.29   0
 -12  -2  12  388.62   14.97   0
 -11  -3  12   41.81    7.03   0
  -9  -5   7   18.17    6.34   0
  -8  -4  10   30.39    7.43   0
  -7  -3  11  308.93   13.51   0
 -18  -4  10   48.73    6.45   0
 -17  -5   5    9.00    4.03   0
 -16  -4  10   64.85    8.21   0
 -15  -5   6   -2.49    3.60   0
 -15  -3  12   47.05    7.11   0
 -13  -5   7   54.00    6.12   0
 -13  -3  12   13.04    5.85   0
 -11  -5   7   33.72    5.85   0
 -10  -4  10    9.37    6.52   0
  -9  -3  11  138.82   10.37   0
  -6  -4   9    2.33    4.95   0
  -5  -3  10   51.97    7.08   0
 -18  -4   9    2.35    4.41   0
 -17  -5   3   10.79    4.79   0
 -17  -5   4    0.94    3.75   0
 -17  -3  11   89.97    8.33   0
 -15  -3  11   96.90    9.05   0
 -14  -4  10  107.38    8.84   0
 -13  -5   6    6.08    4.01   0
 -13  -3  11  209.46   12.35   0
 -12  -4  10   58.20    7.33   0
 -12  -2  11   11.59    4.50   0
 -11  -5   6    0.63    4.08   0
 -11  -3  11   56.48    7.47   0
  -9  -5   6    4.25    4.24   0
  -8  -4   9    6.82    5.36   0
  -7  -3  10   43.25    7.75   0
 -18  -4   8   36.13    5.84   0
 -17  -5   1   20.06    5.90   0
 -17  -5   2    1.59    3.79   0
 -17  -3  10    6.40    6.27   0
 -16  -4   9   18.00    5.55   0
 -14  -4   9   12.75    5.21   0
 -13  -5   5   28.43    5.17   0
 -12  -4   9    2.20    6.31   0
 -11  -5   5   26.31    5.96   0
 -10  -4   9   -4.11    5.16   0
  -9  -5   5   13.03    5.85   0
  -9  -3  10    4.48    6.23   0
  -6  -4   8   78.23    8.23   0
  -5  -3   9  134.27    9.44   0
 -17  -5  -2   -0.15    2.32   0
 -17  -5  -1    8.67    3.45   0
 -17  -5  -1    4.97    3.05   0
 -17  -5   0   -1.10    3.91   0
 -16  -4   8   38.31    6.21   0
 -15  -5   3    6.09    3.59   0
 -15  -3  10   12.37    4.96   0
 -13  -5   4    2.21    3.84   0
 -13  -3  10   19.74    6.85   0
 -11  -3  10   14.17    5.22   0
  -8  -4   8   30.32    6.20   0
  -7  -5   4    4.62    4.15   0
  -7  -3   9  332.04   14.35   0
 -16  -4   7   16.84    6.35   0
 -15  -5   1   16.20    4.83   0
 -15  -5   2   -1.04    3.40   0
 -14  -4   8   93.33    8.32   0
 -13  -5   3   11.63    4.26   0
 -12  -4   8   63.88    7.33   0
 -11  -5   4   -1.02    3.98   0
 -10  -4   8    7.41    5.36   0
  -9  -5   4    2.38    4.38   0
  -9  -3   9  189.63   11.57   0
  -7  -5   3   25.67    7.02   0
  -6  -4   7   14.51    5.38   0
  -5  -3   8    8.35    4.61   0
 -15  -5  -1   27.52    5.71   0
 -15  -5   0   -2.22    3.85   0
 -15  -3   9  114.29    8.85   0
 -14  -4   7   19.40    5.57   0
 -13  -5   2    0.27    3.51   0
 -13  -3   9  180.23   10.61   0
 -12  -4   7    7.69    6.46   0
 -11  -5   3   14.22    4.55   0
 -11  -3   9  121.54    9.45   0
 -10  -4   7    4.45    5.27   0
  -9  -5   3   25.36    5.23   0
  -8  -4   7   10.23    5.12   0
  -7  -3   8   13.02    6.19   0
 -16  -4   6   58.71    7.09   0
 -15  -5  -5    2.40    2.82   0
 -15  -5  -4   -0.47    3.72   0
 -15  -5  -3   27.44    5.59   0
 -15  -5  -2    5.57    4.29   0
 -15  -3   8   10.05    6.24   0
 -14  -4   6   99.17    8.75   0
 -13  -5   0    2.07    4.50   0
 -13  -5   1   10.17    4.39   0
 -11  -5   2    0.33    4.09   0
  -9  -5   2    1.60    4.29   0
  -9  -3   8   13.48    6.40   0
  -8  -4   6  111.30   10.12   0
  -7  -5   2    3.71    4.24   0
  -6  -4   6  131.34    9.92   0
  -5  -3   7  191.60   11.39   0
 -16  -4   5    6.68    5.13   0
 -13  -5  -1   21.47    4.82   0
 -13  -3   8    7.06    4.75   0
 -12  -4   6  137.10   10.07   0
 -11  -3   8    0.29    4.37   0
 -10  -4   6   91.56    8.62   0
  -9  -5   1   16.53    4.85   0
  -7  -5   1   23.24    5.26   0
  -6  -4   5    3.86    6.29   0
 -16  -4   4  187.84   11.45   0
 -15  -3   7  231.51   12.12   0
 -14  -4   5   16.21    5.44   0
 -13  -5  -7    4.18    3.13   0
 -13  -5  -7    1.95    2.93   0
 -13  -5  -6    2.37    5.16   0
 -13  -5  -5   19.72    6.23   0
 -13  -5  -4   -1.54    5.42   0
 -13  -5  -3   30.65    5.70   0
 -13  -5  -2    3.61    3.43   0
 -12  -4   5    6.94    5.43   0
 -11  -5  -1   41.91    5.87   0
 -10  -4   5   15.92    7.22   0
  -9  -5   0    2.49    4.04   0
  -9  -3   7  173.83   10.85   0
  -8  -4   5    3.45    4.92   0
  -7  -5   0    7.78    4.27   0
  -7  -3   7  342.49   14.30   0
 -16  -4   3    9.62    5.28   0
 -14  -4   4  123.37    9.53   0
 -13  -3   7  194.32   11.27   0
 -11  -5  -3   30.86    6.09   0
 -11  -5  -2    0.80    3.59   0
 -11  -3   7   81.55    7.52   0
  -9  -5  -1   52.59    6.60   0
  -7  -5  -1   38.28    6.28   0
  -6  -4   4  163.79   10.80   0
  -5  -3   6    2.52    4.03   0
 -16  -4   2  156.61   10.24   0
 -15  -3   6    4.07    4.67   0
 -14  -4   3   11.06    5.16   0
 -13  -3   6   13.86    6.18   0
 -12  -4   4  112.63    9.33   0
 -11  -5  -9    1.19    2.99   0
 -11  -5  -9    1.35    2.75   0
 -11  -5  -8    1.90    4.63   0
 -11  -5  -7   24.69    6.64   0
 -11  -5  -6    3.69    5.53   0
 -11  -5  -5   24.29    5.40   0
 -11  -5  -4    1.16    3.59   0
 -11  -3   6   -0.22    5.54   0
 -10  -4   4  114.85    9.71   0
  -9  -3   6    6.62    5.60   0
  -8  -4   4  110.28    9.30   0
  -7  -5  -2    3.62    4.34   0
  -7  -3   6    8.73    4.63   0
  -5  -5  -2    9.19    4.82   0
 -16  -4   0   28.96    6.56   0
 -16  -4   1   10.41    4.67   0
 -15  -3   5  308.60   14.16   0
 -14  -4   2  146.23   10.49   0
 -12  -4   3    7.39    5.21   0
 -10  -4   3   11.74    5.35   0
  -9  -5 -11    1.18    2.85   0
  -9  -5 -11    0.72    2.78   0
  -9  -5 -10   -3.74    5.31   0
  -9  -5  -5   26.83    5.85   0
  -9  -5  -4    3.66    3.89   0
  -8  -4   3   -0.85    5.27   0
  -7  -5  -4    4.19    5.37   0
  -7  -5  -3   57.09    6.93   0
  -6  -4   3    9.15    5.01   0
  -5  -5  -4    3.06    5.46   0
  -5  -5  -3   26.17    5.65   0
  -5  -3   5  242.66   12.53   0
 -16  -4  -1   -1.28    4.40   0
 -14  -4   1   13.74    5.18   0
 -13  -3   5  340.84   14.65   0
 -12  -4   2   79.23    8.53   0
 -11  -3   5  143.55   10.59   0
 -10  -4   2   80.49    9.36   0
  -9  -5  -9    7.28    5.41   0
  -9  -5  -8   -2.96    4.88   0
  -9  -5  -7   26.68    5.40   0
  -9  -5  -6    2.71    3.73   0
  -9  -3   5  132.72   10.39   0
  -8  -4   2   88.25    9.91   0
  -7  -5 -12    0.98    2.65   0
  -7  -5 -12   -0.19    2.55   0
  -7  -5  -6    5.61    4.95   0
  -7  -5  -5   33.94    6.20   0
  -7  -3   5  190.70   11.25   0
  -6  -4   2  117.58    9.83   0
  -5  -5  -5   45.58    6.66   0
 -16  -4  -3   -0.46    4.13   0
 -16  -4  -2   27.69    5.41   0
 -14  -4   0  120.39    9.72   0
 -13  -3   4    5.77    6.11   0
 -12  -4   1    6.53    5.37   0
  -7  -5 -11    4.33    4.79   0
  -7  -5 -10   -1.03    4.91   0
  -7  -5  -9    7.13    5.03   0
  -7  -5  -8    0.39    3.68   0
  -7  -5  -7   30.13    5.48   0
  -5  -5 -13    2.47    3.37   0
  -5  -5 -13    0.85    2.98   0
  -5  -5  -7   43.80    7.00   0
  -5  -5  -6    4.98    4.30   0
  -5  -3   4   34.47    5.94   0
  -4  -4   1   12.25    5.44   0
 -14  -4  -2   74.58    8.92   0
 -14  -4  -1   14.44    5.87   0
 -12  -4   0   89.99    9.17   0
 -11  -3   4   38.20    6.34   0
 -10  -4   1    6.12    5.44   0
  -9  -3   4   64.78    7.47   0
  -8  -4   1   -4.35    5.03   0
  -7  -3   4   53.77    6.95   0
  -6  -4   1    3.18    5.79   0
  -5  -5 -12    2.11    4.71   0
  -5  -5 -11    2.97    5.25   0
  -5  -5 -10   -1.89    4.29   0
  -5  -5  -9   20.96    4.92   0
  -5  -5  -8    2.13    3.63   0
  -3  -5 -13    4.90    5.11   0
  -3  -5 -12    1.59    5.53   0
 -14  -4  -3    4.49    4.85   0
 -13  -3   3  383.59   16.02   0
 -12  -4  -1   21.31    6.25   0
 -10  -4   0   93.80    9.42   0
  -8  -4   0  101.96    9.52   0
  -6  -4   0  141.97   11.00   0
  -5  -3   3  364.07   15.68   0
  -4  -4   0  118.71   10.05   0
  -3  -5 -11   14.47    4.87   0
 -18  -4  -2   28.23    5.97   0
 -18  -4  -1    2.27    4.41   0
 -18  -4   0   13.68    5.44   0
 -16  -4  -4   43.73    7.12   0
 -16  -4  -3    2.14    4.98   0
 -16  -4  -2   29.09    6.53   0
 -16  -4  -1    0.35    5.04   0
 -16  -4   0   26.16    6.71   0
 -14  -4  -5    1.72    5.42   0
 -14  -4  -4   62.42    8.35   0
 -14  -4  -3    0.93    5.55   0
 -14  -4  -2   63.76    8.91   0
 -14  -4  -1   13.07    6.02   0
 -14  -4   0   95.85    9.90   0
 -12  -4  -5    7.18    5.48   0
 -12  -4  -4   61.16    8.57   0
 -12  -4  -3   14.66    6.61   0
 -12  -4  -2   49.99    8.17   0
  -3  -3  -2   31.94    6.74   0
  -1  -3  -9  192.41   13.08   0
  -1  -3  -8   24.02    6.72   0
  -1  -3  -7  243.48   14.72   0
 -21  -3  -9   21.55    7.82   0
  -5  -3   0    5.43    4.07   0
  -3  -3  -4   17.04    7.68   0
  -3  -3  -3  359.60   16.78   0
 -27  -3  -2    0.21    2.71   0
 -25  -3  -5    1.74    3.73   0
 -25  -3  -5    4.72    3.86   0
 -23  -3  -7    6.21    5.59   0
 -19  -3 -10   -1.24    5.14   0
  -5  -3  -1  276.58   14.58   0
  -3  -3  -9   34.58    7.04   0
  -3  -3  -8   17.35    6.26   0
  -3  -3  -7  325.62   15.91   0
  -3  -3  -6   15.75    6.11   0
  -3  -3  -5  276.82   14.42   0
 -27  -3  -1    3.45    5.17   0
 -25  -3  -4    1.17    4.96   0
 -23  -3  -6    1.91    6.52   0
 -21  -3  -8    5.29    5.44   0
  -5  -3  -9   69.48    9.19   0
  -5  -3  -3  111.96   10.34   0
  -5  -3  -2    5.72    5.02   0
 -25  -3  -3   11.24    5.80   0
 -23  -3  -5   12.83    6.07   0
 -21  -3  -7   33.24    7.18   0
 -19  -3  -9   30.51    6.41   0
 -17  -3 -10   -0.36    3.92   0
  -7  -3 -10    6.07    5.58   0
  -7  -3  -1  124.42   10.64   0
  -7  -3   0   26.61    5.91   0
  -5  -3  -8   16.90    6.11   0
  -5  -3  -7  110.74    9.84   0
  -5  -3  -6   14.95    5.64   0
  -5  -3  -5  162.57   11.35   0
  -5  -3  -4    3.11    4.86   0
 -25  -3  -2    3.42    4.26   0
 -25  -3  -1   16.06    5.50   0
 -23  -3  -4    2.31    4.80   0
 -21  -3  -6    1.12    4.58   0
 -19  -3  -8    4.23    4.38   0
 -17  -3  -9   34.12    6.30   0
 -15  -3 -10   -0.39    4.38   0
 -13  -3 -10   -1.33    5.96   0
 -11  -3 -10    2.63    6.72   0
  -9  -3 -10    6.62    5.69   0
  -7  -3  -9  141.30   11.14   0
  -7  -3  -8   -2.18    6.60   0
  -7  -3  -3  154.56   11.78   0
  -7  -3  -2    9.53    4.56   0
 -26  -2  -7    2.22    2.84   0
 -26  -2  -7    0.61    2.66   0
 -25  -3   0    3.34    3.16   0
 -24  -2  -9   -0.27    2.97   0
 -24  -2  -9    0.52    2.79   0
 -23  -3  -3    7.68    4.32   0
 -21  -3  -5   24.96    6.22   0
 -19  -3  -7   50.66    7.19   0
 -17  -3  -8    2.23    4.49   0
 -15  -3  -9   39.94    6.67   0
 -13  -3  -9   55.63    8.08   0
 -11  -3  -9   78.26    9.30   0
  -9  -3  -9  164.01   11.64   0
  -9  -3  -8   18.59    6.53   0
  -9  -3  -1  184.61   12.38   0
  -9  -3   0   32.08    6.71   0
  -7  -3  -7   99.75    9.36   0
  -7  -3  -6   -0.11    5.23   0
  -7  -3  -5  237.76   13.70   0
  -7  -3  -4   45.77    6.60   0
 -30  -2  -1   -0.18    2.65   0
 -28  -2  -4    5.76    4.96   0
 -28  -2  -4    4.50    3.57   0
 -23  -3  -2    4.10    4.52   0
 -23  -3  -1   12.45    5.02   0
 -23  -3   0    2.64    5.35   0
 -21  -3  -4    2.87    4.36   0
 -19  -3  -6   11.50    5.29   0
 -19  -3  -5   57.64    8.30   0
 -17  -3  -7   32.38    6.91   0
 -15  -3  -8   -1.19    4.91   0
 -15  -3  -7   60.80    9.03   0
 -13  -3  -8    7.12    5.53   0
 -11  -3  -8   11.18    6.01   0
 -11  -3  -7   90.48   10.18   0
 -11  -3   0   58.95    8.74   0
 -11  -3   1  255.89   14.17   0
  -9  -3  -7   84.03    9.10   0
  -9  -3  -6    1.81    5.20   0
  -9  -3  -5   84.21    8.94   0
  -9  -3  -4    3.77    5.38   0
  -9  -3  -3  156.48   10.83   0
  -9  -3  -2   20.18    6.30   0
 -30  -2   0    7.01    3.82   0
 -30  -2   0    1.65    3.41   0
 -26  -2  -6   30.53    6.69   0
 -24  -2  -8   19.54    6.45   0
 -21  -3  -3   19.78    5.36   0
 -21  -3  -2    2.25    4.51   0
 -21  -3  -1   18.22    6.62   0
 -21  -3   0   -0.61    5.71   0
 -21  -3   1   19.18    7.42   0
 -19  -3  -4    2.74    4.98   0
 -19  -3  -3   46.52    8.00   0
 -17  -3  -6   16.17    5.77   0
 -17  -3  -5   49.15    7.30   0
 -15  -3  -6   12.64    6.10   0
 -13  -3  -7  103.49    9.57   0
 -13  -3  -6   23.83    6.41   0
 -13  -3  -5  135.59   11.40   0
 -13  -3   0    2.58    5.55   0
 -13  -3   1  226.76   13.36   0
 -11  -3  -6   39.14    7.37   0
 -11  -3  -5   41.80    7.24   0
 -11  -3  -4   -0.14    5.06   0
 -11  -3  -3   81.75    9.06   0
 -11  -3  -2    6.47    4.86   0
 -11  -3  -1   83.06    9.16   0
 -28  -2  -3    0.16    4.98   0
 -26  -2  -5   -0.39    6.82   0
 -24  -2  -7   -1.30    5.54   0
 -22  -2  -9   -1.93    4.21   0
 -20  -2 -10    8.09    5.99   0
 -19  -3  -2    4.27    4.80   0
 -19  -3  -1   30.01    6.79   0
 -19  -3   0   -1.11    4.80   0
 -19  -3   1   54.86    8.06   0
 -17  -3  -4   -1.82    5.48   0
 -17  -3  -3   41.75    7.10   0
 -17  -3  -2   -2.25    6.76   0
 -17  -3  -1   78.29    9.47   0
 -17  -3   0   -3.20    6.53   0
 -17  -3   1   68.52    8.77   0
 -15  -3  -5   84.11    8.97   0
 -15  -3  -4    2.87    5.20   0
 -15  -3  -3  111.68   10.12   0
 -15  -3  -2   18.33    7.45   0
 -15  -3  -1  202.80   12.36   0
 -15  -3   0   25.88    6.10   0
 -15  -3   1  189.85   12.45   0
 -13  -3  -4    6.52    5.84   0
 -13  -3  -3  223.38   13.16   0
 -13  -3  -2   24.84    6.44   0
 -13  -3  -1  234.46   13.56   0
 -28  -2  -2   23.15    6.02   0
 -22  -2  -8   21.20    6.25   0
 -29  -1  -5    3.38    3.42   0
 -28  -2  -1    4.85    3.97   0
 -28  -2   0   27.35    6.33   0
 -26  -2  -4   24.24    6.21   0
 -24  -2  -6   34.15    5.99   0
 -20  -2  -9    0.36    4.10   0
 -18  -2 -10   47.71    6.93   0
 -28  -2   1    3.92    3.61   0
 -27  -1  -7    3.29    3.60   0
 -27  -1  -7    1.12    3.16   0
 -26  -2  -3    3.87    4.09   0
 -26  -2  -2   55.89    7.49   0
 -24  -2  -5    4.27    3.87   0
 -22  -2  -7    0.48    4.06   0
 -20  -2  -8   68.28    8.73   0
 -18  -2  -9    9.10    6.35   0
 -16  -2 -10   50.18    8.99   0
 -31  -1  -1    4.30    3.63   0
 -31  -1  -1   -0.36    3.21   0
 -29  -1  -4   -1.28    4.84   0
 -26  -2  -1    9.21    4.73   0
 -25  -1  -8    1.58    6.18   0
 -24  -2  -4   48.45    6.96   0
 -22  -2  -6   40.72    6.55   0
 -20  -2  -7   10.80    6.56   0
 -31  -1   0   -1.28    4.53   0
 -29  -1  -3   11.02    7.20   0
 -27  -1  -6    1.22    5.31   0
 -26  -2   0   42.78    6.95   0
 -26  -2   1    0.40    4.13   0
 -24  -2  -3    1.72    4.52   0
 -24  -2  -2   68.57    8.83   0
 -22  -2  -5    2.72    4.64   0
 -20  -2  -6  123.02   10.97   0
 -18  -2  -8   74.12    8.45   0
 -16  -2  -9    4.75    5.41   0
 -14  -2  -9    3.45    5.64   0
 -12  -2  -9    7.50    6.46   0
  -8  -2  -8  339.21   16.71   0
 -31  -1   1   11.92    5.32   0
 -27  -1  -5   17.73    6.02   0
 -25  -1  -7   20.42    5.20   0
 -24  -2  -1    3.62    4.81   0
 -24  -2   0   49.75    8.18   0
 -23  -1  -9   21.22    5.79   0
 -22  -2  -4   52.84    7.56   0
 -22  -2  -3    4.63    6.52   0
 -20  -2  -5    6.77    7.22   0
 -18  -2  -7    8.32    5.39   0
 -16  -2  -8   40.80    7.26   0
 -14  -2  -8  173.22   12.12   0
 -12  -2  -8  247.40   14.84   0
 -10  -2  -8  220.99   13.61   0
  -8  -2  -7    2.60    3.46   0
  -8  -2  -6  522.90   19.85   0
 -31  -1   2    2.53    3.93   0
 -30   0  -4   -0.93    3.12   0
 -30   0  -4    1.63    2.93   0
 -29  -1  -2    2.76    4.48   0
 -27  -1  -4    3.02    4.89   0
 -24  -2   1   32.96    6.53   0
 -24  -2   2   37.01    7.15   0
 -23  -1  -8    0.30    4.99   0
 -22  -2  -2   63.95    8.26   0
 -20  -2  -4  114.41   10.13   0
 -18  -2  -6   78.90    9.25   0
 -18  -2  -5   14.72    7.35   0
 -16  -2  -7    9.75    5.67   0
 -16  -2  -6   88.18   10.28   0
 -14  -2  -7   44.66    7.56   0
 -12  -2  -7   13.96    6.29   0
 -10  -2  -7    1.53    3.81   0
 -10  -2  -6  434.89   18.68   0
 -29  -1  -1   22.81    5.25   0
 -28   0  -6    4.37    3.73   0
 -28   0  -6    2.52    3.47   0
 -25  -1  -6    1.41    3.74   0
 -22  -2  -1   -2.75    5.34   0
 -22  -2   0  105.50    9.79   0
 -22  -2   1    8.68    5.56   0
 -22  -2   2   78.95    8.69   0
 -21  -1  -9   27.64    6.18   0
 -20  -2  -3   21.89    6.37   0
 -20  -2  -2  126.14   10.35   0
 -18  -2  -4   81.94    9.03   0
 -16  -2  -5    4.27    5.56   0
 -14  -2  -6  305.94   15.31   0
 -14  -2  -5   31.61    8.05   0
 -12  -2  -6  343.10   15.73   0
 -12  -2  -5   20.78    6.95   0
 -10  -2  -5   33.89    6.48   0
 -10  -2  -4  573.35   20.12   0
 -32   0   0    4.11    3.78   0
 -32   0   0   -0.74    3.20   0
 -30   0  -3   -0.86    3.36   0
 -30   0  -3   -0.27    3.35   0
 -29  -1   0    1.48    3.77   0
 -29  -1   1   35.21    6.64   0
 -27  -1  -3   42.40    6.46   0
 -25  -1  -5   49.23    6.78   0
 -23  -1  -7   36.22    6.64   0
 -20  -2  -1   15.53    6.28   0
 -20  -2   0  102.55    9.87   0
 -20  -2   1    1.94    5.33   0
 -20  -2   2   70.98    8.37   0
 -18  -2  -3    0.88    5.56   0
 -18  -2  -2   67.25    8.18   0
 -18  -2  -1   36.96    7.70   0
 -18  -2   0  117.49   10.90   0
 -16  -2  -4   71.63    8.29   0
 -16  -2  -3    5.91    5.06   0
 -16  -2  -2  124.69   10.76   0
 -14  -2  -4  332.52   15.47   0
 -14  -2  -3    2.28    6.45   0
 -14  -2  -2  318.54   15.80   0
 -14  -2   1   12.82    6.61   0
 -12  -2  -4  371.40   16.49   0
 -12  -2  -3   35.83    6.55   0
 -12  -2  -2  586.76   19.98   0
 -12  -2  -1   46.25    7.06   0
 -32   0   1   -2.35    4.47   0
 -29  -1   2   -0.80    3.79   0
 -28   0  -5   -0.57    5.03   0
 -27  -1  -2   -3.26    4.47   0
 -26   0  -7    1.37    4.42   0
 -25  -1  -4    3.17    4.57   0
 -23  -1  -6   10.03    5.20   0
 -21  -1  -8   -1.48    4.70   0
 -19  -1  -9   22.61    6.10   0
 -18  -2   1    0.13    4.68   0
 -16  -2  -1    4.90    4.96   0
 -16  -2   0  221.91   12.89   0
 -16  -2   1    3.45    4.45   0
 -14  -2  -1   -2.48    4.47   0
 -14  -2   0  327.12   15.16   0
 -32   0   2    2.20    4.37   0
 -30   0  -2    2.69    5.40   0
 -28   0  -4   19.59    6.08   0
 -27  -1  -1   53.63    6.97   0
 -27  -1   0   -2.10    5.56   0
 -25  -1  -3   66.51    7.79   0
 -24   0  -8   51.54    7.32   0
 -23  -1  -5   41.17    7.82   0
 -21  -1  -7   27.95    6.47   0
 -19  -1  -8    4.84    6.50   0
 -32   0   3    0.74    3.16   0
 -30   0  -1   -3.34    4.25   0
 -27  -1   1   83.06    8.30   0
 -27  -1   2    3.85    5.67   0
 -26   0  -6   36.43    5.97   0
 -25  -1  -2    2.75    4.55   0
 -23  -1  -4    7.27    6.69   0
 -21  -1  -6   25.52    5.86   0
 -33   1   3    7.07    6.12   0
 -31   1  -1    6.88    5.43   0
 -30   0   0    5.56    4.06   0
 -29   1  -4   -1.17    2.80   0
 -29   1  -4   -2.61    2.69   0
 -28   0  -3   -0.23    3.50   0
 -27  -1   3  128.45   10.14   0
 -26   0  -5    2.67    4.60   0
 -25  -1  -1   98.23    9.00   0
 -25  -1   0    5.26    5.87   0
 -24   0  -7    0.03    4.70   0
 -23  -1  -3  147.75   11.33   0
 -21  -1  -5   74.28    8.45   0
 -19  -1  -7   24.33    6.27   0
 -17  -1  -8   29.76    6.41   0
 -30   0   1   -0.26    3.16   0
 -28   0  -2   38.25    5.84   0
 -27   1  -6   -1.52    4.73   0
 -25  -1   1   93.17    8.94   0
 -25  -1   2    8.08    5.86   0
 -23  -1  -2   17.18    6.13   0
 -22   0  -8   89.04    9.37   0
 -21  -1  -4   13.40    5.80   0
 -19  -1  -6    1.67    5.10   0
 -17  -1  -7  111.18    9.52   0
 -15  -1  -8    5.21    4.95   0
 -31   1   0   -1.54    4.24   0
 -30   0   2   23.12    5.03   0
 -30   0   3   -3.30    4.18   0
 -29   1  -3    5.93    5.24   0
 -28   0  -1   -3.31    4.75   0
 -26   0  -4   60.00    7.01   0
 -25  -1   3   32.60    6.20   0
 -24   0  -6   59.12    7.17   0
 -23  -1  -1  126.51   10.02   0
 -23  -1   0    0.02    5.12   0
 -21  -1  -3  170.82   10.90   0
 -19  -1  -5  147.76   10.23   0
 -17  -1  -6   29.24    6.07   0
 -15  -1  -7  121.11    9.88   0
 -31   1   1   17.87    4.66   0
 -28   0   0   75.15    6.97   0
 -27   1  -5   16.88    5.02   0
 -26   0  -3    2.66    3.94   0
 -24   0  -5   -3.18    3.84   0
 -23  -1   1   52.56    6.77   0
 -22   0  -7    2.19    4.06   0
 -21  -1  -2   -3.47    4.45   0
 -19  -1  -4   10.61    5.00   0
 -17  -1  -5  119.49    9.20   0
 -15  -1  -6    0.70    4.24   0
 -13  -1  -7  408.27   16.34   0
 -11  -1  -7  408.61   16.47   0
 -36   0  16    3.02    1.81   0
 -36   0  16    2.01    1.77   0
 -35  -1  13   15.46    3.01   0
 -33  -1  10   -0.40    1.92   0
 -30   0   6   27.81    3.78   0
 -29  -1   5   53.28    4.82   0
 -28   0   4   98.41    6.08   0
 -27   1   5  104.80    6.47   0
 -25  -1   2    5.41    3.97   0
 -24   0   1    1.38    2.95   0
 -23   1   2    6.26    3.16   0
 -22   0   0   46.07    5.22   0
 -21   1   1  112.20    7.08   0
 -20   0  -1   -0.37    3.18   0
 -19   1   0   11.71    3.68   0
 -18   0  -2  306.94    9.87   0
 -17   1  -1  100.36    6.43   0
 -16   0  -3    0.76    2.48   0
 -36   0  17    0.33    1.33   0
 -36   0  17    0.10    1.23   0
 -36   0  18    1.68    2.16   0
 -36   0  18    1.61    1.63   0
 -35  -1  14    1.33    2.32   0
 -34   0  12   24.48    3.50   0
 -33  -1  11   24.91    3.31   0
 -32   0   9   -0.68    2.42   0
 -31  -1   8    1.03    2.07   0
 -30   0   7   -0.49    2.60   0
 -29  -1   6   -0.47    3.35   0
 -28   0   5    1.21    3.85   0
 -27  -1   4   12.10    3.63   0
 -27   1   6   -0.09    3.87   0
 -26   0   3    2.50    3.19   0
 -25   1   4    4.65    3.05   0
 -23  -1   1   56.87    5.02   0
 -21  -1   0   35.87    4.94   0
 -35  -1  15   18.61    3.30   0
 -34   0  13    0.44    2.02   0
 -32   0  10   56.38    4.58   0
 -26   0   4  205.32    8.79   0
 -25  -1   3   34.56    4.54   0
 -25   1   5   18.57    4.29   0
 -24   0   2   56.46    5.22   0
 -23   1   3   43.78    4.85   0
 -22   0   1   -1.61    2.92   0
 -21   1   2   97.26    6.48   0
 -20   0   0  227.52    8.74   0
 -19   1   1   69.88    5.35   0
 -18   0  -1   -1.45    3.45   0
 -17   1   0    0.89    2.66   0
 -16   0  -2  333.75   10.42   0
 -34   0  14   25.31    3.54   0
 -33  -1  12    3.99    2.05   0
 -31  -1   9   41.64    3.87   0
 -30   0   8   53.93    4.57   0
 -29  -1   7   53.65    4.91   0
 -28   0   6  143.91    7.14   0
 -27  -1   5  104.68    6.68   0
 -24   0   3   -2.58    3.61   0
 -23  -1   2    6.91    3.00   0
 -23   1   4    6.02    3.85   0
 -21  -1   1  110.65    7.18   0
 -35  -1  18    1.11    2.39   0
 -34   0  15    0.97    2.32   0
 -33  -1  13   22.63    3.21   0
 -31  -1  10    0.25    2.18   0
 -30   0   9    1.26    2.67   0
 -29  -1   8    1.26    3.57   0
 -28   0   7    2.68    3.98   0
 -27  -1   6    1.14    3.77   0
 -26   0   5    0.71    3.19   0
 -25  -1   4    3.19    3.00   0
 -22   0   2  204.96    8.37   0
 -21   1   3  200.22    8.64   0
 -20   0   1   -1.49    3.62   0
 -18   0   0  356.97   10.88   0
 -16   0  -1    1.04    2.16   0
 -35  -1  19    5.43    2.06   0
 -35  -1  19    3.00    1.79   0
 -35  -1  20   -0.81    1.40   0
 -35  -1  20   -0.05    1.39   0
 -33  -1  14    5.13    2.22   0
 -30   0  10   81.86    6.00   0
 -24   0   4   31.94    4.26   0
 -23  -1   3   45.75    4.92   0
 -21  -1   2   92.27    6.67   0
 -34   0  18    8.41    2.95   0
 -33  -1  15   20.81    3.36   0
 -32   0  13   -1.62    2.38   0
 -29  -1   9   61.57    5.13   0
 -28   0   8  190.86    8.19   0
 -27  -1   7  110.00    6.54   0
 -26   0   6  173.37    7.81   0
 -25  -1   5   25.13    4.05   0
 -22   0   3    1.49    2.85   0
 -20   0   2  437.00   12.15   0
 -34   0  19    1.24    2.35   0
 -34   0  20    9.30    2.82   0
 -34   0  21    1.20    2.73   0
 -34   0  22    6.08    2.95   0
 -33  -1  16    1.96    2.29   0
 -32   0  14   41.71    4.07   0
 -30   0  11    0.38    2.81   0
 -29  -1  10    2.33    3.43   0
 -28   0   9    2.72    4.24   0
 -26   0   7    3.33    4.08   0
 -25  -1   6    4.49    3.90   0
 -24   0   5   -1.27    2.90   0
 -23  -1   4    7.09    3.23   0
 -21  -1   3  198.98    9.05   0
 -18   0   1    0.07    2.51   0
 -33  -1  17   34.87    4.05   0
 -33  -1  18    2.26    2.98   0
 -31  -1  13   56.05    4.56   0
 -30   0  12   64.13    5.14   0
 -27  -1   8   21.75    3.77   0
 -22   0   4  354.50   10.77   0
 -20   0   3   -0.74    3.54   0
 -19  -1   2    4.90    2.75   0
 -33  -1  19   27.82    3.87   0
 -31  -1  14   -1.85    2.47   0
 -30   0  13   -0.26    2.68   0
 -29  -1  11   85.10    5.72   0
 -28   0  10  148.31    7.43   0
 -27  -1   9   66.57    5.46   0
 -26   0   8  195.86    8.44   0
 -25  -1   7   25.02    4.06   0
 -24   0   6   67.83    5.35   0
 -23  -1   5   36.34    4.58   0
 -21  -1   4   26.43    4.70   0
 -18   0   2  129.96    6.83   0
 -33  -1  20    1.46    2.65   0
 -33  -1  21   25.15    3.97   0
 -33  -1  22    0.03    2.69   0
 -33  -1  23   13.13    3.17   0
 -33  -1  23    7.74    2.36   0
 -33  -1  24    0.75    1.58   0
 -33  -1  24    0.13    1.49   0
 -32   0  18   42.65    4.17   0
 -31  -1  15   55.20    4.77   0
 -30   0  14   69.42    5.28   0
 -29  -1  12    4.43    2.86   0
 -28   0  11    2.60    2.86   0
 -26   0   9   -3.69    4.14   0
 -24   0   7    2.71    3.73   0
 -23  -1   6    7.07    3.18   0
 -22   0   5   -1.12    2.99   0
 -20   0   4  330.38   10.75   0
 -19  -1   3  324.92   11.10   0
 -32   0  19    0.86    2.29   0
 -32   0  20   58.41    4.69   0
 -32   0  21   -1.31    2.57   0
 -31  -1  16   -0.63    2.62   0
 -30   0  15   -1.10    2.94   0
 -29  -1  13  147.15    7.10   0
 -27  -1  10    2.64    3.23   0
 -25  -1   8    7.59    3.15   0
 -22   0   6  456.52   12.32   0
 -21  -1   5  343.76   11.60   0
 -18   0   3    0.95    2.18   0
 -32   0  22   27.58    3.92   0
 -32   0  23    1.09    2.43   0
 -30   0  16   79.71    5.66   0
 -27  -1  11  117.13    6.81   0
 -26   0  10   54.66    5.04   0
 -25  -1   9   57.98    5.68   0
 -24   0   8   67.46    5.32   0
 -23  -1   7   37.95    4.45   0
 -20   0   5   -4.31    3.54   0
 -19  -1   4    7.42    3.06   0
 -31  -1  19   32.15    4.15   0
 -30   0  17    0.20    2.75   0
 -27  -1  12    0.21    4.16   0
 -26   0  11    1.09    3.02   0
 -24   0   9   -1.11    3.96   0
 -22   0   7   -0.85    3.16   0
 -21  -1   6    7.73    3.98   0
 -18   0   4   26.27    3.60   0
 -31  -1  20    3.29    2.77   0
 -31  -1  21   47.51    4.91   0
 -31  -1  22   -0.81    3.47   0
 -31  -1  23   60.70    5.42   0
 -31  -1  24    2.49    3.70   0
 -31  -1  25   20.89    4.01   0
 -31  -1  26    0.99    1.70   0
 -31  -1  26    0.99    1.54   0
 -30   0  18   75.57    5.54   0
 -30   0  19   -0.54    3.30   0
 -28   0  14   37.21    4.36   0
 -26   0  12    2.76    3.90   0
 -25  -1  10    2.33    3.06   0
 -23  -1   8   36.12    4.51   0
 -20   0   6  417.69   12.16   0
 -19  -1   5  375.34   11.93   0
 -30   0  20   83.03    5.68   0
 -30   0  21    0.99    2.40   0
 -30   0  22   33.93    4.62   0
 -30   0  25   -1.26    3.02   0
 -29  -1  17   56.73    5.28   0
 -28   0  15   -2.67    3.17   0
 -27  -1  13  172.94    7.80   0
 -25  -1  11  116.55    7.27   0
 -24   0  10   51.30    5.18   0
 -22   0   8  393.25   11.75   0
 -21  -1   7  276.47   10.49   0
 -18   0   5    0.86    2.14   0
 -30   0  23    0.03    2.14   0
 -30   0  24   25.67    3.80   0
 -29  -1  18    2.02    3.23   0
 -29  -1  28    0.61    2.10   0
 -29  -1  28   -0.32    1.43   0
 -27  -1  14    6.07    3.57   0
 -26   0  13   -0.58    2.94   0
 -24   0  11    0.17    3.79   0
 -23  -1   9   68.45    5.61   0
 -20   0   7    0.25    2.74   0
 -19  -1   6    6.00    3.08   0
 -29  -1  19   40.59    5.00   0
 -29  -1  20    0.97    3.14   0
 -29  -1  27   19.90    4.15   0
 -28  -2  23    4.27    2.13   0
 -28  -2  24    8.56    2.77   0
 -28  -2  25   -0.27    2.14   0
 -28   0  18  135.90    7.48   0
 -27  -1  15   80.21    5.98   0
 -26   0  14   12.49    3.78   0
 -25  -1  12   11.47    3.87   0
 -23  -1  10   31.99    4.34   0
 -22   0   9    0.45    3.22   0
 -21  -1   8   33.75    4.43   0
 -29  -1  21   51.04    5.16   0
 -29  -1  22   -0.84    2.77   0
 -29  -1  23   54.36    4.96   0
 -29  -1  24    0.35    2.72   0
 -29  -1  25   30.37    4.22   0
 -29  -1  26    1.53    2.93   0
 -28   0  19   -3.06    3.12   0
 -28   0  20  127.76    7.47   0
 -27  -1  16   18.62    4.17   0
 -26   0  15    3.22    3.08   0
 -25  -1  13  121.34    7.08   0
 -24   0  12   29.37    4.34   0
 -22   0  10  361.35   11.58   0
 -20   0   8  499.04   13.51   0
 -19  -1   7  110.96    7.01   0
 -28   0  21   -2.06    2.87   0
 -28   0  22   61.43    5.35   0
 -28   0  23   -2.60    2.55   0
 -28   0  24   27.47    3.88   0
 -28   0  25   -1.09    2.09   0
 -28   0  26   16.59    3.69   0
 -27  -1  17   48.11    5.35   0
 -27  -1  18   20.18    5.14   0
 -27  -1  29    3.85    2.36   0
 -27  -1  29    0.97    1.82   0
 -26  -2  27    0.11    1.35   0
 -26  -2  27   -0.07    1.35   0
 -26   0  16  116.56    7.24   0
 -25  -1  14    7.10    3.56   0
 -24   0  13   -2.93    3.09   0
 -23  -1  11  118.08    7.02   0
 -21  -1   9  240.23    9.86   0
 -27  -1  19   58.51    6.14   0
 -27  -1  28    1.61    2.64   0
 -26  -2  21   -1.08    2.90   0
 -26  -2  22   12.76    3.50   0
 -26  -2  24    9.51    3.10   0
 -26  -2  25    0.76    2.44   0
 -26  -2  26   14.36    3.22   0
 -26   0  17   -5.85    3.31   0
 -26   0  18  144.19    8.13   0
 -25  -1  15   43.29    5.14   0
 -24   0  14   10.56    3.86   0
 -23  -1  12   17.33    4.21   0
 -22   0  11    2.10    3.16   0
 -21  -1  10   16.88    4.28   0
 -20   0   9    2.01    2.99   0
 -19  -1   8    3.84    3.03   0
 -27  -1  20   -0.27    3.65   0
 -27  -1  21   60.89    6.01   0
 -27  -1  22    7.07    4.49   0
 -27  -1  23   55.71    5.84   0
 -27  -1  24    7.04    3.74   0
 -27  -1  25   20.16    4.25   0
 -27  -1  26    0.74    2.46   0
 -27  -1  27   13.18    3.74   0
 -26  -2  23    0.10    2.03   0
 -26   0  19   -7.62    3.35   0
 -25  -1  16    2.74    3.61   0
 -25  -1  30    0.26    1.49   0
 -24  -2  28    2.64    3.37   0
 -24   0  15   -1.46    4.20   0
 -23  -1  13  204.74    9.43   0
 -22   0  12   84.24    6.36   0
 -20   0  10  536.72   14.39   0
 -26   0  20   91.49    6.67   0
 -26   0  21    0.60    3.03   0
 -26   0  22   55.90    5.94   0
 -26   0  23    3.06    3.67   0
 -26   0  24   34.37    4.93   0
 -26   0  25   -0.83    2.97   0
 -26   0  26   20.73    3.64   0
 -25  -1  17   19.99    4.56   0
 -25  -1  29   20.03    4.14   0
 -24  -2  27    0.01    2.80   0
 -24   0  16   95.71    6.74   0
 -23  -1  14   52.77    5.85   0
 -22   0  13    1.14    3.76   0
 -21  -1  11  198.35    8.94   0
 -19  -1   9  144.26    7.69   0
 -25  -1  18   17.29    4.40   0
 -25  -1  19   40.51    6.41   0
 -25  -1  28    1.62    3.13   0
 -24  -2  20   40.47    4.50   0
 -24  -2  26   30.74    3.96   0
 -24   0  17   -0.49    3.39   0
 -22  -2  29    0.65    1.42   0
 -21  -1  12    2.01    3.60   0
 -20   0  11   -0.81    3.04   0
 -18   0   9    0.40    2.43   0
 -25  -1  20    1.01    3.95   0
 -25  -1  21   51.82    6.79   0
 -25  -1  26   -0.98    3.27   0
 -25  -1  27   12.12    3.41   0
 -24  -2  21   -1.11    2.55   0
 -24  -2  22   18.35    3.44   0
 -24  -2  23    0.11    2.36   0
 -24  -2  24   18.44    3.42   0
 -24  -2  25    2.12    2.06   0
 -24   0  18   33.57    4.76   0
 -24   0  19    1.35    3.47   0
 -23  -1  15  106.48    7.01   0
 -23  -1  16   13.90    4.96   0
 -23  -1  30    0.46    1.85   0
 -23  -1  30    0.63    1.66   0
 -22  -2  28   14.99    4.05   0
 -22   0  14   39.46    4.88   0
 -20   0  12  168.79    8.69   0
 -19  -1  10   34.84    4.45   0
 -25  -1  22    1.55    3.54   0
 -25  -1  23   48.89    5.36   0
 -25  -1  24    1.81    3.01   0
 -25  -1  25   15.88    3.71   0
 -24   0  20    4.97    3.20   0
 -24   0  26   41.08    4.76   0
 -23  -1  29   56.55    5.76   0
 -22   0  15   -1.48    3.23   0
 -21  -1  13  213.43    9.27   0
 -18   0  10  294.27   10.70   0
  -6  -2 -23    0.50    5.25   0
  -5  -3 -17   64.64    7.34   0
  -4  -2 -24   21.09    5.61   0
  -3  -3 -18   -0.96    4.04   0
  -3  -3 -17   60.58    8.10   0
  -2  -2 -24   27.12    6.03   0
  -1  -3 -17   40.48    6.54   0
  -1  -3 -16    4.06    5.87   0
  -1  -3 -11   60.25    8.12   0
  -1  -3 -10    6.24    4.69   0
   1  -3 -16   11.50    5.45   0
   1  -3 -15  210.38   11.94   0
   1  -3 -14  113.79    9.46   0
   1  -3 -13  320.91   14.34   0
   4  -2 -24   75.88    7.82   0
   6  -2 -23    2.75    4.40   0
   8  -2 -14  297.96   13.69   0
   8  -2 -13    8.16    4.64   0
 -10  -2 -21    2.60    2.52   0
 -10  -2 -21    1.28    2.42   0
  -8  -2 -22   11.87    4.92   0
  -5  -3 -16    6.62    4.50   0
  -5  -3 -15  109.56    9.56   0
  -3  -3 -16    2.89    4.22   0
  -3  -3 -15   59.91    7.33   0
  -3  -3 -14    1.55    5.47   0
  -1  -3 -15   36.55    6.46   0
  -1  -3 -14   12.67    5.24   0
  -1  -3 -13   46.68    6.54   0
  -1  -3 -12    7.34    5.08   0
   0  -2 -24   37.34    5.60   0
   2  -2 -24   56.27    6.54   0
   4  -2 -23    2.86    4.19   0
   6  -2 -22  155.03   10.43   0
   8  -2 -19    3.82    4.49   0
   8  -2 -18  150.44   10.08   0
   8  -2 -17    3.83    4.52   0
   8  -2 -16  185.17   11.07   0
   8  -2 -15   41.91    6.15   0
  -6  -2 -22   27.76    5.75   0
  -4  -2 -23    2.53    3.83   0
  -3  -3 -13   23.53    5.34   0
  -3  -1 -26    0.42    2.32   0
  -3  -1 -26   -0.38    2.34   0
  -2  -2 -23    1.10    3.33   0
   0  -2 -23    3.93    4.65   0
   2  -2 -23   -0.25    3.79   0
   4  -2 -22   92.89    8.50   0
   6  -2 -21    5.40    4.41   0
   6  -2 -20   97.58    8.71   0
   6  -2 -12  255.57   12.34   0
 -10  -2 -20   19.75    4.61   0
  -8  -2 -21    1.20    3.32   0
  -5  -1 -25   11.56    4.49   0
  -5  -1 -25    2.76    3.31   0
  -4  -2 -22   35.65    6.11   0
   0  -2 -22   42.29    6.61   0
   2  -2 -22   93.29    8.01   0
   4  -2 -21   -1.34    4.35   0
   6  -2 -19    3.04    4.29   0
   6  -2 -18  106.08    8.70   0
   6  -2 -17   10.34    4.88   0
   6  -2 -16  236.55   12.61   0
   6  -2 -15   40.22    6.18   0
   6  -2 -14  193.58   10.72   0
   6  -2 -13    6.71    3.86   0
 -10  -2 -19    5.61    3.59   0
  -8  -2 -20   41.23    5.97   0
  -7  -1 -24   -0.03    3.47   0
  -6  -2 -21   -1.66    3.18   0
  -3  -1 -25   29.32    6.11   0
  -2  -2 -22   30.36    4.85   0
   2  -2 -21   -0.10    4.30   0
   4  -2 -20   99.84    8.60   0
   4  -2 -19    1.07    5.61   0
 -11  -1 -22    2.81    2.35   0
 -11  -1 -22    0.79    2.20   0
  -9  -1 -23    5.69    3.20   0
  -9  -1 -23    2.20    2.95   0
  -6  -2 -20   40.06    6.24   0
  -4  -2 -21    8.39    4.01   0
  -2  -2 -21   -0.70    4.15   0
  -1  -1 -25   15.12    4.36   0
   0  -2 -21    3.33    3.96   0
   2  -2 -20   67.14    7.42   0
   2  -2 -19    5.71    5.48   0
   4  -2 -18  106.37    8.54   0
   4  -2 -17   13.44    4.83   0
   4  -2 -16  268.67   13.01   0
   4  -2 -15   23.63    5.47   0
   4  -2 -14  179.89   10.87   0
   4  -2 -13    5.40    3.77   0
   4  -2 -12  243.11   11.56   0
 -10  -2 -18   53.50    6.16   0
  -8  -2 -19    1.52    3.30   0
  -5  -1 -24    4.43    3.91   0
  -4  -2 -20   40.73    5.94   0
  -3  -1 -24    3.83    3.84   0
  -2  -2 -20   40.54    5.86   0
   0  -2 -20   22.98    5.37   0
   0  -2 -19   10.72    6.12   0
   2  -2 -18   80.19    7.61   0
 -13  -1 -20   -1.27    2.41   0
 -13  -1 -20   -0.10    2.31   0
 -11  -1 -21   32.00    5.77   0
 -10  -2 -17    0.64    3.42   0
  -9  -1 -22    3.63    3.84   0
  -8  -2 -18   53.83    6.48   0
  -7  -1 -23   25.95    5.40   0
  -6  -2 -19    3.54    3.97   0
  -6   0 -25   -1.11    2.20   0
  -4  -2 -19    4.43    4.39   0
  -2  -2 -19   -2.03    4.19   0
  -1  -1 -24    1.93    3.19   0
   0  -2 -18   55.84    6.78   0
   1  -1 -24   11.44    3.94   0
   2  -2 -17    2.50    4.38   0
   2  -2 -16  221.39   11.37   0
   2  -2 -15   24.06    5.14   0
   2  -2 -14  238.65   12.15   0
   2  -2 -13   12.85    5.14   0
   2  -2 -12  511.38   16.27   0
 -10  -2 -16   45.69    6.80   0
 -10   0 -23    0.97    3.61   0
  -8  -2 -17    1.87    3.94   0
  -8   0 -24    2.40    2.48   0
  -8   0 -24    1.10    2.51   0
  -6  -2 -18   59.47    6.81   0
  -5  -1 -23   45.54    5.75   0
  -4  -2 -18  135.64    9.21   0
  -3  -1 -23   37.78    6.37   0
  -2  -2 -18   70.06    7.22   0
  -2  -2 -17   34.84    6.17   0
  -1  -1 -23   39.89    6.47   0
   0  -2 -17   27.05    5.50   0
   0  -2 -16  114.07    8.57   0
   1  -1 -23   46.00    5.99   0
 -13  -1 -19   17.88    4.53   0
 -11  -1 -20    4.47    4.13   0
  -9  -1 -21   45.64    5.84   0
  -8  -2 -16   56.71    6.71   0
  -7  -1 -22   -1.46    3.00   0
  -6  -2 -17   21.84    5.34   0
  -6  -2 -16  146.94   10.50   0
  -5  -1 -22    3.88    4.39   0
  -4  -2 -17    1.86    4.30   0
  -4  -2 -16   94.42    8.77   0
  -2  -2 -16   38.38    6.25   0
   0  -2 -15    6.05    4.29   0
   0  -2 -14  164.46    9.83   0
   0  -2 -13   33.29    5.10   0
   0  -2 -12  279.28   12.22   0
   0  -2 -11   21.23    4.75   0
   1  -1 -22    7.84    5.20   0
  -8  -2 -15    6.30    4.10   0
  -7  -1 -21   66.69    7.27   0
  -6  -2 -15    0.86    5.47   0
  -6   0 -24   13.80    4.55   0
  -4  -2 -15   16.37    5.03   0
  -3  -1 -22    2.19    3.79   0
  -2  -2 -15    0.07    4.02   0
  -2  -2 -14   55.66    6.29   0
  -2  -2 -13   -1.37    3.79   0
  -2  -2 -12  138.31    9.24   0
  -2  -2 -11   58.78    7.25   0
  -2  -2 -10  208.17   11.23   0
  -1  -1 -22   10.89    4.40   0
 -14   0 -20    2.39    3.52   0
 -13  -1 -18   -1.90    2.64   0
 -12   0 -21    1.76    4.28   0
 -11  -1 -19   36.67    5.30   0
 -10   0 -22    4.66    4.25   0
  -9  -1 -20    6.75    3.74   0
  -8  -2 -14   79.36    7.74   0
  -8  -2 -13    0.55    4.08   0
  -8   0 -23    0.70    3.62   0
  -6  -2 -14   89.04    7.81   0
  -6  -2 -13   13.14    5.13   0
  -5  -1 -21   94.93    7.91   0
  -4  -2 -14   42.77    6.07   0
  -4  -2 -13   10.90    4.46   0
  -4  -2 -12  148.61    9.96   0
  -4  -2 -11   12.10    5.11   0
  -4   0 -24   13.93    4.24   0
  -3  -1 -21   96.72    8.44   0
  -1  -1 -21   35.16    5.82   0
   1  -1 -21   88.11    7.69   0
   3  -1 -20    0.82    4.23   0
  -9  -1 -19   69.00    7.31   0
  -7  -1 -20    6.40    4.05   0
  -6  -2 -12  166.09   10.07   0
  -6  -2 -11    6.60    3.75   0
  -6   0 -23    0.22    2.69   0
  -5  -1 -20   -3.46    5.00   0
  -4  -2 -10  152.90    9.45   0
  -1  -1 -20   41.06    6.47   0
   1  -1 -20   13.20    4.66   0
   3  -1 -19  229.04   11.46   0
   3  -1 -18   -0.94    4.81   0
 -16   0 -18    4.01    3.67   0
 -13  -1 -17   28.59    5.01   0
 -11  -1 -18    3.34    3.73   0
 -10   0 -21    1.16    3.39   0
  -8   0 -22    5.76    3.43   0
  -7  -1 -19  103.25    8.93   0
  -4   0 -23    0.68    2.88   0
  -3  -1 -20    4.43    4.74   0
   1  -1 -19  302.92   13.07   0
   3  -1 -17  200.39   10.94   0
 -14   0 -19   -0.82    3.33   0
 -13  -1 -16   -1.70    3.42   0
 -12   0 -20   19.03    4.25   0
 -11  -1 -17   54.05    6.26   0
  -9  -1 -18    4.84    4.15   0
  -6   0 -22   28.82    4.77   0
  -5  -1 -19  140.21    9.29   0
  -3  -1 -19   42.69    6.02   0
  -1  -1 -19   91.18    8.13   0
   1  -1 -18    9.43    4.23   0
   3  -1 -16   23.55    4.67   0
   3  -1 -15   79.82    7.17   0
 -16   0 -17   -0.58    2.88   0
 -15   1 -19    3.63    4.20   0
 -11   1 -21   31.34    6.37   0
  -9  -1 -17   49.76    7.14   0
  -9   1 -22    0.51    3.56   0
  -8   0 -21   -1.38    3.01   0
  -7  -1 -18    7.79    4.28   0
  -5  -1 -18    9.77    4.30   0
  -4   0 -22   34.48    5.39   0
  -3  -1 -18   12.15    4.39   0
  -2   0 -22   22.88    4.87   0
  -1  -1 -18    1.26    4.15   0
   1  -1 -17  158.53    9.63   0
   1  -1 -16    5.23    4.08   0
 -14   0 -18   27.75    4.47   0
 -13  -1 -15   45.55    5.78   0
 -13   1 -20   -1.55    3.47   0
 -12   0 -19   -0.01    2.90   0
 -11  -1 -16    7.08    4.06   0
 -10   0 -20    9.98    3.73   0
  -7  -1 -17  102.96    8.17   0
  -6   0 -21    2.35    3.18   0
  -5  -1 -17   37.43    5.99   0
  -4   0 -21   -2.54    4.12   0
  -3  -1 -17   77.53    7.10   0
  -2   0 -21    2.99    4.55   0
  -1  -1 -17  145.89    9.44   0
  -1  -1 -16    4.27    4.46   0
   1  -1 -15  218.87   10.79   0
   1  -1 -14    1.69    3.68   0
 -17   1 -17    3.40    3.71   0
 -17   1 -17    0.88    2.40   0
 -16   0 -16   17.94    3.95   0
 -13  -1 -14    1.49    3.46   0
 -11  -1 -15  105.09    8.11   0
 -10   0 -19   -1.02    4.04   0
  -9  -1 -16   36.46    5.61   0
  -9   1 -21   49.19    6.16   0
  -8   0 -20   28.17    4.48   0
  -7  -1 -16    0.07    3.93   0
  -5  -1 -16    7.37    5.25   0
  -3  -1 -16   19.92    5.07   0
  -1  -1 -15  291.93   12.40   0
 -15   1 -18   -0.70    3.71   0
 -14   0 -17   -1.77    2.80   0
 -13  -1 -13  128.12    8.96   0
 -13   1 -19   23.92    4.82   0
 -12   0 -18   72.80    6.74   0
 -11  -1 -14    2.59    4.18   0
 -11   1 -20    3.18    3.30   0
  -9  -1 -15  113.47    8.11   0
  -7  -1 -15  111.36    7.99   0
  -6   0 -20   43.81    5.49   0
  -5  -1 -15  100.05    8.16   0
  -4   0 -20   30.68    5.57   0
  -3  -1 -15  114.70    8.02   0
  -2   0 -20  152.63    9.55   0
  -1  -1 -14    1.06    3.44   0
 -19   1 -15   13.93    4.29   0
 -16   0 -15   -0.68    2.79   0
 -14   0 -16   52.10    6.33   0
 -12   0 -17   -2.33    4.34   0
 -11  -1 -13  212.22   10.50   0
 -10   0 -18   81.40    7.36   0
  -9  -1 -14    8.13    3.72   0
  -8   0 -19    1.17    3.55   0
  -7  -1 -14   32.06    6.18   0
  -7   1 -21   57.25    6.10   0
  -6   0 -19    2.19    4.49   0
  -5  -1 -14    4.98    4.82   0
  -3  -1 -14    5.91    3.10   0
  -1  -1 -13  392.34   14.19   0
 -17   1 -16    1.42    3.00   0
 -16   2 -17   -0.99    1.81   0
 -16   2 -17   -0.09    1.77   0
 -15   1 -17    6.39    3.74   0
 -14   2 -18   12.34    4.36   0
 -13   1 -18   -0.92    3.11   0
 -12   2 -19    0.33    2.98   0
 -11  -1 -12    6.53    4.47   0
 -11   1 -19   37.90    5.24   0
  -9  -1 -13  101.04    7.34   0
  -9   1 -20    4.22    3.07   0
  -8   0 -18  106.31    7.69   0
  -7  -1 -13  101.74    7.50   0
  -5  -1 -13  236.13   10.44   0
  -4   0 -19   -1.49    3.54   0
  -3  -1 -13  222.60   10.46   0
  -3  -1 -12   19.93    4.60   0
  -2   0 -19   -1.27    3.34   0
 -19   1 -14    3.20    2.60   0
 -16   0 -14   14.29    3.75   0
 -14   0 -15    1.49    3.08   0
 -12   0 -16  235.16   11.35   0
 -11  -1 -11  235.89   11.20   0
 -10   0 -17   -0.33    3.60   0
  -9  -1 -12    9.86    3.82   0
  -7  -1 -12    7.74    3.39   0
  -7   1 -20    5.60    3.17   0
  -6   0 -18  126.42    8.44   0
  -5  -1 -12   30.28    4.69   0
  -4   0 -18   80.96    6.95   0
  -2   0 -18  127.39    8.23   0
 -18   2 -15    0.61    1.87   0
 -18   2 -15   -0.10    1.79   0
 -17   1 -15   12.93    3.10   0
  -9  -1 -11  228.40    9.98   0
  -9   1 -19   51.99    5.29   0
  -8   0 -17   -1.75    3.56   0
  -7  -1 -11  222.66    9.87   0
  -5  -1 -11  270.74   11.03   0
 -19  -3  20   -1.30    4.69   0
 -18  -4  19    2.84    3.23   0
 -18  -2  20   68.94    8.49   0
 -17  -3  22   -1.43    5.11   0
 -17  -1  14    7.82    4.39   0
 -17  -1  15  679.47   20.41   0
 -16  -4  21    4.18    4.09   0
 -16  -2  21   -0.44    7.25   0
 -15  -1  18    8.85    5.76   0
 -14  -2  22  101.34    8.95   0
 -13  -3  23   49.94    6.72   0
 -13  -1  19   43.24    7.31   0
 -12  -4  22   21.93    6.25   0
 -11  -3  23   41.96    6.99   0
 -11  -1  20    5.87    5.78   0
 -19  -3  18    6.33    6.03   0
 -19  -3  19   31.74    6.45   0
 -18  -2  18  114.71    9.99   0
 -18  -2  19   25.89    6.37   0
 -17  -3  21  114.73    9.07   0
 -16  -4  20   23.89    4.79   0
 -16  -2  20  119.93   10.66   0
 -15  -3  22    0.21    4.75   0
 -15  -1  16    3.55    5.51   0
 -15  -1  17  230.56   12.26   0
 -14  -4  21   -0.13    3.97   0
 -14  -2  21    1.29    6.85   0
 -13  -1  18    9.83    7.29   0
 -12  -2  22   22.76    6.52   0
 -11  -1  19   73.34    8.33   0
 -10  -4  22   14.43    4.84   0
 -18  -2  17   15.85    5.72   0
 -17  -3  20    6.33    4.82   0
 -16  -4  19    8.73    4.54   0
 -16  -2  19    9.65    7.29   0
 -15  -3  21   93.04    8.35   0
 -15  -1  14   20.45    6.20   0
 -15  -1  15  338.35   14.03   0
 -13  -5  17    3.34    2.55   0
 -13  -5  17    1.55    2.40   0
 -13  -3  22    6.37    4.45   0
 -13  -1  17  113.90    9.19   0
 -12  -4  21    2.66    3.87   0
 -12  -2  21   20.21    7.02   0
 -11  -5  18    0.86    2.15   0
 -11  -5  18    0.57    1.98   0
 -11  -3  22    2.61    5.75   0
 -11  -1  18    7.70    6.32   0
 -18  -2  16   90.65    8.32   0
 -17  -3  19   98.00    8.66   0
 -16  -4  18   45.16    6.30   0
 -16  -2  18  153.82   11.06   0
 -15  -3  20    4.80    6.15   0
 -14  -4  20   18.84    4.62   0
 -14  -2  20   97.23    8.53   0
 -13  -3  21   74.57    8.43   0
 -13  -1  16   12.03    5.14   0
 -11  -1  17  230.77   12.34   0
 -10  -4  21   -0.10    3.68   0
 -10  -2  21   25.82    5.93   0
  -9  -5  18    0.63    2.21   0
  -9  -5  18   -0.80    2.12   0
  -8  -4  21    3.91    3.83   0
  -7  -5  18    2.64    2.78   0
 -17  -3  18    1.03    5.26   0
 -16  -4  17    5.13    4.68   0
 -16  -2  17   49.40    6.99   0
 -14  -4  19    6.21    3.51   0
 -14  -2  19    0.75    4.85   0
 -13  -1  15  233.31   11.63   0
 -12  -4  20   27.98    4.78   0
 -12  -2  20   50.56    7.23   0
 -11  -5  17    3.22    2.89   0
 -11  -5  17    4.02    2.61   0
 -11  -3  21   46.13    6.73   0
 -10  -2  20   49.13    8.73   0
  -9  -3  21   45.32    7.94   0
  -9  -1  17  277.28   13.73   0
 -17  -3  16    2.59    6.81   0
 -17  -3  17  109.15    9.28   0
 -16  -2  16  177.53   10.80   0
 -15  -3  19  145.04   10.17   0
 -14  -4  18   43.69    6.49   0
 -14  -2  18   96.14    8.78   0
 -13  -3  20    1.26    4.86   0
 -13  -1  14   47.48    6.58   0
 -12  -4  19    0.62    4.52   0
 -12  -2  19   14.34    6.00   0
 -11  -5  16    1.31    4.41   0
 -11  -1  16   36.74    5.99   0
 -10  -4  20   23.32    4.59   0
  -9  -5  17    9.51    4.17   0
  -8  -4  20   34.34    5.21   0
 -16  -2  14  161.06   10.28   0
 -16  -2  15   36.61    6.31   0
 -15  -3  18   -3.98    5.50   0
 -14  -4  17   -2.67    5.06   0
 -14  -2  17    4.97    5.28   0
 -13  -3  19  106.44    9.34   0
 -12  -2  18   50.04    8.17   0
 -11  -5  15   11.91    4.91   0
 -11  -3  20    1.79    5.22   0
 -11  -1  15  301.33   13.42   0
 -10  -4  19    3.62    4.79   0
 -10  -2  19   67.69    7.79   0
  -9  -3  20   -2.44    6.68   0
  -9  -1  16   -3.11    4.33   0
  -7  -5  17   10.12    4.26   0
  -5  -5  17    5.80    2.94   0
  -5  -5  17    3.28    2.65   0
 -15  -3  17  176.78   11.55   0
 -14  -4  16   69.90    7.69   0
 -14  -2  16  220.74   12.12   0
 -13  -3  18    3.23    6.97   0
 -12  -4  18   42.72    6.05   0
 -11  -3  19   39.00    7.48   0
 -10  -2  18  110.11   10.65   0
  -9  -5  16    1.48    4.02   0
  -8  -4  19   -3.56    3.91   0
  -7  -5  16    2.01    4.85   0
  -6  -4  19    3.27    3.47   0
  -3  -5  16   -3.84    4.79   0
 -15  -3  15  202.73   13.97   0
 -15  -3  16    4.46    5.76   0
 -14  -4  15    3.08    5.30   0
 -14  -2  15   15.14    6.10   0
 -13  -3  17  115.68   11.03   0
 -12  -4  17   -2.66    4.52   0
 -12  -2  17   10.00    5.68   0
 -11  -5  14    0.70    3.36   0
 -10  -4  18   41.40    6.04   0
  -9  -5  15   13.75    4.83   0
  -9  -3  19   65.16    7.98   0
  -8  -2  18  147.12   10.55   0
  -7  -3  19   85.10   10.08   0
  -5  -5  16    2.03    4.09   0
 -15  -3  14    4.06    6.33   0
 -14  -2  13    3.72    6.36   0
 -14  -2  14  350.94   15.17   0
 -12  -4  16   52.43    6.86   0
 -12  -2  16  122.44   10.18   0
 -11  -3  18   17.83    6.19   0
 -10  -4  17   -1.36    5.94   0
 -10  -2  17    7.51    5.68   0
  -9  -5  14   -0.09    4.44   0
  -9  -3  18    1.09    7.25   0
  -8  -4  18   33.17    5.72   0
  -7  -5  15   23.30    5.59   0
  -6  -4  18   40.88    6.17   0
  -1  -5  15   10.44    4.71   0
 -13  -3  16    7.79    6.01   0
 -12  -4  15    1.38    6.10   0
 -12  -2  15   38.94    7.18   0
 -11  -3  17   58.43    8.54   0
 -10  -2  16  133.62   10.58   0
  -9  -5  13   16.76    5.46   0
  -8  -4  17    7.32    4.60   0
  -8  -2  17    6.00    5.58   0
  -7  -5  14    0.72    5.04   0
  -7  -3  18    5.11    6.13   0
  -5  -5  15   21.61    5.70   0
  -3  -5  15   22.52    5.41   0
 -13  -3  14   17.51    8.41   0
 -13  -3  15  171.69   12.13   0
 -12  -4  14   52.94    8.20   0
 -12  -2  14  361.40   15.34   0
 -11  -3  16    7.24    6.50   0
 -10  -4  16   39.54    6.65   0
 -10  -2  15    0.55    6.96   0
  -9  -5  12    2.25    5.29   0
  -9  -3  17   54.75    8.39   0
  -8  -2  16  177.05   12.11   0
  -6  -4  17   -0.87    4.66   0
  -5  -5  14    2.88    3.90   0
  -4  -4  17    6.37    4.67   0
  -3  -5  14    5.88    5.82   0
  -1  -5  14    0.34    4.36   0
 -13  -3  13  160.14   13.70   0
 -12  -4  13    2.71    4.76   0
 -12  -2  12  347.90   16.72   0
 -12  -2  13   11.58    5.48   0
 -11  -3  15   60.07   10.15   0
 -10  -4  15    3.12    5.37   0
  -9  -5  11   16.50    5.89   0
  -9  -3  16   16.22    8.75   0
  -8  -4  16   50.58    7.19   0
  -7  -5  13   25.58    5.26   0
  -7  -3  17  144.24   11.59   0
  -6  -4  16   18.83    7.10   0
  -6  -2  16  243.12   13.80   0
  -5  -3  17  214.42   13.11   0
 -12  -2  11   10.30    6.16   0
 -11  -3  14   27.36    8.82   0
 -10  -4  14   32.92    6.86   0
 -10  -2  14  228.73   12.81   0
  -8  -4  15    2.34    5.19   0
  -8  -2  15   40.28    7.69   0
  -7  -5  12    0.51    4.09   0
  -7  -3  16    1.87    6.50   0
  -6  -2  15   36.46    8.87   0
  -5  -5  13   26.50    5.52   0
  -4  -4  16   24.06    5.72   0
  -3  -5  13   32.48    5.64   0
  -1  -5  13   20.68    5.20   0
   1  -5  13    5.11    4.84   0
 -11  -3  13   54.44   10.12   0
 -10  -4  13    5.04    5.41   0
 -10  -2  13    1.31    5.08   0
  -9  -3  15   27.86    7.64   0
  -8  -4  14   78.65    9.71   0
  -8  -2  14  297.60   14.21   0
  -7  -5  11   27.40    6.24   0
  -6  -4  15    0.60    5.61   0
  -5  -5  12    1.94    4.30   0
  -5  -3  16   25.44    7.79   0
  -4  -4  15   -3.95    6.83   0
  -2  -4  15    3.84    6.44   0
 -11  -3  12   37.76    7.84   0
 -10  -4  12   34.79    7.17   0
 -10  -2  12   81.91    8.44   0
  -9  -3  14   12.94    6.99   0
  -8  -4  13    1.12    7.14   0
  -8  -2  13   11.40    7.12   0
  -7  -5  10    0.18    4.29   0
  -7  -3  15   97.88   10.28   0
  -6  -4  14  102.00   10.38   0
  -6  -2  14  223.04   13.00   0
  -5  -5  11   36.92    6.29   0
  -5  -3  15  247.37   15.90   0
  -3  -5  12    3.52    4.50   0
  -1  -5  12    4.73    4.32   0
   1  -5  12    0.45    4.62   0
 -10  -4  11    2.05    5.43   0
  -9  -3  13   96.20    9.61   0
  -7  -5   9   52.05    7.00   0
  -7  -3  14   22.31    7.41   0
  -4  -4  14   40.06    7.40   0
  -3  -5  11   38.12    6.45   0
  -3  -3  15  364.42   16.79   0
  -2  -4  14   76.12    8.25   0
   2  -6   4    4.17    3.27   0
   3  -5  11   12.64    5.08   0
   7  -3  -9  356.68   13.62   0
   9  -3 -25   25.40    5.68   0
   9  -3 -11  135.40    8.91   0
  11  -3 -25   26.78    4.67   0
  11  -3 -24    1.97    4.18   0
  11  -3 -14   26.67    6.53   0
  11  -3 -13   66.09    6.98   0
  13  -3 -23   39.33    5.59   0
  13  -3 -22    0.41    4.09   0
  13  -3 -21   72.81    7.77   0
  13  -3 -20    1.77    5.36   0
  13  -3 -19   97.50    9.05   0
  13  -3 -18    6.07    4.68   0
  13  -3 -17  104.01    8.61   0
   5  -3 -25   17.21    4.55   0
   7  -3 -25   26.14    5.21   0
   7  -3 -10   44.31    6.15   0
   9  -3 -24   -0.30    4.66   0
   9  -3 -12    2.14    4.77   0
  11  -3 -23   41.81    6.00   0
  11  -3 -15   61.60    7.10   0
  12  -2 -29    0.17    3.37   0
  14  -2 -28   25.12    5.30   0
  14  -2 -12  321.30   13.39   0
   5  -3 -24    1.82    2.98   0
   7  -3 -24   -0.40    3.21   0
   7  -3 -11  316.71   13.37   0
   8  -2 -29    2.47    3.07   0
   8  -2 -29   -0.73    2.11   0
   9  -3 -23   41.39    5.75   0
   9  -3 -14   13.66    6.51   0
   9  -3 -13   90.99    8.21   0
  10  -2 -29   -0.74    2.30   0
  10  -2 -29   -0.10    2.29   0
  11  -3 -22    5.98    4.26   0
  11  -3 -21   42.49    6.21   0
  11  -3 -20    0.79    4.39   0
  11  -3 -19   54.18    6.76   0
  11  -3 -18   15.12    5.24   0
  11  -3 -17   57.34    7.09   0
  11  -3 -16   11.18    5.19   0
  14  -2 -13    8.46    4.41   0
   5  -3 -23   39.77    6.09   0
   5  -3 -10   56.51    6.83   0
   7  -3 -23   40.64    5.71   0
   7  -3 -12   17.67    5.41   0
   9  -3 -22    0.77    4.02   0
   9  -3 -21   58.74    6.88   0
   9  -3 -20    4.57    5.99   0
   9  -3 -16   17.07    6.44   0
   9  -3 -15   27.98    6.13   0
  12  -2 -28   31.69    5.79   0
  12  -2 -11    5.83    4.14   0
  14  -2 -27    0.26    3.22   0
  14  -2 -14  418.27   15.40   0
   4  -2 -28    3.51    2.79   0
   5  -3 -22   -0.09    3.48   0
   5  -3 -12   32.46    6.74   0
   5  -3 -11  162.27   10.33   0
   7  -3 -22    0.90    3.54   0
   7  -3 -21   40.90    6.12   0
   7  -3 -14   24.46    5.52   0
   7  -3 -13  108.55    8.67   0
   8  -2 -28   23.49    6.41   0
   9  -3 -19   67.56    7.31   0
   9  -3 -18    2.05    4.48   0
   9  -3 -17   47.84    6.69   0
  10  -2 -28   32.41    5.77   0
  12  -2 -27    3.17    3.40   0
  12  -2 -12  398.49   15.11   0
  14  -2 -26   21.78    4.66   0
  14  -2 -25    5.90    5.19   0
  14  -2 -16  231.96   12.34   0
  14  -2 -15    4.74    5.22   0
   2  -2 -27    0.44    4.02   0
   5  -3 -21   34.81    5.77   0
   5  -3 -20    5.00    5.27   0
   5  -3 -13  108.99    9.10   0
   6  -2 -28   15.20    4.76   0
   7  -3 -20    7.71    4.53   0
   7  -3 -19   91.62    8.30   0
   7  -3 -18    2.93    4.76   0
   7  -3 -17  135.67   10.00   0
   7  -3 -16    2.88    4.74   0
   7  -3 -15   82.88    8.07   0
  10  -2 -27    1.93    4.17   0
  12  -2 -26   39.62    5.84   0
  12  -2 -13    4.62    4.73   0
  14  -2 -24   42.56    6.26   0
  14  -2 -23    2.99    5.65   0
  14  -2 -18   95.84    9.08   0
  14  -2 -17   -1.14    4.58   0
   4  -2 -27    2.23    4.77   0
   5  -3 -19   72.89    7.33   0
   5  -3 -18    0.05    4.48   0
   5  -3 -17  163.31   10.80   0
   5  -3 -16   21.23    5.75   0
   5  -3 -15  220.03   12.20   0
   5  -3 -14   23.51    5.18   0
   6  -2 -27    1.72    4.77   0
   7  -1 -30    0.70    2.81   0
   8  -2 -27   -3.93    3.96   0
   9  -1 -30   -0.17    2.16   0
   9  -1 -30   -1.02    2.20   0
  10  -2 -26   49.37    6.67   0
  12  -2 -25    4.66    3.98   0
  12  -2 -14  368.22   14.54   0
  14  -2 -22   86.00    7.87   0
  14  -2 -21    7.87    4.95   0
  14  -2 -20   95.54    8.56   0
  14  -2 -19    0.97    4.52   0
   8  -2 -26   67.42    7.04   0
  10  -2 -25    2.89    4.95   0
  10  -2 -12   76.82    7.05   0
  12  -2 -24   35.11    5.95   0
  12  -2 -23   -0.23    5.35   0
  12  -2 -16  124.49    9.72   0
  12  -2 -15   35.62    6.12   0
   2  -2 -26   24.49    4.83   0
   4  -2 -26   40.65    5.59   0
   6  -2 -26   47.08    5.87   0
   8  -2 -25    2.41    4.74   0
   9  -1 -29   36.68    6.59   0
  10  -2 -24   72.36    8.05   0
  10  -2 -13    2.63    3.97   0
  12  -2 -22   35.43    5.84   0
  12  -2 -21   25.64    5.70   0
  12  -2 -20   56.35    6.91   0
  12  -2 -19   18.37    5.36   0
  12  -2 -18   47.16    6.58   0
  12  -2 -17    4.02    4.51   0
   0  -2 -25    1.88    3.10   0
   2  -2 -25    1.92    3.81   0
   4  -2 -25   -1.03    4.02   0
   5  -1 -29   23.86    5.42   0
   6  -2 -25   -1.42    3.76   0
   7  -1 -29   31.06    5.67   0
   8  -2 -24  143.47    9.98   0
  10  -2 -23    2.03    4.25   0
  10  -2 -22   36.05    7.23   0
  10  -2 -15    9.97    5.11   0
  10  -2 -14  222.68   11.03   0
   0  -2 -24   29.46    5.59   0
   1  -1 -28   -0.31    2.04   0
   1  -1 -28   -1.09    2.15   0
   6  -2 -24   95.05    8.56   0
   8  -2 -23    5.37    4.61   0
   8  -2 -12  277.12   12.39   0
   9  -1 -28    1.18    3.02   0
  10  -2 -21   26.25    5.70   0
  10  -2 -20   68.47    7.48   0
  10  -2 -19   60.23    7.09   0
  10  -2 -18  113.57    8.68   0
  10  -2 -17    5.18    4.63   0
  10  -2 -16  138.95    9.23   0
  11  -1 -27   26.85    5.55   0
  -1  -1 -27    5.88    2.95   0
  -1  -1 -27    0.88    2.56   0
   2  -2 -24   73.36    6.89   0
   3  -1 -28   -0.35    3.74   0
   4  -2 -24   78.24    6.84   0
   5  -1 -28    0.35    3.79   0
   6  -2 -23    1.15    4.28   0
   7  -1 -28    3.69    3.40   0
   8  -2 -22  130.38    9.29   0
   8  -2 -21    2.52    5.56   0
   8  -2 -14  286.15   13.05   0
   8  -2 -13   18.57    4.51   0
  11  -1 -26    2.84    4.69   0
  -3  -1 -26    0.69    2.11   0
  -3  -1 -26   -0.26    2.11   0
   0  -2 -23    6.01    3.38   0
   1  -1 -27   16.83    5.50   0
   2  -2 -23   -0.97    3.41   0
   4  -2 -23   -0.55    3.91   0
   6  -2 -22  163.09   10.01   0
   6  -2 -12  231.17   11.63   0
   7  -1 -27   48.27    6.13   0
   8  -2 -20   70.68    7.39   0
   8  -2 -19    6.53    4.37   0
   8  -2 -18  142.73    9.59   0
   8  -2 -17    1.85    4.24   0
   8  -2 -16  198.94   10.42   0
   8  -2 -15   48.19    6.25   0
   9  -1 -27   52.41    5.96   0
  11  -1 -25   20.21    5.63   0
   0  -2 -22   42.65    5.78   0
   2  -2 -22   86.19    7.59   0
   3  -1 -27   40.11    5.82   0
   4  -2 -22   92.21    7.70   0
   4  -2 -21    0.60    5.29   0
   4   0 -29   -0.72    3.10   0
   5  -1 -27   29.68    4.87   0
   6  -2 -21    2.05    4.50   0
   6  -2 -20   91.60    7.91   0
   6  -2 -19    5.17    5.57   0
   6  -2 -14  195.06   10.82   0
   6  -2 -13   10.41    3.91   0
   9  -1 -26   -0.09    3.41   0
  11  -1 -24   26.92    6.24   0
  -3  -1 -25   23.27    4.95   0
  -1  -1 -26    1.85    3.35   0
   0  -2 -21    1.29    3.61   0
   0   0 -28    1.19    3.14   0
   0   0 -28    1.44    2.21   0
   1  -1 -26    2.28    3.86   0
   2  -2 -21    5.48    3.95   0
   4  -2 -20  110.26    8.48   0
   4  -2 -12  230.28   11.75   0
   5  -1 -26   -1.58    4.22   0
   6  -2 -18   97.84    8.05   0
   6  -2 -17   10.69    4.72   0
   6  -2 -16  239.93   11.42   0
   6  -2 -15   39.67    5.84   0
   7  -1 -26   11.92    4.09   0
   9  -1 -25   45.35    5.92   0
  11  -1 -23   72.79    7.24   0
  11  -1 -22   17.93    5.85   0
   0  -2 -20   25.88    5.51   0
   2  -2 -20   62.19    7.16   0
   2  -2 -19    2.81    5.17   0
   2   0 -28    3.07    3.62   0
   3  -1 -26   -0.65    3.10   0
   4  -2 -19    2.67    4.28   0
   4  -2 -18  113.00    8.57   0
   4  -2 -17   16.67    4.80   0
   4  -2 -16  269.16   12.59   0
   4  -2 -15   20.03    5.89   0
   4  -2 -14  196.82   10.85   0
   4  -2 -13    3.92    3.58   0
   4   0 -28    4.98    4.18   0
   6   0 -28   27.17    5.23   0
   7  -1 -25   43.66    6.18   0
   9  -1 -24   19.18    4.88   0
  11  -1 -21  103.06    8.15   0
  11  -1 -20    4.91    5.20   0
  -2   0 -27    0.63    2.14   0
  -2   0 -27   -0.15    2.12   0
  -1  -1 -25   17.66    4.18   0
   0  -2 -19   11.04    4.61   0
   1  -1 -25   42.70    5.53   0
   2  -2 -18   82.24    7.63   0
   2  -2 -17    5.48    4.10   0
   3  -1 -25   34.28    5.26   0
   5  -1 -25   29.16    5.29   0
   7  -1 -24    3.98    4.16   0
   9  -1 -23  164.26    9.79   0
 -31  -1   1   16.74    3.68   0
 -29  -1  -1   23.22    3.57   0
 -28  -2   1    1.52    2.19   0
 -25  -1  -4    1.69    2.61   0
 -24  -2  -2   59.12    5.25   0
 -23  -1  -5   36.74    4.96   0
 -22  -2  -3    3.94    3.43   0
 -21  -1  -6   14.01    4.31   0
 -20  -2  -4  113.27    7.38   0
 -19  -1  -7   23.65    4.32   0
 -18  -2  -5    8.60    3.62   0
 -17  -1  -8   26.49    4.16   0
 -14  -2  -6  280.84   10.50   0
 -12  -2  -6  312.05   11.03   0
 -11  -1  -9  466.92   12.69   0
 -10  -2  -6  428.71   12.71   0
 -34   0   4    2.48    1.77   0
 -33  -1   4   -0.20    2.50   0
 -28  -2   2   29.64    3.80   0
 -27  -1  -2    7.67    2.60   0
 -26  -2   0   56.50    5.00   0
 -18  -2  -4   75.21    6.31   0
 -17  -1  -7   97.08    6.70   0
 -16  -2  -5    4.37    3.19   0
 -15  -1  -8    7.42    3.12   0
 -14  -2  -5   33.47    4.93   0
 -13  -1  -8    4.39    3.00   0
 -12  -2  -5   13.36    3.88   0
 -11  -1  -8    2.97    3.66   0
  -9  -1  -8   16.01    3.52   0
 -32   0   2    7.11    2.92   0
 -31  -1   2    3.92    2.75   0
 -29  -1   0    0.95    2.25   0
 -26  -2   1   -1.33    3.13   0
 -25  -1  -3   67.64    5.36   0
 -24  -2  -1    2.56    2.77   0
 -23  -1  -4    4.70    2.98   0
 -22  -2  -2   55.62    5.29   0
 -21  -1  -5   61.85    6.04   0
 -20  -2  -3   17.15    3.76   0
 -19  -1  -6   -0.50    2.99   0
 -16  -2  -4   62.62    5.76   0
 -15  -1  -7  128.96    7.36   0
 -35  -1   8   -0.35    1.36   0
 -35  -1   8    1.07    1.37   0
 -34   0   5   -0.07    1.51   0
 -34   0   5   -0.44    1.46   0
 -33  -1   5   21.84    3.67   0
 -31  -1   3   16.32    3.52   0
 -29  -1   1   38.70    4.39   0
 -28  -2   3    0.67    2.13   0
 -28   0  -1    0.59    2.79   0
 -27  -1  -1   59.95    4.93   0
 -24  -2   0   47.36    4.83   0
 -22  -2  -1    4.04    3.52   0
 -20  -2  -2  121.11    7.60   0
 -18  -2  -3    2.79    3.08   0
 -17  -1  -6   27.39    4.78   0
 -14  -2  -4  306.64   10.61   0
 -13  -1  -7  432.13   12.14   0
 -11  -1  -7  452.22   12.56   0
 -35  -1   9    3.43    1.81   0
 -35  -1   9    1.72    1.66   0
 -33  -1   6    1.46    2.84   0
 -32   0   3   -0.12    2.25   0
 -30   0   1    2.46    1.89   0
 -27  -1   0   -1.74    3.33   0
 -26  -2   2   35.58    4.13   0
 -26   0  -2   30.66    4.46   0
 -25  -1  -2   -0.27    2.82   0
 -24  -2   1   32.90    4.59   0
 -23  -1  -3  124.23    7.04   0
 -21  -1  -4   15.70    3.75   0
 -19  -1  -5  130.31    7.32   0
 -18  -2  -2   57.25    5.66   0
 -16  -2  -3    5.69    2.95   0
 -15  -1  -6   -0.38    3.31   0
 -35  -1  10   -0.01    1.41   0
 -35  -1  10    0.92    1.38   0
 -34   0   6   13.39    3.18   0
 -31  -1   4    4.60    2.16   0
 -29  -1   2   -0.67    2.40   0
 -28   0   0   65.55    5.45   0
 -26  -2   3    6.43    2.93   0
 -25  -1  -1   88.64    6.44   0
 -24   0  -3   -0.97    2.66   0
 -22  -2   0  101.59    6.60   0
 -20  -2  -1   22.82    3.87   0
 -17  -1  -5  103.72    6.44   0
 -16  -2  -2  116.12    7.15   0
 -13  -1  -6    5.07    2.85   0
 -11  -1  -6   14.22    3.06   0
 -36   0  10    2.24    1.70   0
 -36   0  10    0.75    1.53   0
 -35  -1  11   11.69    3.28   0
 -33  -1   7   21.75    3.32   0
 -32   0   4   26.98    3.41   0
 -31  -1   5   25.94    3.66   0
 -30   0   2   27.84    3.82   0
 -27  -1   1   83.05    5.89   0
 -26   0  -1    1.33    3.20   0
 -24  -2   2   43.34    4.62   0
 -23  -1  -2   18.48    3.89   0
 -22  -2   1   10.28    3.40   0
 -21  -1  -3  161.48    7.82   0
 -20  -2   0  112.39    7.12   0
 -19  -1  -4    7.69    3.33   0
 -18  -2  -1   27.61    4.10   0
 -15  -1  -5  166.32    7.85   0
 -36   0  11   -0.79    3.07   0
 -35  -1  12   -1.11    2.49   0
 -34   0   7    0.17    2.46   0
 -33  -1   8   -0.74    1.83   0
 -32   0   5    1.28    2.55   0
 -29  -1   3   37.11    4.12   0
 -28   0   1   -0.43    2.54   0
 -25  -1   0    1.66    2.79   0
 -24   0  -2   25.13    3.94   0
 -23  -1  -1  145.01    7.92   0
 -22   0  -3   -1.79    3.34   0
 -20   0  -4    4.09    2.72   0
 -19  -1  -3  174.87    8.30   0
 -17  -1  -4    2.45    2.85   0
 -13  -1  -5  623.21   14.48   0
 -35  -1  13    6.19    2.60   0
 -35  -1  13    5.19    2.06   0
 -34   0   8   19.08    3.48   0
 -33  -1   9   23.41    3.57   0
 -31  -1   6    0.53    2.11   0
 -30   0   3    1.59    2.19   0
 -29  -1   4    0.22    2.44   0
 -27  -1   2    3.19    2.99   0
 -26   0   0   52.92    4.99   0
 -21  -1  -2    3.55    2.93   0
 -15  -1  -4    1.76    2.70   0
 -36   0  12    3.51    2.03   0
 -36   0  12    1.75    1.82   0
 -33  -1  10    0.00    2.38   0
 -32   0   6   56.64    4.60   0
 -31  -1   7   37.48    3.92   0
 -30   0   4   42.01    4.66   0
 -28   0   2  101.37    6.33   0
 -27  -1   3  141.72    7.49   0
 -25  -1   1   87.45    5.88   0
 -24   0  -1   -0.91    2.48   0
 -23  -1   0    9.66    3.36   0
 -22   0  -2    1.74    3.29   0
 -21  -1  -1  127.70    7.32   0
 -20   0  -3   -2.20    3.14   0
 -19  -1  -2   24.12    4.44   0
 -18   0  -4  179.96    8.29   0
 -17  -1  -3  106.69    6.44   0
 -13  -1  -4    6.75    2.81   0
 -36   0  13    0.49    1.54   0
 -36   0  13   -0.05    1.49   0
 -34   0   9    2.06    2.25   0
 -33  -1  11   23.87    3.49   0
 -31  -1   8    3.17    2.87   0
 -29  -1   5   43.13    4.37   0
 -26   0   1   -1.44    2.87   0
 -25  -1   2    3.69    3.14   0
 -15  -1  -3  139.22    7.05   0
 -36   0  14   10.42    2.78   0
 -34   0  10   15.01    2.86   0
 -33  -1  12    4.12    2.60   0
 -32   0   7    0.71    2.03   0
 -30   0   5    2.24    2.33   0
 -29  -1   6   -0.61    2.58   0
 -28   0   3   -1.19    2.73   0
 -27  -1   4   12.64    3.59   0
 -24   0   0   29.47    4.28   0
 -23  -1   1   50.20    4.84   0
 -22   0  -1    1.00    2.46   0
 -21  -1   0   48.76    4.79   0
 -20   0  -2   41.50    4.98   0
 -19  -1  -1  166.27    7.67   0
 -18   0  -3   -1.86    2.67   0
 -17  -1  -2    1.62    2.58   0
 -36   0  15    0.56    1.45   0
 -36   0  15    0.32    1.46   0
 -36   0  16    8.78    3.12   0
 -34   0  11   -0.57    1.83   0
 -33  -1  13   17.43    3.33   0
 -32   0   8   61.07    4.54   0
 -31  -1   9   44.16    4.18   0
 -30   0   6   26.91    4.19   0
 -29  -1   7   59.97    5.33   0
 -28   0   4  110.61    6.98   0
 -27  -1   5  107.41    6.82   0
 -26   0   2  125.45    7.10   0
 -25  -1   3   39.91    4.44   0
 -23  -1   2    8.58    3.61   0
 -17  -1  -1  109.91    6.54   0
 -15  -1  -2    9.61    2.67   0
 -36   0  17   -0.07    1.33   0
 -36   0  17   -0.18    1.29   0
 -35   1  13   10.42    2.90   0
 -34   0  12   25.37    3.30   0
 -33  -1  14    1.57    2.07   0
 -32   0   9   -0.17    2.72   0
 -31  -1  10   -0.31    2.25   0
 -29  -1   8    1.77    3.28   0
 -25  -1   4    4.85    3.58   0
 -24   0   1   -0.76    2.87   0
 -22   0   0   45.34    4.70   0
 -21  -1   1  121.61    6.73   0
 -20   0  -1    0.41    3.23   0
 -19  -1   0   10.62    3.16   0
 -18   0  -2  315.58   10.51   0
 -16   0  -3   -0.60    2.17   0
 -36   0  18    3.41    1.78   0
 -36   0  18    0.83    1.44   0
 -36   0  19   -0.55    1.20   0
 -35   1  14    0.35    1.57   0
 -35   1  14    0.03    1.51   0
 -34   0  13   -1.38    2.28   0
 -31  -1  11   52.97    4.62   0
 -30   0   7    0.29    2.43   0
 -28   0   5    0.65    2.92   0
 -27  -1   6    2.06    2.96   0
 -26   0   3   -0.83    3.11   0
 -24   0   2   64.39    5.75   0
 -23  -1   3   49.02    4.83   0
 -21  -1   2   94.40    6.37   0
 -17  -1   0    0.16    2.61   0
 -15  -1  -1   95.47    5.89   0
 -35   1  15   13.52    3.08   0
 -34   0  14   21.80    3.47   0
 -33   1  11   21.67    3.11   0
 -32   0  10   52.36    4.27   0
 -31  -1  12   -1.42    2.16   0
 -30   0   8   48.93    4.93   0
 -29  -1   9   74.07    5.18   0
 -27  -1   7  103.05    6.27   0
 -26   0   4  196.64    9.17   0
 -25  -1   5   27.11    3.66   0
 -22   0   1   -0.48    2.75   0
 -20   0   0  225.65    9.19   0
 -19  -1   1   62.21    5.08   0
 -18   0  -1   -1.16    3.11   0
 -16   0  -2  343.71   10.73   0
 -35   1  16    0.26    1.49   0
 -35   1  16   -0.00    1.47   0
 -34   0  15   -0.31    1.75   0
 -33   1  12    3.28    2.05   0
 -32   0  11    1.05    2.08   0
 -31  -1  13   45.76    4.34   0
 -29  -1  10    0.65    2.49   0
 -28   0   6  134.50    7.16   0
 -25  -1   6    4.10    2.90   0
 -23  -1   4    9.89    3.06   0
 -21  -1   3  207.75    8.38   0
 -17  -1   1  210.80    8.39   0
 -24  -2  16   78.49    6.41   0
 -24  -2  23   -2.03    3.98   0
 -24  -2  24   27.04    4.71   0
 -23  -3  24   -1.58    3.06   0
 -23  -1  16    8.60    4.75   0
 -23  -1  17   41.26    6.40   0
 -23  -1  18    6.64    5.24   0
 -23  -1  21   73.44    7.21   0
 -23  -1  22    0.08    3.53   0
 -23  -1  23   27.03    4.47   0
 -21  -3  26    0.65    3.42   0
 -21  -1  12    3.10    4.32   0
 -19  -1   9  149.05    8.91   0
 -18   0  12  285.54   11.24   0
 -24  -2  17    9.20    4.13   0
 -24  -2  18   65.61    5.89   0
 -24  -2  19    5.45    3.81   0
 -24  -2  20   45.08    5.01   0
 -24  -2  21    0.91    3.18   0
 -24  -2  22   23.74    4.38   0
 -23  -3  18    4.41    3.58   0
 -23  -3  21   44.20    5.09   0
 -23  -3  22    4.52    2.47   0
 -23  -3  23   40.97    4.49   0
 -23  -1  19   80.57    7.00   0
 -23  -1  20    2.36    3.92   0
 -22  -2  26   26.97    4.24   0
 -21  -1  13  223.81   10.79   0
 -19  -3  27    2.91    2.15   0
 -19  -3  27    1.38    1.95   0
 -18   0  13    3.29    2.53   0
 -18   0  14  162.31    9.13   0
 -23  -3  19   42.36    4.85   0
 -23  -3  20    2.68    2.61   0
 -22  -2  13   16.91    4.41   0
 -22  -2  14  151.64    9.25   0
 -22  -2  24   46.45    6.05   0
 -22  -2  25   -0.46    3.07   0
 -21  -3  25   19.32    4.03   0
 -21  -1  14   35.36    5.38   0
 -19  -1  10   38.76    5.18   0
 -22  -2  15    5.32    3.97   0
 -22  -2  16  149.95    8.76   0
 -22  -2  23   -1.28    3.40   0
 -21  -3  24    1.61    2.71   0
 -21  -1  15  111.13    7.87   0
 -21  -1  16    9.88    4.37   0
 -21  -1  17  186.30   10.11   0
 -21  -1  18   37.13    6.54   0
 -21  -1  19  308.05   12.53   0
 -21  -1  20    4.70    5.34   0
 -21  -1  21  150.67    8.91   0
 -21  -1  22    3.09    3.76   0
 -19  -3  26    3.70    3.05   0
 -19  -1  11  270.02   11.11   0
 -18  -4  23    0.67    1.62   0
 -18  -4  23    0.31    1.56   0
 -17  -3  27    3.89    2.28   0
 -17  -3  27    0.70    1.95   0
 -22  -2  17    3.86    4.32   0
 -22  -2  18  112.74    7.36   0
 -22  -2  19   19.07    4.52   0
 -22  -2  20   85.88    6.54   0
 -22  -2  21    1.61    3.49   0
 -22  -2  22   44.68    5.14   0
 -21  -3  21   38.21    5.09   0
 -21  -3  22    1.45    2.60   0
 -21  -3  23   20.66    3.70   0
 -20  -2  12  205.21   10.35   0
 -20  -2  25    0.37    3.07   0
 -19  -3  25   24.07    4.73   0
 -19  -1  12    7.29    4.04   0
 -18  -4  21    0.02    3.20   0
 -18  -4  22    6.75    3.24   0
 -21  -3  17   50.20    5.28   0
 -21  -3  18   -1.28    2.94   0
 -21  -3  19   47.66    5.03   0
 -21  -3  20    0.98    2.90   0
 -20  -2  13   26.06    4.75   0
 -20  -2  24   53.70    5.51   0
 -19  -3  24    2.29    3.26   0
 -19  -1  13  238.50   10.28   0
 -19  -1  14   -1.26    3.99   0
 -17  -3  26   -0.94    2.96   0
 -17  -1  10   14.24    4.69   0
 -16  -4  23   -0.69    2.67   0
 -20  -2  14  168.83    8.85   0
 -20  -2  15   41.96    6.22   0
 -20  -2  22   80.92    6.42   0
 -20  -2  23    5.44    3.60   0
 -19  -3  23   34.55    4.63   0
 -19  -1  15  351.64   12.50   0
 -19  -1  16   18.24    4.78   0
 -19  -1  17  243.64   11.26   0
 -19  -1  18   67.68    7.34   0
 -19  -1  19  202.25   10.47   0
 -19  -1  20    2.69    3.85   0
 -18  -2  25    3.31    3.11   0
 -17  -3  25   17.29    4.26   0
 -17  -1  11  303.52   11.91   0
 -16  -4  22   17.63    4.18   0
 -14  -4  24    1.00    2.23   0
 -20  -2  16  102.65    7.33   0
 -20  -2  17    4.61    3.79   0
 -20  -2  18   99.31    7.04   0
 -20  -2  19    2.65    3.92   0
 -20  -2  20  103.47    7.05   0
 -20  -2  21    4.18    3.66   0
 -19  -3  21   42.84    5.37   0
 -19  -3  22    1.02    2.89   0
 -18  -2  24   70.36    6.21   0
 -17  -1  12    1.63    4.20   0
 -16  -4  21    5.03    2.66   0
 -15  -3  26    0.30    2.88   0
 -14  -4  23    2.14    3.37   0
 -19  -3  16    0.11    3.06   0
 -19  -3  17   52.56    5.39   0
 -19  -3  18    5.36    3.42   0
 -19  -3  19   31.79    4.78   0
 -19  -3  20    1.52    2.89   0
 -18  -2  12  372.91   12.71   0
 -18  -2  23    2.08    3.38   0
 -17  -3  24    0.84    2.69   0
 -17  -1  13  556.36   15.27   0
 -16  -4  19    8.26    3.49   0
 -16  -4  20   22.39    4.08   0
 -15  -3  25   15.01    4.20   0
 -13  -3  26   -1.41    3.33   0
 -18  -2  13   76.02    6.61   0
 -18  -2  14  217.18    9.87   0
 -18  -2  21   -2.35    4.87   0
 -18  -2  22  117.29    7.82   0
 -17  -3  22    7.33    3.93   0
 -17  -3  23   43.17    4.63   0
 -17  -1  14   12.28    4.15   0
 -17  -1  15  713.64   17.35   0
 -17  -1  16    5.55    4.07   0
 -17  -1  17  245.81   11.23   0
 -17  -1  18    4.64    3.82   0
 -17  -1  19  152.26    8.78   0
 -16  -2  24   59.20    6.30   0
 -14  -4  22   19.76    3.96   0
 -12  -4  23   -0.72    3.30   0
 -18  -2  15    6.09    4.03   0
 -18  -2  16  106.49    7.12   0
 -18  -2  17   18.55    4.29   0
 -18  -2  18   92.55    7.02   0
 -18  -2  19   25.96    4.69   0
 -18  -2  20   67.24    6.18   0
 -17  -3  21  104.43    6.66   0
 -15  -3  24    1.74    2.60   0
 -14  -4  21    2.75    2.35   0
 -13  -3  25   27.80    4.28   0
 -23   1  19   78.91    8.43   0
 -23   1  20    4.28    5.92   0
 -23   1  27   35.54    5.70   0
 -21   1  15  134.13   10.12   0
 -21   1  30   -0.60    4.22   0
 -20   2  20   96.75    8.93   0
 -20   2  21    2.35    5.00   0
 -20   2  22   82.10    8.01   0
 -20   2  23    6.09    4.46   0
 -20   2  24   55.77    6.81   0
 -19   1  12    6.20    4.85   0
 -19   1  31    2.56    3.40   0
 -19   1  31    1.45    2.92   0
 -18   2  15    4.03    5.36   0
 -18   2  16  110.54    9.96   0
 -18   2  27    1.43    3.67   0
 -16   2  13   -0.91    6.17   0
 -14   2  11    6.79    5.48   0
 -23   1  21   61.21    7.58   0
 -23   1  22    1.49    4.71   0
 -23   1  23   16.68    5.54   0
 -23   1  24    0.71    4.27   0
 -23   1  25   26.87    5.49   0
 -23   1  26    1.70    3.93   0
 -21   1  16    7.38    5.02   0
 -21   1  29   44.59    6.80   0
 -19   1  13  237.68   12.58   0
 -18   2  17   18.01    5.94   0
 -18   2  18   96.34    9.93   0
 -18   2  25    3.55    5.39   0
 -18   2  26   65.98    7.09   0
 -16   2  14  174.47   11.71   0
 -16   2  27    1.01    4.34   0
 -21   1  17  189.28   11.69   0
 -21   1  18   36.86    8.22   0
 -21   1  28    0.76    3.81   0
 -20   0  31   -0.33    4.48   0
 -19   1  14    0.11    5.64   0
 -19   1  30    3.68    4.76   0
 -18   2  19   16.45    6.22   0
 -18   2  20   66.10    8.17   0
 -18   2  21   -6.34    6.50   0
 -18   2  22   92.06    9.73   0
 -18   2  23   -0.23    4.85   0
 -18   2  24   71.06    7.77   0
 -17   1  11  314.28   14.11   0
 -17   1  31    8.63    3.72   0
 -17   1  31    0.86    2.92   0
 -16   2  15   38.02    6.94   0
 -16   2  26   48.59    7.39   0
 -14   2  12  346.40   14.91   0
 -21   1  19  282.36   14.31   0
 -21   1  20    1.49    6.98   0
 -21   1  26    7.77    5.71   0
 -21   1  27   76.14    7.61   0
 -19   1  15  355.92   16.09   0
 -19   1  29   28.44    5.74   0
 -17   1  12    4.73    4.30   0
 -17   1  30   -3.37    7.07   0
 -16   2  16  158.76   11.22   0
 -16   2  17   46.48    8.50   0
 -16   2  25   -3.51    4.22   0
 -15   1  31    7.90    3.70   0
 -15   1  31    0.76    3.07   0
 -14   2  13    2.24    4.90   0
 -12   2  11    9.54    3.89   0
 -21   1  21  146.56   11.00   0
 -21   1  22    1.15    5.27   0
 -21   1  23   70.18    8.29   0
 -21   1  24    3.94    5.09   0
 -21   1  25   92.08    8.45   0
 -20   0  30   18.50    5.11   0
 -19   1  16   11.00    6.92   0
 -19   1  28    3.12    3.70   0
 -17   1  13  557.43   19.43   0
 -16   2  18  138.78   10.69   0
 -16   2  19    7.11    6.00   0
 -16   2  20  116.32   10.90   0
 -16   2  21   -1.70    6.56   0
 -16   2  22  112.52    9.77   0
 -16   2  23    8.33    5.57   0
 -16   2  24   47.72    7.41   0
 -14   2  14  427.03   16.71   0
 -14   2  15   15.80    6.93   0
 -14   2  25    4.16    6.30   0
 -12   2  12  409.04   16.37   0
 -20   0  29    1.32    4.38   0
 -19   1  17  251.70   13.68   0
 -19   1  27   80.45    8.37   0
 -18   0  31    2.25    4.24   0
 -17   1  29   43.33    7.00   0
 -15   1  30    4.80    4.88   0
 -14   2  16  209.52   12.56   0
 -14   2  24   40.09    6.91   0
 -12   2  13    7.19    5.02   0
 -20   0  28   16.12    5.25   0
 -19   1  18   71.40    8.68   0
 -19   1  19  213.98   12.81   0
 -19   1  20   -0.49    7.27   0
 -19   1  24   11.51    7.15   0
 -19   1  25  131.63   10.38   0
 -19   1  26    6.23    4.77   0
 -18   0  30   26.48    6.57   0
 -17   1  14    7.48    4.35   0
 -17   1  28    1.79    4.01   0
 -16   0  31   -0.40    5.29   0
 -15   1  29   36.70    7.25   0
 -14   2  17    2.69    5.25   0
 -14   2  18   86.75    9.28   0
 -14   2  19   -1.99    5.45   0
 -14   2  20   83.27    9.08   0
 -14   2  21    4.61    5.37   0
 -14   2  22   80.03    9.13   0
 -14   2  23   -0.42    5.11   0
 -13   1  30    1.22    4.96   0
 -12   2  14  374.40   16.13   0
 -20   0  27   -1.64    3.77   0
 -19   1  21  123.60   10.65   0
 -19   1  22   10.49    6.03   0
 -19   1  23   91.29    8.84   0
 -17   1  15  739.19   22.08   0
 -17   1  16   12.38    6.60   0
 -17   1  27   86.17    8.25   0
 -15   1  28   -0.91    5.21   0
 -13   1  29   18.44    6.54   0
 -12   2  15   38.44    6.87   0
 -12   2  16  115.61   10.88   0
 -20   0  25   -0.04    4.82   0
 -20   0  26   37.17    6.77   0
 -18   0  29    3.50    3.54   0
 -17   1  17  230.23   13.40   0
 -17   1  25  114.49    9.63   0
 -17   1  26    2.31    5.02   0
 -16   0  30   33.80    6.30   0
 -15   1  13  627.48   20.27   0
 -14   0  31   -0.91    4.51   0
 -12   0  31    1.43    5.61   0
 -12   2  17    4.85    5.43   0
 -12   2  18   39.30    7.05   0
 -12   2  19   14.15    5.82   0
 -12   2  20   51.72    7.90   0
 -11   1  29   31.99    6.84   0
 -18   0  28   22.25    5.09   0
 -17   1  18    9.06    5.39   0
 -17   1  19  143.39   10.89   0
 -17   1  20   14.04    6.23   0
 -17   1  21   58.87    8.37   0
 -17   1  22   39.63    7.51   0
 -17   1  23   65.79    8.47   0
 -17   1  24    8.77    6.37   0
 -15   1  14   26.16    6.22   0
 -15   1  26    6.29    6.17   0
 -15   1  27   49.24    7.17   0
 -13   1  28    2.34    3.93   0
 -10   0  31    0.15    2.63   0
 -10   0  31   -1.70    2.51   0
 -18   0  27    0.41    4.03   0
 -16   0  29   -1.77    3.59   0
 -15   1  15  364.15   15.94   0
 -15   1  25   85.17    8.72   0
 -14   0  30    8.57    5.06   0
 -13   1  27   31.80    6.21   0
 -11   1  28    4.55    3.96   0
   0  -4  -1    6.98    5.51   0
   2  -4  -2   98.99   10.33   0
   3  -5 -14    2.67    4.10   0
   3  -5 -12    4.07    4.79   0
   3  -5 -11   39.22    6.68   0
   3  -5 -10    4.87    4.90   0
   3  -3   1  519.62   17.98   0
   5  -5 -17    4.63    4.17   0
   5  -5 -16   -0.59    4.35   0
   5  -5 -15   21.36    6.39   0
   5  -5 -13   13.98    6.03   0
   5  -5 -12   -0.79    5.23   0
   5  -5 -11   37.52    6.59   0
   5  -3   0    7.91    5.04   0
   6  -4  -3    6.13    6.34   0
   7  -5 -17    3.46    4.64   0
   7  -5 -16    1.14    4.40   0
   7  -5 -15   26.61    5.58   0
   7  -5 -14    2.06    3.58   0
   7  -5 -13   16.55    5.15   0
   7  -5 -12    0.58    4.11   0
   7  -3  -1  174.20   10.87   0
   9  -3  -2    6.76    5.09   0
  10  -4  -6   95.91   10.48   0
   0  -4  -2  102.37    9.32   0
   3  -5 -13   17.36    4.59   0
   4  -4  -3   14.74    6.29   0
   5  -5 -14    2.11    4.07   0
   6  -4  -4  172.84   11.63   0
   8  -4  -5    5.87    5.96   0
  12  -4  -8   63.78    8.53   0
   2  -4  -3   17.13    5.92   0
   3  -3   0    8.75    4.69   0
   4  -4  -4  222.24   13.40   0
   5  -3  -1  375.92   15.12   0
   6  -4  -5   15.14    7.75   0
   7  -3  -2    2.13    4.86   0
   8  -4  -6  112.26   10.20   0
   9  -3  -3  145.74   10.24   0
  10  -4  -7   10.67    5.80   0
  12  -4  -9    5.53    5.72   0
  14  -4 -12  110.53   10.48   0
   0  -4  -3    9.19    5.41   0
   2  -4  -4  188.87   12.65   0
   8  -4  -7   -3.45    7.33   0
  10  -4  -8   11.68    6.18   0
  12  -4 -10   55.89    7.83   0
  14  -4 -13    6.88    5.43   0
   0  -4  -4  155.36   11.16   0
   2  -4  -5    6.83    7.23   0
   3  -3  -1  639.12   19.50   0
   4  -4  -5   12.89    5.99   0
   5  -3  -2   34.92    7.19   0
   6  -4  -6  183.29   11.58   0
   7  -3  -3  233.56   12.03   0
   8  -4  -8   29.60    8.09   0
   9  -3  -4   64.86    7.60   0
  10  -4  -9    1.50    5.44   0
  12  -4 -11   13.02    5.87   0
  14  -4 -15   -1.81    6.10   0
  14  -4 -14   62.05    7.91   0
   0  -4  -5    3.77    5.27   0
   4  -4  -6  272.47   13.54   0
   6  -4  -7   16.70    5.92   0
   8  -4  -9    5.89    7.34   0
  10  -4 -10    8.06    5.76   0
  12  -4 -23   -0.45    4.07   0
  12  -4 -23   -1.58    2.76   0
  12  -4 -13    6.47    6.44   0
  12  -4 -12   70.47    7.99   0
  14  -4 -21   -0.94    4.29   0
  14  -4 -20   26.12    5.92   0
  14  -4 -19    4.93    4.89   0
  14  -4 -18   45.78    7.32   0
  14  -4 -17    0.91    5.84   0
  14  -4 -16   65.70    7.51   0
   0  -4  -6  174.55   11.64   0
   2  -4  -6  260.93   13.51   0
   3  -3  -2   16.69    5.24   0
   4  -4  -7    4.94    6.00   0
   5  -3  -3  379.19   15.18   0
   6  -4 -23   -0.90    4.99   0
   6  -4  -8   86.31    9.11   0
   7  -3  -4   54.48    7.02   0
   8  -4 -10   35.32    7.55   0
   9  -3  -5  134.14    9.83   0
  10  -4 -23    0.81    5.13   0
  10  -4 -12   38.62    8.36   0
  10  -4 -11    3.80    5.58   0
  12  -4 -22   17.31    5.72   0
  12  -4 -15    4.09    6.54   0
  12  -4 -14   49.09    7.41   0
   0  -4  -7    9.61    5.66   0
   2  -4  -7    7.73    5.96   0
   4  -4 -22    4.68    3.66   0
   4  -4  -8  114.96   10.27   0
   6  -4  -9    0.22    5.62   0
   8  -4 -23    0.75    4.27   0
  10  -4 -22   19.25    5.92   0
  10  -4 -13    1.67    5.73   0
  12  -4 -21    0.31    3.97   0
  12  -4 -20   26.90    5.47   0
  12  -4 -17   -1.65    4.76   0
  12  -4 -16   61.28    7.52   0
  -2  -2  13   13.09    4.70   0
   0  -4  13    3.53    4.04   0
   0  -2  13   35.35    6.25   0
   3  -3  13   38.66    7.30   0
   4  -4  12   64.38    7.23   0
   5  -5   9   20.39    5.29   0
   7  -3  12    2.93    5.04   0
   8  -4  11    3.63    3.87   0
   9  -3  11  108.49    9.27   0
  10  -4  10   45.10    5.57   0
  -3  -3  13  280.94   13.15   0
  -1  -3  13  347.82   14.98   0
   0  -4  12   53.85    7.16   0
   1  -3  13   49.53    6.93   0
   2  -4  12   28.09    5.47   0
   2  -2  12  142.59    9.97   0
   3  -5   9   33.97    4.92   0
   4  -2  12  150.23    9.77   0
   5  -3  12    1.98    6.37   0
   6  -4  11    1.11    4.28   0
   6  -2  11    3.64    5.06   0
   7  -5   8    1.54    2.94   0
   9  -5   7   23.10    5.20   0
  11  -5   6    3.79    4.70   0
  12  -4   8   37.54    6.13   0
  13  -5   5   18.65    4.71   0
  -2  -2  12  500.56   16.42   0
   0  -2  12  290.54   12.58   0
   3  -3  12    3.00    6.05   0
   4  -4  11   -2.19    4.44   0
   5  -5   8    0.24    3.95   0
   7  -3  11  149.95    9.84   0
   8  -4  10   47.50    5.72   0
   9  -3  10    6.40    6.05   0
  10  -4   9    5.55    3.75   0
  15  -5   3   11.67    3.58   0
  15  -5   3    7.66    3.37   0
  -1  -3  12   39.24    6.65   0
   0  -4  11   -2.71    4.35   0
   1  -3  12   16.63    5.76   0
   2  -4  11    7.80    4.58   0
   2  -2  11   65.41    7.76   0
   3  -5   8    3.61    3.45   0
   4  -2  11   19.10    5.16   0
   5  -3  11  125.73    9.82   0
   6  -4  10   59.96    6.66   0
   6  -2  10  195.89   11.18   0
   7  -5   7   37.75    4.85   0
   8  -4   9   -3.42    5.30   0
   9  -5   6    2.87    2.98   0
  11  -5   5   28.82    5.14   0
  12  -4   7   -0.11    4.52   0
  13  -5   4    5.47    3.98   0
  14  -4   6   40.19    5.39   0
   0  -2  11   21.04    5.01   0
   3  -5   7   49.89    6.31   0
   3  -3  11   25.84    5.87   0
   4  -4  10   79.08    7.34   0
   5  -5   7   52.99    5.90   0
   7  -3  10    6.76    5.04   0
   9  -3   9  148.74   10.24   0
  10  -4   8   48.05    6.14   0
  11  -3   8    4.94    5.19   0
  13  -5   3   36.12    6.27   0
  15  -5   2    1.95    3.88   0
  -1  -3  11  258.87   12.42   0
   0  -4  10   60.03    6.52   0
   1  -3  11   69.62    7.54   0
   2  -4  10   34.03    5.66   0
   2  -2  10  251.74   12.54   0
   4  -2  10  186.57   10.15   0
   5  -3  10   20.68    5.42   0
   6  -4   9   -2.81    4.63   0
   7  -5   6    1.82    3.53   0
   8  -4   8   65.52    7.78   0
   9  -5   5   28.40    4.82   0
  10  -4   7    5.08    5.61   0
  11  -5   4    2.62    3.31   0
  12  -4   6   40.19    6.43   0
  14  -4   5    7.18    3.95   0
  15  -5   1   30.63    5.87   0
   2  -4   9   12.87    5.99   0
   3  -5   6   10.87    3.94   0
   3  -3  10   31.68    6.03   0
   4  -4   9    8.25    4.79   0
   5  -5   6    4.62    3.81   0
   6  -2   9    2.81    4.10   0
   7  -5   5   45.98    5.51   0
   7  -3   9  127.02    9.34   0
   9  -3   8   18.65    6.76   0
  11  -3   7   91.97    8.68   0
  13  -5   2    2.31    3.75   0
  17  -5  -1   14.10    4.36   0
  -1  -3  10   26.84    5.92   0
   0  -4   9    5.18    4.48   0
   1  -3  10   13.97    5.21   0
   4  -2   9   27.70    5.33   0
   5  -5   5   43.33    5.84   0
   5  -3   9   62.09    7.08   0
   6  -4   8  123.57    8.93   0
   8  -4   7    8.09    5.04   0
   9  -5   4    2.68    3.57   0
  11  -5   3   33.37    4.74   0
  14  -4   4   55.75    6.67   0
  15  -5   0    0.04    3.82   0
  17  -5  -2    0.19    3.77   0
  -6   0  -6  968.97   20.23   0
  -6   0  -5   -0.45    4.30   0
  -5   1 -13  213.79    8.86   0
  -5   1 -12   31.92    4.07   0
  -5   1  -5  381.08   11.88   0
  -2   2 -14   41.34    4.57   0
  -2   2 -13    1.48    2.39   0
  -5   1 -15   62.65    5.52   0
  -5   1 -14    6.75    2.93   0
  -5   1  -4   12.77    4.91   0
  -4   0  -2  505.52   19.02   0
  -3   1  -2  175.96   10.76   0
  -1   1  -1 1917.69   39.45   0
   1  -1  -1  354.83   20.69   0
  -7   1 -10   27.55    4.39   0
  -7   1  -9  331.26   10.72   0
  -7   1  -8    6.37    3.71   0
  -6   0  -4  572.45   16.29   0
  -4   2 -12  125.30    7.21   0
  -4   2 -11   17.88    3.48   0
  -4   2 -10  195.33    8.35   0
  -4   2  -9   26.89    3.80   0
  -4   2  -8  256.30   10.13   0
  -8   0  -8  217.08    9.56   0
  -7   1 -13   86.04    6.18   0
  -7   1 -12    4.84    2.85   0
  -7   1 -11  241.92    9.21   0
  -7   1  -7  309.67    9.94   0
  -7   1  -6  134.46    6.86   0
  -6   0  -3    1.16    5.29   0
  -5   1  -3 1054.92   20.44   0
  -4   2 -13   10.36    2.95   0
  -8   0  -7   -1.57    2.58   0
  -8   0  -6  211.12    9.43   0
  -7   1  -5  135.45    7.12   0
   4   0   0 1147.80   32.30   0
  -8   0  -5   -0.23    3.02   0
  -7   1  -4   17.36    3.75   0
  -6   2 -12  144.76    7.43   0
  -6   2 -11    1.00    2.78   0
  -6   2 -10  189.35    8.46   0
  -6   2  -9    2.01    2.81   0
  -6   2  -8  109.89    6.41   0
  -5   1  -2   19.58    4.50   0
  -4   0  -1    0.46    3.77   0
  -3   1  -1  147.73   10.01   0
  -9   1 -12    9.86    3.18   0
  -9   1 -11  204.04    8.49   0
  -9   1 -10   74.76    5.53   0
  -9   1  -9  311.39   10.03   0
  -9   1  -8   17.10    3.23   0
  -9   1  -7  546.09   12.94   0
  -8   0  -4  192.95    9.34   0
  -7   1  -3 1591.83   24.19   0
  -6   0  -2 3084.60   40.59   0
  -6   2  -7   31.90    4.03   0
  -6   2  -6  390.19   12.20   0
  -9   1  -6   70.04    5.16   0
  -9   1  -5  553.65   13.21   0
  -8   0  -3   -1.02    4.64   0
  -6   2  -5    1.28    2.56   0
 -10   0  -6   51.10    4.91   0
  -9   1  -4  141.68    7.21   0
  -8   2 -11    6.44    2.81   0
  -8   2 -10  169.49    8.10   0
  -8   2  -9    4.77    3.12   0
  -8   2  -8  304.70   10.53   0
  -8   2  -7    4.98    3.26   0
  -7   1  -2  317.08   11.32   0
  -5   1  -1  140.47    8.90   0
 -11   1 -11  177.42    8.43   0
 -11   1 -10    3.82    2.77   0
 -11   1  -9  425.30   11.87   0
 -11   1  -8    5.19    3.08   0
 -11   1  -7  455.19   12.19   0
 -10   0  -5    0.99    2.53   0
  -9   1  -3   72.63    6.25   0
  -8   0  -2 1214.39   23.34   0
  -8   2  -6  522.32   13.44   0
  -6   0  -1   -0.75    3.73   0
  -1   1   0   14.59    6.41   0
 -11   1  -6   16.62    3.17   0
 -11   1  -5  747.30   15.53   0
 -10   0  -4  214.59    8.99   0
  -8   2  -5   39.03    4.31   0
  -7   1  -1 1246.73   23.16   0
  -3   1   0  287.05   14.48   0
 -11   1  -4    0.88    2.50   0
 -10   0  -3   -0.93    2.61   0
 -10   2  -9   39.86    4.29   0
 -10   2  -8  200.50    8.66   0
 -10   2  -7    3.30    2.22   0
 -10   2  -6  446.55   12.90   0
  -9   1  -2  123.72    7.07   0
  -8   2  -4  584.38   14.35   0
  -5   1   0  131.55    9.92   0
  -4   0   0 1354.55   33.80   0
   1   1   0   11.88    8.26   0
 -13   1  -9  127.34    7.14   0
 -13   1  -8    4.48    3.04   0
 -13   1  -7  354.10   10.92   0
 -11   1  -3  514.58   12.91   0
 -10   2  -5   30.18    3.92   0
  -8   0  -1    2.37    3.46   0
  -8   2  -3    3.34    2.54   0
 -13   1  -6    3.41    2.24   0
 -13   1  -5  597.89   13.45   0
 -12   0  -4  634.84   14.58   0
 -11   1  -2  119.28    7.31   0
 -10   0  -2  845.29   17.52   0
 -10   2  -4  632.73   14.63   0
  -9   1  -1  235.12    9.40   0
  -7   1   0  107.45    7.51   0
  -6   0   0 1170.21   25.69   0
   4   0  -1    0.28    2.31   0
 -13   1  -4    8.37    2.79   0
 -12   0  -3    0.94    2.32   0
 -12   2  -7   13.13    3.47   0
 -12   2  -6  289.49   10.31   0
 -12   2  -5   11.91    3.86   0
 -10   2  -3   44.05    4.60   0
 -15   1  -7   92.14    5.87   0
 -13   1  -3  322.83   10.12   0
 -12   0  -2 1857.27   24.96   0
 -12   2  -4  373.38   11.31   0
 -11   1  -1  977.24   17.78   0
 -10   0  -1    0.07    2.64   0
 -10   2  -2  355.31   11.38   0
  -9   1   0  327.22   11.12   0
  -8   0   0  821.65   19.08   0
 -15   1  -6   -0.11    2.19   0
 -15   1  -5  155.43    7.53   0
 -13   1  -2    2.24    2.52   0
 -12   2  -3   37.51    4.52   0
  -7   1   1  845.42   19.56   0
  -5   1   1 1343.82   27.11   0
 -15   1  -4    1.60    2.96   0
 -15   1  -3  154.95    8.31   0
 -14   2  -5   25.82    3.72   0
 -14   2  -4  263.54    9.91   0
 -13   1  -1  509.50   12.61   0
 -12   0  -1    2.78    2.61   0
 -12   2  -2  586.80   13.77   0
 -11   1   0  144.67    7.25   0
 -10   0   0 1273.20   21.65   0
 -10   2  -1   20.43    3.44   0
  -9   1   1  679.04   16.24   0
  -3   1   1   93.57    9.04   0
 -15   1  -2    8.05    3.05   0
 -14   0  -2  664.75   14.53   0
 -14   2  -3    3.69    3.43   0
 -13   1   0    1.44    3.72   0
 -12   2  -1   66.04    5.58   0
  -6   0   1    1.77    5.03   0
 -17   1  -5   86.09    5.92   0
 -17   1  -4    4.72    3.10   0
 -15   1  -1  101.17    5.90   0
 -14   0  -1    1.86    3.05   0
 -14   2  -2  324.28   10.44   0
 -12   0   0 1534.22   22.46   0
 -11   1   1  936.91   17.31   0
  -8   0   1    1.17    3.65   0
 -17   1  -3  102.95    6.67   0
 -16   2  -3    6.87    2.72   0
 -15   1   0    4.87    3.15   0
 -14   2  -1    1.57    2.56   0
 -13   1   1 1079.23   18.16   0
 -12   2   0  458.46   12.40   0
 -10   0   1    6.87    3.38   0
  -9   1   2   15.60    4.93   0
  -7   1   2  146.68    8.71   0
  -4   0   1   -0.33    3.30   0
 -17   1  -2    2.30    2.87   0
 -17   1  -1  109.88    6.52   0
 -16   2  -2   97.82    5.94   0
 -14   0   0  372.10   10.93   0
 -14   2   0  393.05   11.65   0
 -12   0   1    2.96    2.84   0
 -11   1   2   21.29    3.70   0
  -5   1   2   56.20    6.74   0
  -1   1   1  345.20   22.51   0
 -17   1   0   -0.98    3.42   0
 -16   2  -1    5.94    2.52   0
 -15   1   1  326.61    9.95   0
 -13   1   2   25.17    3.72   0
 -12   2   1   17.81    3.16   0
   4   0  -2  313.06   16.34   0
 -19   1  -2   21.00    3.58   0
 -16   2   0  256.91    9.26   0
 -15   1   2    4.87    3.47   0
 -14   0   1    1.28    2.28   0
 -14   2   1   12.75    3.01   0
 -12   0   2 1256.69   20.39   0
 -10   0   2 1540.49   23.42   0
  -9   1   3  473.40   14.14   0
  -8   0   2  147.20    8.49   0
 -19   1  -1  131.39    6.95   0
 -19   1   0    7.27    3.29   0
 -17   1   1  212.49    7.93   0
 -16   0   1    0.64    2.63   0
 -16   2   1    5.58    3.22   0
 -14   2   2  277.70    9.55   0
 -13   1   3  936.15   16.73   0
 -11   1   3  715.69   15.47   0
  -7   1   3  340.61   13.19   0
  -6   0   2 1540.05   28.92   0
 -19   1   1   63.60    5.14   0
 -18   2   0  109.17    6.27   0
 -17   1   2   32.23    3.66   0
 -15   1   3  728.21   14.48   0
 -14   0   2  636.59   13.71   0
  -3   1   2  635.16   22.55   0
 -18   2   1    0.48    2.19   0
 -17   1   3  452.76   11.74   0
 -16   0   2  178.45    7.24   0
 -16   2   2  163.16    7.38   0
 -14   2   3    0.65    2.84   0
 -13   1   4   37.63    4.91   0
 -12   0   3    1.86    2.73   0
 -11   1   4  227.10    9.45   0
 -10   0   3    7.33    3.52   0
 -19   1   2    4.32    2.72   0
 -18   2   2  110.37    6.25   0
 -16   2   3    5.14    2.57   0
 -15   1   4   54.45    4.66   0
 -14   0   3    0.64    2.24   0
  -9   1   4   53.41    5.28   0
  -8   0   3    1.00    4.51   0
  -5   1   3  984.03   23.34   0
 -21   1   2   66.45    5.41   0
 -19   1   3  341.29   10.45   0
 -18   2   3   -0.23    2.61   0
 -17   1   4    9.72    2.68   0
 -16   0   3   -0.35    1.95   0
 -21   1   3  160.34    7.78   0
 -19   1   4    7.95    2.81   0
 -16   2   4  133.81    6.78   0
 -15   1   5 1252.78   18.81   0
 -14   0   4  498.29   12.04   0
 -13   1   5  851.85   16.13   0
 -12   0   4  929.95   16.86   0
 -11   1   5  649.92   14.79   0
  -7   1   4  129.75    8.05   0
  -4   0   2  306.38   15.06   0
 -18   2   4   55.77    4.68   0
 -17   1   5  239.20    8.43   0
 -16   0   4  282.50    8.96   0
 -10   0   4 3736.94   35.34   0
  -6   0   3    0.44    3.37   0
   4   0  -3    0.71    2.86   0
 -21   1   4   22.80    3.62   0
 -19   1   5  361.43   10.43   0
 -18   0   4   22.47    3.00   0
 -18   2   5    9.49    3.14   0
 -15   1   6   10.12    3.82   0
 -13   1   6   42.76    4.93   0
  -9   1   5 1131.24   20.12   0
 -21   1   5  320.05   10.14   0
 -19   1   6    4.00    3.39   0
 -18   0   5    0.47    2.39   0
 -17   1   6    3.15    2.33   0
 -16   0   5   -0.42    1.94   0
 -14   0   5    1.27    2.24   0
 -12   0   5    3.63    2.72   0
 -11   1   6  155.00    7.78   0
  -8   0   4 1449.05   23.88   0
 -21   1   6    9.34    3.41   0
 -18   2   6  205.82    8.37   0
 -10   0   5    9.43    4.74   0
  -7   1   5 1095.09   21.51   0
  -5   1   4   37.78    5.40   0
  -3   1   3  241.99   13.40   0
 -19   1   7  110.24    6.24   0
 -18   0   6   40.00    3.62   0
 -17   1   7   87.78    5.17   0
 -16   0   6  517.63   11.90   0
 -15   1   7  559.03   12.58   0
 -14   0   6 1056.65   16.97   0
 -13   1   7  232.09    8.29   0
  -9   1   6  363.75   11.76   0
 -21   1   7  253.01    8.91   0
 -20   2   7    9.33    2.44   0
 -12   0   6 1809.65   22.94   0
 -11   1   7  323.60   10.50   0
 -21   1   8   29.05    4.13   0
 -19   1   8    0.64    2.48   0
 -18   0   7   -1.44    1.75   0
 -17   1   8   -0.54    2.05   0
 -16   0   7    0.16    2.29   0
 -15   1   8   18.53    3.14   0
  -8   0   5   -0.41    3.07   0
  -6   0   4 1168.03   23.77   0
  -1   1   2   17.48    5.22   0
 -20   0   7   -1.83    2.31   0
 -14   0   7    1.14    2.50   0
 -13   1   8   87.30    5.41   0
 -10   0   6  797.91   16.34   0
  -4   0   3   -0.54    3.17   0
 -21   1   9  220.81    8.43   0
 -20   0   8  431.33   11.19   0
 -19   1   9  139.04    6.65   0
 -18   0   8  290.74    8.88   0
 -17   1   9  167.73    6.99   0
 -16   0   8 1008.80   16.61   0
 -15   1   9  488.44   11.94   0
 -12   0   7    1.82    2.78   0
  -9   1   7 1246.05   20.66   0
  -7   1   6   29.62    4.46   0
  -5   1   5  284.44   12.69   0
   2   0  -2 6839.30   86.94   0
 -14   0   8 1635.49   21.45   0
 -11   1   8  252.43    9.08   0
 -21   1  10   16.22    3.25   0
 -20   0   9    1.34    2.46   0
 -19   1  10   32.75    3.57   0
 -18   0   9   -0.51    1.94   0
 -17   1  10   15.34    2.95   0
 -13   1   9  515.14   12.37   0
 -10   0   7    4.61    4.23   0
  -8   0   6  387.77   13.09   0
  -3   1   4   61.67    7.75   0
 -21   1  11  186.52    8.14   0
 -19   1  11  230.53    9.02   0
 -16   0   9   -0.02    2.21   0
 -15   1  10    9.59    2.84   0
 -12   0   8  159.03    7.20   0
  -9   1   8    6.40    3.86   0
  -6   0   5    0.61    3.34   0
 -22   0  10  284.25    9.58   0
 -20   0  10  465.33   11.92   0
 -18   0  10  294.65    9.04   0
 -17   1  11  310.10    9.55   0
 -14   0   9    1.77    2.51   0
 -13   1  10  263.64    9.47   0
 -11   1   9  143.03    7.04   0
  -7   1   7  203.55    9.52   0
  -2   0   2 7161.26   90.50   0
 -21   1  12    1.83    2.56   0
 -16   0  10  498.00   11.91   0
 -15   1  11  795.95   15.14   0
 -10   2  14  251.40   12.40   0
  -8   0   4 1615.33   47.42   0
  -8   2  14  284.47   13.62   0
  -7   1  11  962.13   24.46   0
  -6   2  13    8.38    4.27   0
  -4   0   3    1.80    6.39   0
   1   1   7  721.04   24.52   0
 -14   2  15   14.35    4.98   0
 -13   1  12   12.22    6.23   0
 -12   2  15   33.46    6.38   0
 -11   1  12    1.64    4.21   0
  -9   1  12   -1.88    6.56   0
  -6   0   4 1206.47   39.57   0
  -4   2  13    9.33    5.68   0
  -3   1  10  113.57   11.01   0
  -2   0   2 5438.07  114.66   0
 -10   2  15    2.21    3.82   0
  -8   0   5   -3.95    8.98   0
  -8   2  15   43.32    7.78   0
  -7   1  12  103.06   10.25   0
  -6   2  14  201.88   11.39   0
  -5   1  11  409.44   15.80   0
  -1   1   9 1094.17   27.68   0
 -14   2  16  169.47   10.71   0
 -13   1  13  230.24   12.00   0
 -12   2  16   99.60    8.51   0
 -11   1  13  344.14   13.99   0
  -9   1  13  411.69   16.12   0
  -6   0   5    0.42    6.75   0
  -4   0   4   36.40    9.41   0
   0   0  -3   -0.36    6.01   0
   1   1   8  397.70   18.17   0
 -10   2  16  102.22    8.62   0
  -8   0   6  341.75   18.68   0
  -8   2  16  146.17   10.50   0
  -7   1  13  774.02   21.48   0
  -6   2  15   33.16    6.35   0
  -5   1  12   41.35    6.80   0
  -3   1  11  522.53   18.25   0
  -2   0   3   -0.07    6.38   0
  -1   1  10   62.95    8.08   0
 -13   1  14   48.74    6.24   0
 -12   2  17    6.68    4.21   0
 -11   1  14   15.74    4.86   0
 -10   2  17    6.07    5.40   0
  -9   1  14   12.60    4.85   0
  -6   0   6   29.68    8.49   0
  -4   0   5    2.14    6.88   0
   0   0  -2 8898.63  142.90   0
 -13   1  15  210.91   11.20   0
 -11   1  15  362.03   15.13   0
  -8   0   7   -0.72    6.28   0
  -8   2  17    4.70    5.17   0
  -7   1  14    0.15    6.32   0
  -6   0   7    2.49    9.53   0
  -6   2  16  193.76   11.17   0
  -5   1  13  614.59   18.66   0
  -3   1  12   -0.87    4.54   0
  -2   0  -3    0.50    4.16   0
  -2   0   4  591.35   27.55   0
  -1   1  11  762.78   23.02   0
 -10   0   8  193.23   12.83   0
  -9   1  15  423.64   15.35   0
  -8   0   8 3022.05   46.12   0
  -4   0   6  472.00   21.23   0
 -13   1  16    5.73    5.41   0
 -11   1  16   43.44    7.00   0
 -10   0   9   -0.48    5.21   0
  -8   0   9    0.01    8.30   0
  -7   1  15  259.11   12.47   0
  -6   0   8  298.65   15.70   0
  -5   1  14    3.88    4.30   0
  -4   0   7    1.74    6.91   0
  -3   1  13  324.30   14.14   0
  -2   0   5    0.25    6.95   0
 -13   1  17  116.97    9.81   0
 -10   0  10 1424.46   30.47   0
  -9   1  16    3.44    5.42   0
  -6   0   9    4.80    8.89   0
  -2   0  -2  173.73   19.67   0
  -2   0   6 1640.92   38.73   0
   0   0   2 9999.99  153.01   0
 -11   1  17  237.44   11.88   0
 -10   0  11   -0.22    7.10   0
  -9   1  17  282.02   13.87   0
  -8   0  10  825.82   22.71   0
  -7   1  16   13.29    5.60   0
  -5   1  15  184.80   10.66   0
  -4   0  -2  367.82   27.07   0
  -4   0   8  709.65   22.96   0
  -3   1  14    7.92    4.47   0
   0   0   3   -0.65    6.43   0
 -15   1  18    1.57    4.32   0
 -13   1  18   14.26    5.42   0
 -11   1  18    7.02    6.15   0
  -8   0  11   -2.97    5.23   0
  -6   0  10  963.83   24.18   0
  -5   1  16   40.84    8.04   0
  -4   0   9   -1.26    6.30   0
  -2   0   7    0.35    7.04   0
   0   0   4 1137.11   37.56   0
 -15   1  19  108.21    9.35   0
 -13   1  19   46.60    7.66   0
 -12   0  12  217.37   11.92   0
 -10   0  12  400.62   15.45   0
  -9   1  18   12.35    5.39   0
  -8   0  12  266.93   13.00   0
  -7   1  17  220.02   11.78   0
  -6   0  11   -0.99    5.38   0
  -4   0  10 1119.28   26.77   0
  -3   1  15  104.66    8.48   0
  -2   0   8  611.05   21.34   0
   0   0   5   -1.51    6.91   0
 -12   0  13   -0.93    4.05   0
 -11   1  19   64.32    7.30   0
 -10   0  13   -2.53    4.61   0
  -8   0  13   -8.28    6.88   0
  -7   1  18   16.25    7.04   0
  -6   0  12  912.13   23.48   0
  -5   1  17  326.65   14.78   0
  -2   0   9    0.52    8.71   0
   0   0   6 1008.63   29.98   0
 -12   0  14   41.47    6.42   0
 -10   0  14  213.80   11.39   0
  -9   1  19  227.04   11.63   0
  -6   0  13    2.99    7.00   0
  -4   0  11    0.95    5.26   0
   0   0   7   -0.63    6.52   0
 -12   0  15   -1.93    3.97   0
 -10   0  15   -0.37    4.29   0
  -8   0  14  221.95   11.43   0
  -7   1  19  278.11   13.19   0
  -5   1  18   68.94    7.46   0
  -4   0  12  617.03   18.89   0
  -2   0  10  910.74   23.84   0
   0   0   8  830.61   24.55   0
 -12   0  16   63.82    7.00   0
 -10   0  16  227.08   11.56   0
  -8   0  15    0.31    4.29   0
  -6   0  14 1542.32   28.42   0
  -4   0  13    2.91    4.83   0
  -2   0  11   -0.57    5.09   0
   0   0   9   -2.24    7.87   0
 -12   0  17    3.94    4.84   0
 -10   0  17   -3.63    6.40   0
  -8   0  16  476.72   16.45   0
  -6   0  15    1.66    4.54   0
  -4   0  14 1857.71   31.96   0
  -2   0  12  776.63   21.24   0
   0   0  10  733.07   22.48   0
   2   0   3    0.01    6.44   0
   2   0   4  302.03   20.26   0
   2   0   5   -1.78    6.75   0
   2   0   6 1036.72   31.71   0
 -12   0  18  362.32   14.46   0
  -8   0  17    0.81    6.75   0
  -6   0  16 1004.97   23.76   0
  -2   0  13    0.08    6.40   0
   2   0   2  196.57   22.73   0
   2   0   7   -0.53    8.63   0
 -14   0  19   -1.10    4.16   0
 -12   0  19   -2.64    5.43   0
 -10   0  18  572.90   17.74   0
  -4   0  15   -0.73    4.34   0
   0   0  11   -2.05    4.88   0
   2   0   8  691.53   23.01   0
 -14   0  20  185.05   11.62   0
 -12   0  20   77.44    8.35   0
 -10   0  19    0.79    4.50   0
  -8   0  18  495.40   16.73   0
  -6   0  17    2.89    5.03   0
  -4   0  16  428.68   15.46   0
  -2   0  14  614.29   18.64   0
   0   0  12 1305.09   28.22   0
   2   0   9   -1.24    4.96   0
 -10   0  20  278.94   13.10   0
  -8   0  19   -0.83    4.59   0
  -6   0  18  231.31   11.79   0
  -4   0  17    1.10    6.06   0
  -2   0  15   -2.21    3.95   0
   0   0  13   -1.37    4.28   0
  -8   0  20  287.04   13.30   0
  -6   0  19   -2.34    4.37   0
  -2   0  16  430.29   16.19   0
  -4   0  18  231.68   12.41   0
   2   0   1    0.63    8.80   0
   4   0   4  296.76   21.11   0
  -4   0  19   -4.21    4.15   0
 -11  -1  14    9.32    5.91   0
  -9  -1  10   17.13    7.22   0
  -9  -1  11  484.79   17.65   0
  -9  -1  12   -4.65    4.34   0
  -9  -1  13  344.00   14.28   0
  -9  -1  14   13.46    6.24   0
  -7  -1  10   14.15    7.62   0
  -7  -1  11  675.98   20.00   0
  -7  -1  12   93.62    9.81   0
   4   0   3    1.04    6.21   0
 -11  -1  15  294.78   13.42   0
 -11  -1  16   40.28    5.93   0
  -9  -1   9   71.58    8.36   0
  -9  -1  15  420.83   15.40   0
  -9  -1  16   -3.89    5.32   0
  -7  -1   8   77.67   10.28   0
  -7  -1   9  256.54   13.70   0
  -7  -1  13  652.09   19.13   0
  -7  -1  14    6.05    4.59   0
  -7  -1  15  295.97   13.78   0
  -5  -1   9  371.37   15.94   0
  -5  -1  10  356.92   15.19   0
  -5  -1  11  338.10   14.37   0
  -5  -1  12   38.64    6.55   0
  -5  -1  13  699.96   20.23   0
 -11  -1  17  203.54   11.37   0
 -11  -1  18    8.50    4.76   0
  -9  -1  17  285.03   13.16   0
  -7  -1   7  247.00   15.97   0
  -7  -1  16    9.19    4.44   0
  -5  -1   8  283.55   14.74   0
  -5  -1  14    2.87    4.21   0
  -5  -1  15  185.96   11.64   0
  -3  -1   9  601.09   20.41   0
  -3  -1  10  110.35    9.24   0
  -3  -1  11  539.27   18.54   0
  -3  -1  12   -0.48    6.37   0
 -11  -1  19   56.95    6.83   0
  -9  -1  18   12.99    4.98   0
  -9  -1  19  207.57   12.03   0
  -7  -1  17  212.25   11.47   0
  -7  -1  18   11.32    6.13   0
  -5  -1   7 1282.06   30.81   0
  -5  -1  16   43.86    6.70   0
  -3  -1   7 4428.46   55.73   0
  -3  -1   8   18.72    6.67   0
  -3  -1  13  329.80   13.83   0
  -3  -1  14    9.97    5.73   0
   4   0   2  489.62   32.95   0
  -7  -1   6   37.19    9.58   0
  -7  -1  19  272.64   13.78   0
  -5  -1   6   37.07    8.14   0
  -5  -1  17  308.89   13.39   0
  -3  -1  15   95.82    8.14   0
  -1  -1   8   74.67   10.29   0
  -1  -1   9 1038.99   25.42   0
  -1  -1  10   78.32    8.21   0
  -1  -1  11  828.33   22.21   0
  -1  -1  12    6.23    6.41   0
  -5  -1  18   66.55    7.45   0
  -3  -1   6  372.52   17.74   0
  -3  -1  16   20.11    5.58   0
  -3  -1  17  191.65   11.97   0
  -1  -1   7 4287.05   53.52   0
  -1  -1  13  466.59   16.40   0
  -1  -1  14    1.07    3.91   0
  -5  -1   5  357.70   18.78   0
  -5  -1  19  236.18   12.28   0
  -3  -1   5 3843.59   56.93   0
  -3  -1  18   -2.03    5.12   0
  -1  -1   6 1699.69   35.15   0
  -1  -1  15  232.64   12.55   0
   1  -1   8  430.45   17.92   0
   1  -1   9  312.42   14.58   0
   1  -1  10  132.17    9.96   0
   1  -1  11  516.13   17.82   0
   1  -1  12   29.44    6.74   0
  -7  -1   5 1343.82   37.03   0
  -1  -1  16    7.03    4.59   0
   1  -1   7  683.46   21.79   0
   1  -1  13  515.53   17.86   0
  -1  -1   5 3373.78   51.04   0
   1  -1   6   99.59   10.23   0
  -5  -1   4   52.13   11.21   0
  -3  -1   4   84.88   10.75   0
   1  -1   5 4172.34   56.46   0
   3  -1   8   74.08    8.21   0
   3  -1   9  776.31   22.58   0
   3  -1  10   -1.86    4.03   0
  -1  -1   4 7260.42   77.68   0
   3  -1   7   85.46    8.88   0
  -8  -2  14  248.25   12.84   0
  -8  -2  15   39.05    6.95   0
  -8  -2  16  142.83   10.27   0
   1  -1   4  760.53   26.24   0
   3  -1   6    6.09    5.25   0
   4   0   1   -0.09    5.66   0
  -8  -2  12  246.89   12.30   0
  -8  -2  13   13.82    4.38   0
  -8  -2  17    2.47    3.83   0
  -6  -2  12  241.96   11.88   0
  -6  -2  13    5.27    3.86   0
  -6  -2  14  175.49   10.60   0
  -6  -2  15   37.09    6.09   0
  -6  -2  16  206.68   11.38   0
  -6  -2  17    7.95    5.03   0
   3  -1   5  379.16   17.38   0
  -6  -2  10  605.49   19.18   0
  -6  -2  11   32.72    5.67   0
  -4  -2  11  293.11   12.85   0
  -4  -2  12  243.54   11.89   0
  -4  -2  13    1.40    4.50   0
  -4  -2  14  150.59    9.79   0
  -4  -2  15   20.97    5.10   0
  -4  -2  16  233.42   11.86   0
  -3  -1   3  299.00   18.40   0
  -1  -1   3 5874.15   72.77   0
  -6  -2   9   70.09    8.32   0
  -5  -1   3 1087.61   35.66   0
  -4  -2   9   22.59    6.56   0
  -4  -2  10  684.13   19.21   0
  -2  -2  10 1847.08   31.87   0
  -2  -2  11  907.59   21.93   0
  -2  -2  12  508.09   16.41   0
  -2  -2  13    7.36    4.93   0
  -2  -2  14  234.86   11.71   0
  -2  -2  15   17.40    5.17   0
  -2  -2  16  169.92   10.18   0
   1  -1   3 5092.25   65.30   0
   3  -1   4    3.62    6.00   0
   5  -1   6  198.45   12.40   0
  -4  -2   8  374.37   15.47   0
  -2  -2   9  385.39   14.81   0
   0  -2  10  851.52   21.60   0
   0  -2  11   26.50    5.28   0
   0  -2  12  283.75   12.89   0
   0  -2  13   37.41    6.30   0
   0  -2  14  145.02    9.86   0
   0  -2  15    6.94    4.50   0
   5  -1   5  431.77   18.09   0
  -6  -2   8  416.81   15.89   0
  -2  -2   8 1333.51   26.78   0
   0  -2   9  441.23   15.51   0
   3  -1   3  682.45   23.67   0
   5  -1   4   17.71    7.40   0
  -6  -2   7  180.68   11.07   0
  -4  -2   7  104.34    8.63   0
  -2  -2   7   41.33    6.27   0
  -1  -1   2   26.78    8.04   0
   0  -2   8 1127.04   24.33   0
   2  -2   9   45.98    6.90   0
   2  -2  10  258.78   11.89   0
   2  -2  11   59.41    6.45   0
   2  -2  12  134.85    9.47   0
   2  -2  13   -2.08    3.92   0
  -3  -1   2  601.78   25.96   0
   0  -2   7   27.07    5.28   0
   1  -1   2   99.93   11.02   0
   2  -2   8  362.64   13.99   0
 -15   3   5  224.68   12.09   0
 -14   2   4  220.58    9.32   0
 -13   3   7  153.10    8.81   0
 -12   2   7   -1.20    3.07   0
 -11   1   2   15.18    3.89   0
 -11   1   3  642.67   17.57   0
 -11   3   9   91.65    7.84   0
 -10   2   8  451.72   12.85   0
  -9   1   5 1037.74   20.67   0
  -8   2   9   11.56    4.96   0
  -7   1   6   28.26    5.52   0
 -15   3   6    5.59    3.50   0
 -14   2   5   25.15    4.27   0
 -14   2   6  467.77   14.35   0
 -13   3   8    6.69    3.68   0
 -12   2   8  559.09   15.58   0
 -11   1   4  221.04   11.34   0
 -10   2   9    6.50    4.88   0
  -3   1   7 4362.72   53.68   0
   4   0  -1    0.04    3.19   0
 -15   3   7  177.49    9.96   0
 -14   2   7   11.02    5.09   0
 -13   3   9  149.30    8.77   0
 -11   3  10    8.80    3.94   0
  -9   1   6  373.37   13.47   0
  -8   2  10  490.72   15.88   0
  -7   1   7  254.16   12.74   0
  -5   1   7 1161.93   25.40   0
  -4   0  -2  277.95   29.46   0
 -15   3   8    6.89    3.93   0
 -14   2   8  989.97   20.73   0
 -13   3  10   10.03    4.15   0
 -12   2   9   30.78    4.67   0
 -11   1   5  597.73   16.71   0
 -10   2  10  249.23   10.68   0
  -9   1   7 1734.89   29.37   0
 -16   2   6  315.56   12.31   0
 -14   2   9    9.91    5.59   0
 -13   1   4   34.51    6.93   0
 -12   2  10  410.57   13.92   0
 -11   1   6  167.17    9.58   0
  -5   1   8  336.83   15.94   0
  -4   0  -1   -0.27    6.97   0
   4   0  -2  298.28   19.42   0
 -16   2   7   15.07    5.02   0
 -16   2   8  466.40   15.56   0
 -13   1   5  787.63   19.54   0
 -13   3  11  152.63    9.81   0
 -11   1   7  341.36   13.12   0
 -10   2  11    4.98    3.83   0
  -9   1   8    7.60    6.71   0
  -7   1   8   78.20    7.87   0
 -16   2   9    7.27    6.02   0
 -14   2  10  589.58   16.25   0
 -13   1   6   38.81    6.20   0
 -12   2  11    6.90    4.09   0
  -4   0   0 1086.86   46.66   0
   4   0  -3    0.57    3.75   0
 -16   2  10  435.22   15.78   0
 -14   2  11    9.53    5.17   0
 -13   1   7  252.87   11.70   0
 -12   2  12  416.39   15.24   0
 -11   1   8  318.07   12.93   0
  -9   1   9   82.20    7.90   0
  -7   1   9  312.51   13.94   0
  -5   1   9  451.06   18.50   0
 -18   2   8  186.09   10.65   0
 -16   2  11   35.08    7.15   0
 -15   1   6    4.44    6.41   0
 -14   2  12  340.61   14.49   0
 -13   1   8   86.07    7.92   0
 -11   1   9  165.47    9.89   0
 -18   2   9   -3.18    4.11   0
 -18   2  10  186.66   11.72   0
 -15   1   7  543.24   16.80   0
 -13   1   9  667.04   18.89   0
 -12   2  13    9.68    4.91   0
  -9   1  10   26.06    5.89   0
  -7   1  10   26.77    7.50   0
  -6   0   0  897.02   37.66   0
  -4   0   1   -0.61    5.78   0
   2   0  -2 5906.53  110.01   0
 -18   2  11   40.59    6.12   0
 -16   2  12  279.96   12.68   0
 -15   1   8   19.80    5.48   0
 -14   2  13    9.45    4.68   0
 -11   1  10  176.55   10.38   0
  -6   0   1   -0.98    6.14   0
   2   0  -4  550.72   28.98   0
   2   0  -3   -0.64    4.29   0
 -18   2  12  300.97   12.92   0
 -16   2  13    5.92    4.61   0
 -15   1   9  568.37   16.95   0
 -14   2  14  369.71   15.58   0
 -13   1  10  294.94   12.72   0
 -11   1  11  337.25   14.91   0
  -9   1  11  651.67   19.24   0
  -6   0   2 1317.31   38.98   0
  -4   0   2  302.92   21.88   0
 -20   2  11    0.68    3.99   0
 -18   2  13   62.50    7.95   0
 -17   1   8    0.69    3.80   0
 -16   2  14  145.95   10.52   0
 -15   1  10    6.28    4.88   0
 -13   1  11  912.99   21.45   0
  -8   0   1    0.67    8.83   0
  -6   0   3    2.42   10.03   0
 -18   2  14  178.04   11.44   0
 -17   1   9  175.44   10.13   0
 -15   1  11  864.68   20.78   0
 -13   1  12   17.25    6.48   0
 -11   1  12    0.91    4.31   0
  -9   1  12    0.71    4.23   0
  -8   0   2  119.28   12.42   0
  -8   0   3   -2.27    6.70   0
  -4   0   3    1.91    6.60   0
  -2   0   2 6039.85  115.82   0
   0   0  -4 1021.89   47.28   0
 -17   1  10   19.19    4.92   0
 -17   1  11  338.31   14.46   0
 -16   2  15   28.48    5.61   0
 -15   1  12   -1.57    6.11   0
  -8   0   4 1320.45   33.40   0
  -6   0   4 1147.86   33.58   0
 -19   1  10   26.00    7.22   0
 -17   1  12    0.23    5.79   0
 -15   1  13  672.90   19.83   0
 -13   1  13  244.29   11.97   0
 -11   1  13  342.98   14.46   0
 -10   0   3    6.92    6.56   0
 -10   0   4 3193.31   49.07   0
  -8   0   5   -2.03    7.06   0
  -6   0   5   -0.82    6.88   0
  -4   0   4   36.16    9.35   0
   0   0  -3    0.21    4.31   0
 -19   1  11  216.81   11.43   0
 -17   1  13  564.98   18.45   0
 -10   0   5    8.55    7.23   0
 -10   0   6  864.80   25.42   0
  -8   0   6  356.42   17.40   0
  -2   0   3    0.82    6.63   0
 -19   1  12    6.09    5.20   0
 -15   1  14   23.74    5.43   0
 -13   1  14   55.29    6.71   0
 -12   0   4  788.20   24.17   0
 -12   0   5    2.92    5.37   0
 -12   0   6 1869.47   35.13   0
 -11   1  14   10.44    4.73   0
 -10   0   7    1.62    8.72   0
  -8   0   7    3.06    9.68   0
  -6   0   6   31.41    8.72   0
  -4   0   5    1.95    7.03   0
 -19   1  13  232.46   11.84   0
 -17   1  14   11.36    5.42   0
 -15   1  15  357.32   15.13   0
 -13   1  15  212.01   11.35   0
 -12   0   7   -3.60    5.70   0
 -10   0   8  240.91   14.60   0
  -6   0   7    0.03    9.48   0
  -2   0   4  595.59   32.11   0
 -21   1  12    2.55    4.12   0
 -21   1  13  181.91   11.39   0
 -19   1  14    2.07    4.75   0
 -17   1  15  706.81   19.68   0
 -14   0   6  903.05   23.96   0
 -14   0   7   -1.07    5.12   0
 -12   0   8  154.80   10.66   0
 -10   0   9    1.55    7.75   0
  -8   0   8 3255.92   46.68   0
  -4   0   6  528.52   23.72   0
 -21   1  14   32.61    5.54   0
 -19   1  15  324.85   13.98   0
 -17   1  16    0.62    5.02   0
 -15   1  16    1.71    4.87   0
 -14   0   8 1578.12   30.11   0
 -14   0   9    0.64    4.87   0
 -12   0   9   -0.96    5.04   0
 -12   0  10   42.42    8.34   0
  -8   0   9    0.82    5.84   0
  -6   0   8  287.61   15.99   0
 -21   1  15  123.75    9.15   0
 -19   1  16   16.15    5.05   0
 -17   1  17  217.64   12.55   0
 -16   0   8  952.29   23.57   0
 -16   0   9   -6.56    6.15   0
 -14   0  10  553.59   17.75   0
 -10   0  10 1347.00   28.33   0
  -4   0   7   -1.14    6.59   0
  -2   0   5   -1.01    6.70   0
 -19   1  17  225.60   11.80   0
 -16   0  10  506.57   16.86   0
 -16   0  11    6.68    6.03   0
 -14   0  11    0.96    4.66   0
 -12   0  11   -1.63    4.61   0
 -10   0  11    1.98    4.96   0
  -8   0  10  835.03   23.63   0
  -6   0   9    1.84    5.79   0
 -18   0  10  310.71   13.32   0
 -18   0  11   -1.52    5.47   0
 -16   0  12  522.47   16.81   0
 -14   0  12  293.01   13.06   0
 -12   0  12  241.46   12.13   0
 -10   0  12  473.07   17.81   0
  -8   0  11   -0.81    4.99   0
  -6   0  10 1081.72   28.89   0
  -4   0   8  741.57   26.21   0
  -2   0   6 1189.71   38.74   0
 -18   0  12  296.26   12.99   0
 -16   0  13    0.95    4.17   0
 -14   0  13    1.42    4.21   0
 -12   0  13   -0.81    4.25   0
   0   0   2 9604.80  205.65   0
 -20   0  12  175.47   11.16   0
 -18   0  13   -0.87    4.88   0
 -18   0  14  206.55   11.67   0
 -16   0  14  323.55   13.38   0
 -14   0  14   76.67    7.49   0
 -12   0  14   50.84    7.96   0
 -10   0  13    2.24    4.47   0
  -8   0  12  280.99   13.93   0
  -6   0  11    2.26    6.75   0
  -4   0   9    0.19    5.74   0
  -2   0   7   -0.98    8.66   0
 -20   0  13   -1.44    4.40   0
 -20   0  14  173.94   11.17   0
 -18   0  15   -0.81    4.92   0
 -16   0  15   -2.93    4.74   0
 -14   0  15    0.85    3.81   0
 -10   0  14  230.24   12.90   0
   0   0   3   -0.39    6.28   0
 -20   0  15    0.92    4.15   0
 -18   0  16  291.90   13.80   0
 -16   0  16  668.94   19.09   0
 -14   0  16   52.85    7.46   0
 -12   0  15   -1.32    3.77   0
 -22   0  14   36.79    5.79   0
 -22   0  15   -1.44    3.77   0
 -20   0  16  249.40   12.10   0
 -18   0  17    2.37    5.14   0
 -16   0  17    0.73    5.64   0
   0   0   4 1012.88   48.20   0
 -20   0  17    1.36    3.73   0
 -18   0  18  507.17   17.26   0
 -14   0  17   -0.17    4.22   0
 -16   0  18  724.71   20.46   0
   0   0   5    0.89    6.21   0
 -17  -1  10   14.54    5.66   0
 -17  -1  11  279.99   13.29   0
 -15  -1   8   15.13    4.76   0
 -15  -1   9  411.46   15.48   0
 -15  -1  10    7.11    4.54   0
 -15  -1  11  812.96   20.73   0
 -15  -1  12    6.16    5.53   0
 -13  -1   6   39.10    7.77   0
 -13  -1   7  208.58   11.78   0
 -13  -1   8   72.40    7.68   0
 -13  -1   9  484.45   16.73   0
 -13  -1  10  255.84   12.38   0
 -13  -1  11  777.85   20.32   0
 -11  -1   6  158.85   11.78   0
 -11  -1   7  306.95   14.20   0
 -11  -1   8  239.09   12.54   0
 -11  -1   9  130.29    9.53   0
 -11  -1  10  150.92   10.94   0
 -19  -1  12    5.59    4.62   0
 -19  -1  13  227.78   11.87   0
 -17  -1  12    2.08    3.51   0
 -17  -1  13  544.36   17.25   0
 -17  -1  14   11.57    5.51   0
 -15  -1  13  671.28   18.80   0
 -15  -1  14   22.94    6.44   0
 -13  -1  12   11.58    4.66   0
 -13  -1  13  278.50   13.13   0
 -11  -1   5  602.62   20.43   0
 -11  -1  11  314.91   13.43   0
  -9  -1   5 1275.52   30.50   0
  -9  -1   6  368.67   16.21   0
  -9  -1   7 1316.60   28.70   0
  -9  -1   8    7.83    5.43   0
  -9  -1   9   71.99    7.97   0
 -19  -1  14    0.97    4.41   0
 -19  -1  15  328.18   13.61   0
 -17  -1  15  709.61   19.54   0
 -15  -1  15  361.19   14.07   0
 -13  -1  14   62.45    6.78   0
 -11  -1  12    0.64    3.99   0
 -11  -1  13  394.42   15.47   0
  -9  -1   4   53.47    9.47   0
  -9  -1  10   21.02    5.85   0
  -9  -1  11  642.95   19.83   0
 -21  -1  15  119.01    8.63   0
 -19  -1  16   18.96    4.79   0
 -19  -1  17  232.36   12.42   0
 -17  -1  16    7.05    4.51   0
 -17  -1  17  218.38   12.15   0
 -15  -1  16    2.33    4.41   0
 -13  -1  15  261.09   12.12   0
 -11  -1  14    9.80    4.35   0
  -9  -1   3  481.94   20.74   0
  -9  -1  12    3.28    3.97   0
  -7  -1   5 1232.78   29.94   0
  -7  -1   6   29.06    7.27   0
  -7  -1   7  191.31   12.20   0
  -7  -1   8   70.26    8.52   0
  -7  -1   9  273.13   13.58   0
 -17  -1  18   10.52    5.03   0
 -15  -1  17  242.15   12.13   0
 -13  -1  16    6.57    5.15   0
 -11  -1  15  417.21   15.12   0
  -9  -1  13  414.36   15.50   0
  -7  -1   4  138.35   11.85   0
  -7  -1  10   18.10    5.46   0
  -7  -1  11  912.68   23.73   0
 -15  -1  18    4.87    4.07   0
 -13  -1  17  126.98    9.13   0
 -11  -1  16   39.16    5.63   0
  -9  -1  14   13.47    4.63   0
  -7  -1   3  362.16   18.09   0
  -7  -1  12   91.62    8.31   0
  -5  -1   6   31.54    9.71   0
  -5  -1   7 1091.32   27.51   0
  -5  -1   8  293.70   15.78   0
  -7  -1   2  167.88   14.61   0
  -7  -1  13  764.02   21.15   0
  -5  -1   4   55.36   10.94   0
  -5  -1   5  329.43   16.66   0
  -5  -1   9  383.17   16.20   0
  -5  -1  10  402.04   17.18   0
  -5  -1   3 1166.11   32.77   0
  -5  -1  11  407.92   16.99   0
  -7  -1   1  832.91   29.49   0
  -5  -1   2   65.42   10.07   0
  -3  -1   5 3532.88   53.63   0
  -3  -1   6  360.56   17.31   0
  -3  -1   7 3996.41   53.70   0
  -3  -1   8   20.22    8.11   0
  -3  -1   4   73.01   10.15   0
  -3  -1   9  592.68   20.68   0
   0   0   4  838.18   43.83   0
   1  -1  -5 3534.30   55.62   0
   3  -1  -8   20.30    6.74   0
   4  -2  -8  408.57   16.23   0
   7  -3  -7  361.06   15.71   0
   9  -3 -10    8.02    4.54   0
  11  -3 -12   28.97    6.45   0
   0   0   3    0.16    7.65   0
   2  -2  -5   38.82    6.72   0
   5  -3  -5  236.44   12.95   0
   6  -2 -11   39.48    6.19   0
   7  -3  -8   11.15    5.05   0
   8  -2 -13    9.59    4.35   0
   9  -3 -11  127.38   10.72   0
  -1  -1   0   12.52   10.46   0
  -1  -1   1  355.61   25.07   0
  -1  -1   2   15.99    9.13   0
  -1  -1   3 5428.83  126.52   0
   0  -2  -1   73.48    9.60   0
   0  -2   0  552.68   21.25   0
   1  -1  -6 1770.63   38.53   0
   2  -2  -6  442.66   16.80   0
   2   0  -6 1332.19   50.39   0
   3  -1  -9  617.29   21.84   0
   4  -2  -9   20.94    5.21   0
   5  -3  -6    0.37    3.42   0
   7  -3  -9  339.53   14.94   0
  -1  -1  -1 1672.68   43.58   0
   0  -2  -2  709.82   22.10   0
   0   0   2 9303.91  190.33   0
   2  -2  -7   36.31    6.30   0
   4  -2 -10  767.63   21.43   0
   5  -3  -7  178.64   10.91   0
   6  -2 -12  289.74   13.82   0
   7  -3 -10   50.53    6.97   0
   9  -3 -12   11.64    4.39   0
  -1  -1  -2   95.45   13.54   0
   0  -2  -3  116.19    9.34   0
   1  -1  -7 4586.83   58.50   0
   3  -3  -5  207.89   11.58   0
   3  -1 -10  115.06    9.84   0
   5  -3  -8   13.34    4.60   0
   6  -2 -13    7.37    5.31   0
   7  -3 -11  297.07   13.85   0
   9  -3 -13   78.36    8.03   0
  -1  -1  -3 4883.86   64.70   0
   0  -2  -4  792.98   21.51   0
   2  -2  -8 1102.65   24.69   0
   3  -3  -6   17.81    4.31   0
   4  -2 -11  340.23   14.26   0
   5  -3  -9  111.97    9.09   0
   7  -3 -12   23.86    5.86   0
   0  -2  -5   20.57    5.07   0
   1  -1  -8   75.82    8.46   0
   2  -2  -9  390.53   14.57   0
   3  -3  -7  145.44    9.57   0
   4  -2 -12  317.54   13.82   0
   5  -3 -10   53.12    6.54   0
  -1  -1  -4  687.38   23.39   0
   0  -2  -6  868.93   21.15   0
   2  -2 -10 1908.39   30.73   0
   3  -3  -8   19.13    4.22   0
   5  -3 -11  170.15   10.36   0
   7  -3 -13   89.37    7.74   0
  -2  -2  -1   69.68    9.02   0
  -2  -2   0  549.40   20.07   0
  -1  -1  -5 3943.66   52.20   0
   0  -2  -7   23.21    5.06   0
   1  -3  -6   -2.51    4.01   0
   1  -3  -5  165.70    9.87   0
   1  -1  -9 1133.76   26.82   0
   3  -3  -9  208.03   10.99   0
   4  -2 -13    2.01    3.15   0
   5  -3 -12   38.86    5.48   0
  -2  -2  -3  104.34    9.03   0
  -2  -2  -2  723.70   21.33   0
  -1  -1  -6  105.49   10.83   0
   0  -2  -8 1196.57   24.39   0
   0   0  -2 9421.27  181.65   0
   1  -3  -7  120.58    8.36   0
   2  -2 -11  890.65   20.45   0
   3  -3 -10   44.39    5.86   0
   5  -3 -13  109.60    8.82   0
  -2  -2  -5  348.05   15.31   0
  -2  -2  -4  780.89   21.73   0
   0  -2  -9  475.97   15.51   0
   0   0  -3    0.36    8.11   0
   1  -3  -8    7.94    3.88   0
   1  -1 -10   81.12    7.72   0
   2  -2 -12  588.22   17.67   0
   3  -3 -11  208.01   10.92   0
  -2  -2  -6  765.05   21.08   0
  -1  -3  -5  160.58    9.44   0
  -1  -3  -4    6.86    3.34   0
  -1  -1  -7  657.15   19.69   0
   1  -3  -9  273.07   11.68   0
   3  -3 -12    2.65    3.71   0
  -2  -2  -7   42.76    6.55   0
  -1  -3  -6    6.48    3.67   0
  -1  -1  -8  472.50   16.89   0
   0  -2 -10  751.51   18.61   0
   0   0  -4  957.76   40.45   0
   1  -3 -10   31.23    4.79   0
   2  -2 -13   13.63    4.37   0
  -3  -1  -3  724.99   22.42   0
  -3  -1  -2  149.58   11.29   0
  -3  -1  -1  120.75   10.80   0
  -3  -1   0  233.81   14.88   0
  -2  -2  -8  407.92   14.01   0
  -1  -3  -8   25.54    4.97   0
  -1  -3  -7  224.45   10.35   0
   0  -2 -11   26.19    4.32   0
   1  -3 -11  248.84   11.15   0
  -4  -2  -3    5.26    3.85   0
  -4  -2  -2  137.15    9.39   0
  -4  -2  -1  104.23    8.70   0
  -4  -2   0  493.84   17.97   0
  -3  -1  -4    3.16    4.72   0
  -3  -1   1   50.45    8.38   0
  -2  -2  -9   51.43    6.09   0
  -1  -3  -9  179.88    9.92   0
  -1  -1  -9  331.43   13.13   0
   0  -2 -12  330.45   12.82   0
   0   0  -5   -0.44    4.94   0
   1  -3 -12   45.46    5.80   0
   2   0   3    1.03    3.47   0
  -4  -2  -5  259.37   10.59   0
  -4  -2  -4  163.63    8.78   0
  -3  -3  -5  271.33   10.80   0
  -3  -3  -4   11.91    3.24   0
  -3  -1  -5  356.53   14.37   0
  -3  -1   2  683.26   27.99   0
  -1  -3 -10    7.44    4.21   0
  -1  -1 -10  176.03   10.55   0
   0   0  -6  940.44   32.79   0
  -4  -2  -6  422.81   13.06   0
  -3  -3  -7  296.90   11.31   0
  -3  -3  -6   18.83    3.88   0
  -3  -1  -6    3.25    3.88   0
  -2  -2 -10  272.81   10.75   0
  -1  -3 -11   53.77    5.84   0
  -4  -2  -7    0.74    2.62   0
  -3  -3  -8   16.51    3.63   0
  -3  -1  -7   87.81    7.22   0
  -2  -2 -11   72.11    5.84   0
  -5  -3  -4    4.19    2.93   0
  -4  -2  -8  255.58    9.89   0
  -3  -3  -9   30.97    4.16   0
  -3  -1  -8   81.21    6.56   0
  -3  -1   3  280.79   19.56   0
  -2  -2 -12  157.86    8.40   0
   2   0   2  162.68   15.01   0
  -6  -2  -5   -1.81    3.63   0
  -6  -2  -4  449.98   12.80   0
  -6  -2  -3   85.59    6.05   0
  -6  -2  -2  173.27    8.35   0
  -6  -2  -1   10.17    3.25   0
  -6  -2   0  638.89   16.64   0
  -5  -3  -6   15.50    3.38   0
  -5  -3  -5  130.18    7.36   0
  -5  -1  -3 1092.79   23.06   0
  -5  -1  -2   17.86    6.43   0
  -4  -2  -9   31.96    4.04   0
  -3  -3 -10   23.26    3.72   0
  -3  -1  -9  883.82   19.77   0
  -6  -2  -6  383.98   11.76   0
  -5  -3  -8   15.80    3.76   0
  -5  -3  -7   91.99    5.94   0
  -5  -1  -5  493.44   15.27   0
  -5  -1  -4   14.06    4.30   0
  -5  -1  -1  112.51    8.65   0
  -5  -1   0  128.78   10.33   0
  -4  -2 -10  214.68    8.96   0
  -6  -2  -7   33.05    4.13   0
  -5  -3  -9   50.66    4.83   0
  -5  -1  -6  218.66    9.81   0
  -5  -1   1 1425.17   30.13   0
  -4  -2 -11   18.52    3.28   0
  -7  -3  -5  197.13    8.66   0
  -7  -3  -4   42.23    4.61   0
  -6  -2  -9    2.88    3.39   0
  -6  -2  -8  113.62    6.39   0
  -5  -1  -7  183.96    8.75   0
  -8  -2  -4  554.22   13.63   0
  -8  -2  -3    5.26    2.62   0
  -8  -2  -2  146.84    7.18   0
  -8  -2  -1  160.72    7.60   0
  -8  -2   0  223.77    9.35   0
  -7  -3  -7   85.27    5.95   0
  -7  -3  -6    0.88    2.44   0
  -6  -2 -10  222.19    9.29   0
  -5  -1  -8   37.67    4.51   0
  -5  -1   2   60.84    7.33   0
  -2   0  -5    0.97    5.38   0
  -2   0  -4  313.02   17.35   0
  -8  -2  -6  538.51   13.22   0
  -8  -2  -5   34.14    3.95   0
  -8  -2   1    3.34    2.61   0
  -7  -1  -3 1676.03   25.39   0
  -5  -1  -9  411.91   12.42   0
  -2   0  -6  913.54   24.78   0
  -2   0  -3    0.74    4.16   0
   2   0   1    0.30    2.95   0
  -9  -3  -4    4.80    3.22   0
  -8  -2  -8  348.96   11.14   0
  -8  -2  -7    1.13    2.76   0
  -7  -1  -6  170.86    8.45   0
  -7  -1  -5  142.02    7.49   0
  -7  -1  -4   15.51    3.70   0
  -7  -1  -2  267.31   10.56   0
  -7  -1  -1 1138.99   21.56   0
  -6  -2 -11    5.55    2.63   0
  -9  -3  -6    1.02    2.06   0
  -9  -3  -5   64.12    5.14   0
  -8  -2  -9    7.34    2.73   0
  -7  -1  -7  335.68   10.89   0
  -7  -1   0   86.90    6.87   0
  -5  -1   3 1009.42   26.99   0
  -2   0  -2  170.13   13.92   0
 -10  -2  -5   33.30    4.42   0
 -10  -2  -4  643.85   14.05   0
 -10  -2  -3   45.95    4.36   0
 -10  -2  -2  331.72   10.17   0
 -10  -2  -1   19.19    3.27   0
 -10  -2   0   34.89    3.88   0
  -8  -2 -10  185.62    8.35   0
  -7  -1  -8    8.84    2.85   0
  -7  -1   1  745.56   18.42   0
 -10  -2  -7    3.76    3.22   0
 -10  -2  -6  465.98   12.05   0
 -10  -2   1   52.84    4.75   0
  -7  -1   2  166.85   10.19   0
 -10  -2  -8  209.35    8.50   0
  -9  -1  -6   76.67    6.15   0
  -9  -1  -5  614.88   14.10   0
  -9  -1  -4  147.63    7.31   0
  -9  -1  -3   71.26    5.42   0
  -9  -1  -2  125.69    7.02   0
  -9  -1  -1  222.38    9.13   0
  -4   0  -6 1216.40   25.31   0
  -4   0  -5   -0.11    3.20   0
  -4   0  -4  294.60   13.96   0
  -2   0  -1    0.25    3.81   0
 -12  -2  -4  459.64   12.44   0
 -12  -2  -3   37.52    4.51   0
 -12  -2  -2  708.02   15.11   0
 -12  -2  -1   65.22    5.59   0
 -10  -2  -9   40.25    4.30   0
  -9  -1  -7  581.97   14.01   0
  -9  -1   0  315.44   10.90   0
  -7  -1   3  389.38   14.91   0
  -4   0  -3   -0.95    3.74   0
 -12  -2  -6  303.61   10.67   0
 -12  -2  -5   13.99    3.23   0
 -12  -2   0  472.03   12.09   0
 -12  -2   1   19.00    3.13   0
  -9  -1  -8   20.72    3.35   0
  -9  -1   1  656.58   15.70   0
  -4   0  -2  531.29   19.24   0
 -12  -2  -7   15.48    3.39   0
 -11  -1  -4    1.19    3.48   0
 -11  -1  -3  564.05   14.00   0
 -11  -1  -2  130.50    7.59   0
  -9  -1   2   18.30    4.14   0
   2   0   0 4527.92   81.82   0
 -11  -1  -6   16.34    3.35   0
 -11  -1  -5  741.73   15.33   0
 -11  -1  -1  952.29   17.31   0
 -11  -1   0  164.04    8.34   0
  -7  -1   4  166.24   10.71   0
  -6   0  -5    0.19    3.08   0
  -6   0  -4  591.60   17.50   0
  -4   0  -1    0.36    5.32   0
 -14  -2  -5   32.31    3.85   0
 -14  -2  -4  272.48    9.66   0
 -14  -2  -3    7.07    2.89   0
 -14  -2  -2  297.06    9.81   0
 -14  -2  -1    2.39    2.51   0
 -14  -2   0  402.07   11.38   0
 -14  -2   1   14.19    3.57   0
 -11  -1  -7  429.49   12.25   0
 -11  -1   1  947.92   17.85   0
  -9  -1   3  460.02   13.97   0
  -6   0  -3   -0.37    3.62   0
 -11  -1   2   18.64    3.80   0
  -6   0  -2 2696.49   36.05   0
   4   0  -1    0.36    2.38   0
 -13  -1  -6    5.10    3.88   0
 -13  -1  -5  630.71   14.38   0
 -13  -1  -4    6.81    2.94   0
 -13  -1  -3  300.70   10.00   0
 -13  -1  -2    3.47    2.58   0
 -13  -1  -1  528.07   12.83   0
 -13  -1   0    1.73    4.03   0
  -9  -1   4   56.83    5.81   0
  -8   0  -5    3.86    4.13   0
  -6   0  -1   -2.20    5.70   0
 -16  -2  -3    3.83    2.50   0
 -16  -2  -2  103.93    6.28   0
 -16  -2  -1    8.01    2.70   0
 -16  -2   0  243.60    9.51   0
 -16  -2   1    2.59    3.20   0
 -13  -1  -7  418.03   12.45   0
 -13  -1   1 1190.51   19.40   0
 -11  -1   3  572.67   14.77   0
  -8   0  -4  145.59    8.40   0
  -8   0  -3   -0.33    3.49   0
  -4   0   0 1126.88   29.57   0
 -13  -1   2   23.12    4.10   0
 -11  -1   4  249.29   10.88   0
  -8   0  -2 1066.94   21.76   0
  -6   0   0 1361.76   27.64   0
 -15  -1  -5  164.75    8.02   0
 -15  -1  -4    5.79    3.18   0
 -15  -1  -3  142.90    7.44   0
 -15  -1  -2    8.76    3.00   0
 -15  -1  -1  109.55    6.48   0
 -15  -1   0    2.21    3.74   0
 -13  -1   3  946.26   18.35   0
 -10   0  -5   -2.74    3.81   0
 -10   0  -4  196.64    9.72   0
  -8   0  -1   -0.87    4.23   0
 -15  -1  -6   -2.48    2.68   0
 -15  -1   1  340.66   10.83   0
 -10   0  -3   -2.08    3.11   0
 -10   0  -2  933.25   18.70   0
  -8   0   0  817.88   19.34   0
   0  -2   3  106.54   10.36   0
   2  -2   0  580.16   20.95   0
   5  -3   2    5.04    4.26   0
   5  -1  -5  336.12   20.68   0
   6  -2  -4  318.97   15.53   0
   7  -3   0   20.68    5.97   0
   9  -3  -2    3.30    3.87   0
  10  -2  -7   12.14    5.06   0
   0  -2   2  731.72   24.73   0
   5  -3   1  269.07   13.54   0
   7  -3  -1  159.90   10.76   0
   8  -2  -6  326.05   15.56   0
   9  -3  -3  145.68   10.42   0
  11  -3  -4   27.70    6.13   0
  13  -3  -5  310.04   14.64   0
  -1  -1   1  350.45   22.18   0
   2  -2  -1   12.18    5.83   0
   3  -3   3  336.83   15.39   0
   4  -2  -3   77.86    8.97   0
   5  -3   0    7.31    4.49   0
   6  -2  -5   32.84    6.69   0
   7  -3  -2    5.75    4.14   0
   9  -3  -4   57.64    8.28   0
  11  -3  -5  130.77   10.00   0
  13  -3  -6    9.63    5.08   0
  -3  -1   4   63.71   13.07   0
   0  -2   1   61.61    8.38   0
   3  -3   2   24.97    5.52   0
   3  -1  -4   67.64   10.59   0
   5  -3  -1  389.14   16.28   0
   7  -3  -3  245.78   13.21   0
   8  -2  -7   61.87    8.97   0
  11  -3  -6    0.80    5.39   0
   1  -1  -2   24.23    8.89   0
   2  -2  -2  756.46   23.23   0
   3  -3   1  533.52   18.72   0
   4  -2  -4 1541.01   32.87   0
   5  -1  -6   31.35    8.02   0
   9  -3  -5  124.88    9.65   0
  -2  -2   3  107.18   11.07   0
   0  -2   0  629.24   21.58   0
   3  -3   0    8.91    4.49   0
   5  -3  -2   43.11    6.37   0
   6  -2  -6  413.29   17.43   0
   7  -3  -4   50.59    6.61   0
  11  -3  -7   74.18    8.05   0
  -1  -1   0   12.54    8.36   0
   1  -3   2   11.24    4.24   0
   2  -2  -3  133.41   12.23   0
   3  -3  -1  702.97   21.34   0
   4  -2  -5  423.07   18.63   0
   5  -3  -3  377.34   15.77   0
   7  -3  -5  195.61   12.05   0
   9  -3  -6   -0.82    4.47   0
  -3  -1   3  270.59   20.67   0
  -2  -2   2  643.81   21.85   0
   0  -2  -1   64.18    8.12   0
   1  -3   1  592.64   19.50   0
   3  -1  -5 3408.47   58.94   0
   5  -3  -4   37.60    7.03   0
   6  -2  -7  205.76   12.74   0
   9  -3  -7  167.29   11.68   0
   1  -3   0   12.54    6.17   0
   1  -1  -3 5304.78   73.85   0
   3  -3  -2   18.88    4.85   0
   5  -1  -7 1306.27   36.78   0
   7  -3  -6    5.57    4.98   0
  -2  -2   1    9.28    5.07   0
   0  -2  -2  707.82   21.24   0
   2  -2  -4  656.18   21.55   0
   3  -3  -3  370.43   15.32   0
   4  -2  -6  407.55   17.47   0
   5  -3  -5  263.64   12.98   0
   9  -3  -8   15.51    5.36   0
  -3  -1   2  676.43   31.03   0
  -1  -1  -1 1654.12   42.37   0
   1  -3  -1  474.26   17.16   0
   6  -2  -8  534.89   19.85   0
   7  -3  -7  386.37   16.03   0
  -2  -2   0  501.33   18.35   0
  -1  -3   1  451.08   16.99   0
   0  -2  -3  119.78   10.86   0
   1  -3  -2   32.83    5.62   0
   2  -2  -5   36.71    6.52   0
   3  -3  -4   10.40    4.11   0
   4  -2  -7  113.27   10.48   0
   5  -3  -6    6.85    3.88   0
  -4  -2   3   83.60    9.75   0
  -1  -3   0   13.26    4.56   0
   1  -3  -3  288.23   14.00   0
   1  -1  -4 6628.34   79.67   0
   3  -3  -5  240.72   12.34   0
   3  -1  -6  355.44   19.00   0
   7  -3  -8   13.44    4.81   0
  -4  -2   2  468.09   19.38   0
  -3  -1   1   88.75   13.80   0
  -2  -2  -1   68.25    8.00   0
  -1  -3  -1  621.53   19.96   0
  -1  -1  -2   98.90   11.97   0
   2  -2  -6  440.68   17.59   0
   5  -3  -7  193.99   11.17   0
   0  -2  -4  809.37   22.45   0
   1  -3  -4   33.25    5.47   0
   3  -3  -6   14.03    4.52   0
   4  -2  -8  384.43   15.94   0
   5  -3  -8    9.20    5.64   0
  -4  -2   1   11.28    5.07   0
  -3  -3   1  592.96   19.13   0
  -2  -2  -2  827.54   23.07   0
  -2   0   5   -0.05    4.68   0
  -1  -3  -2   10.59    4.23   0
   1  -1  -5 3366.14   55.39   0
  -3  -3   0   10.49    4.00   0
  -3  -1   0  268.73   19.44   0
  -1  -3  -3  435.82   16.58   0
  -1  -1  -3 5280.98   69.77   0
   0  -2  -5   23.29    5.69   0
   1  -3  -5  193.37   11.04   0
   2  -2  -7   39.13    6.43   0
   3  -3  -7  148.91   10.30   0
   3  -1  -7 3972.04   59.10   0
   4  -2  -9   20.69    6.09   0
   4   0  -5    0.39    9.68   0
   5  -3  -9  130.68    9.98   0
  -4  -2   0  402.51   16.65   0
  -3  -3  -1  532.85   17.57   0
  -2  -2  -3   84.96    8.17   0
   1  -3  -6    0.02    3.41   0
   3  -3  -8   17.76    5.57   0
  -5  -1   4   38.89    9.14   0
  -4  -2  -1  105.16    8.98   0
  -3  -3  -2   23.40    6.00   0
  -2  -2  -4  770.86   21.89   0
  -1  -3  -4   10.38    4.05   0
   0  -2  -6  970.59   23.68   0
   2  -2  -8 1392.73   28.66   0
  -6  -2   2  482.90   18.90   0
  -3  -1  -1  147.89   13.30   0
  -1  -3  -5  178.09   10.53   0
   1  -3  -7  127.56    9.66   0
   1  -1  -6 1689.75   38.07   0
   3  -3  -9  221.13   12.77   0
   3  -1  -8   18.07    7.48   0
  -5  -3   0    7.53    3.41   0
  -5  -1   3  754.18   31.03   0
  -4  -2  -2  128.22    9.57   0
  -3  -3  -3  357.47   14.03   0
  -2  -2  -5  290.58   13.83   0
  -1  -1  -4  684.81   24.50   0
   0  -2  -7   23.79    5.27   0
   2  -2  -9  417.06   16.53   0
   2   0  -3    0.41    8.37   0
  -6  -2   1    5.03    4.17   0
  -5  -3  -1  240.07   11.55   0
  -5  -1   2   62.51   11.60   0
  -3  -3  -4   14.49    3.78   0
  -1  -3  -6   12.03    4.45   0
   1  -3  -8    7.34    4.69   0
   3  -3 -10   40.88    7.27   0
  -6  -2   0  701.32   20.51   0
  -5  -3  -2    6.03    4.30   0
  -4  -2  -3    4.30    4.32   0
  -3  -1  -2  139.87   12.21   0
  -2  -2  -6  685.65   20.15   0
  -1  -3  -7  264.05   13.12   0
  -1  -1  -5 4440.99   59.28   0
   0  -2  -8 1211.18   26.46   0
   1  -3  -9  263.65   13.75   0
   1  -1  -7 4460.32   59.31   0
  -6  -2  -1   10.98    5.99   0
  -5  -1   1 1305.17   35.12   0
  -4  -2  -4  214.83   12.13   0
  -3  -3  -5  270.39   11.82   0
  -5  -3  -3  109.91    7.64   0
  -3  -3  -6   18.90    4.12   0
  -3  -1  -3  686.27   23.10   0
  -2  -2  -7   42.97    6.77   0
  -1  -3  -8   26.62    5.28   0
   0  -2  -9  451.35   16.62   0
   1  -3 -10   26.96    6.30   0
  -7  -3  -1  157.66    9.95   0
  -6  -2  -2  253.28   12.11   0
  -5  -3  -4    4.80    3.18   0
  -5  -1   0  117.82   11.27   0
  -4  -2  -5  272.59   12.14   0
  -1  -1  -6   96.21    9.68   0
   1  -1  -8   79.37    8.75   0
  -8  -2   1    6.38    3.80   0
  -7  -3  -2    9.58    4.96   0
  -6  -2  -3   94.34    8.79   0
  -5  -3  -5  171.23   10.52   0
  -5  -1  -1  136.01   12.70   0
  -3  -3  -7  317.47   13.16   0
  -3  -1  -4    6.75    5.49   0
  -2  -2  -8  405.35   15.32   0
  -1  -3  -9  177.54   10.40   0
  -8  -2   0  213.82   11.02   0
  -7  -3  -3  147.81   10.06   0
  -4  -2  -6  437.84   15.06   0
  -3  -3  -8   13.64    5.06   0
  -1  -3 -10    7.77    4.44   0
  -1  -1  -7  749.29   23.21   0
   0  -2 -10  868.37   21.75   0
  -8  -2  -1  188.64   10.98   0
  -6  -2  -4  443.13   15.03   0
  -5  -3  -6   19.08    4.48   0
  -5  -1  -2   16.52    6.10   0
  -4  -2  -7   -1.73    4.39   0
  -3  -1  -5  385.74   16.18   0
  -2  -2  -9   45.79    6.74   0
   0   0   4  860.19   37.12   0
  -8  -2  -2  168.31   10.12   0
  -7  -3  -4   50.24    6.06   0
  -7  -1   3  301.03   17.25   0
  -6  -2  -5    1.06    3.34   0
  -5  -3  -7  111.04    8.03   0
  -3  -3  -9   34.33    5.14   0
   0   0   3    0.23    6.22   0
  -9  -3  -2   22.78    4.69   0
  -7  -3  -5  226.98   11.27   0
  -7  -1   1  819.90   25.29   0
  -7  -1   2  106.09   10.47   0
  -5  -1  -3  898.52   23.66   0
  -4  -2  -8  269.33   11.62   0
  -3  -1  -6    4.50    4.70   0
  -2  -2 -10  284.41   12.84   0
  -1  -1  -8  454.21   17.41   0
   0   0   2 8969.39  159.47   0
   2   0  -4  519.39   41.44   0
  -9  -3  -3  137.89    8.98   0
  -8  -2  -3    5.81    3.37   0
  -7  -3  -6    3.04    3.24   0
  -7  -1   0  103.28   10.66   0
  -6  -2  -6  354.54   13.27   0
  -5  -3  -8   12.23    4.12   0
  -5  -1  -4   16.43    7.10   0
  -3  -3 -10   19.53    4.40   0
 -10  -2   0   31.23    5.16   0
  -9  -3  -4    4.95    4.30   0
  -8  -2  -4  586.64   16.33   0
  -7  -3  -7   97.22    7.86   0
  -7  -1  -1 1192.67   27.44   0
  -6  -2  -7   30.30    4.79   0
  -5  -3  -9   50.59    5.95   0
  -4  -2  -9   28.19    4.62   0
  -3  -1  -7   93.97    8.17   0
  -1  -1  -9  326.51   14.33   0
 -10  -2  -1   17.95    4.27   0
  -9  -3  -5   63.33    7.13   0
  -8  -2  -5   41.58    5.30   0
  -7  -1  -2  333.26   14.75   0
  -5  -1  -5  461.05   15.83   0
 -10  -2  -2  336.36   13.06   0
  -8  -2  -6  565.18   17.13   0
  -6  -2  -8  113.40    7.67   0
  -4  -2 -10  212.80   10.31   0
  -3  -1  -8   80.86    7.35   0
 -11  -3  -3   62.76    6.52   0
 -10  -2  -3   53.66    5.73   0
  -9  -3  -6   -1.30    2.97   0
  -9  -1   3  438.26   18.61   0
  -7  -1  -3 1485.99   27.42   0
  -6  -2  -9   -0.03    3.80   0
  -5  -1  -6  212.58   10.85   0
   2   0  -5   -0.28    6.81   0
   2   0   2  118.64   12.89   0
 -12  -2   0  472.18   15.32   0
 -10  -2  -4  658.51   17.37   0
  -9  -1   0  318.56   14.21   0
  -9  -1   1  581.72   18.59   0
  -9  -1   2    9.96    4.82   0
  -8  -2  -7    3.18    3.03   0
  -7  -1  -4   15.55    4.75   0
  -5  -1  -7  192.58   10.01   0
  -3  -1  -9  954.61   22.11   0
   0   0  -2 7937.47  144.34   0
 -12  -2  -1   65.65    6.18   0
 -10  -2  -5   34.61    5.21   0
  -9  -1  -1  210.01   10.78   0
  -8  -2  -8  343.88   13.89   0
  -7  -1  -5  140.38    8.57   0
  -6  -2 -10  212.31   10.44   0
   0   0  -3    0.47    7.18   0
 -12  -2  -3   42.31    6.27   0
 -12  -2  -2  583.02   16.60   0
 -10  -2  -6  462.69   14.33   0
  -9  -1  -2  116.60    8.16   0
  -7  -1  -6  185.47   10.01   0
  -5  -1  -8   42.26    5.45   0
   2   0  -6 1387.76   45.57   0
   2   0   1    0.41    3.67   0
 -12  -2  -4  437.51   14.94   0
 -10  -2  -7    1.89    4.43   0
  -9  -1  -3   72.22    6.61   0
  -8  -2  -9    9.54    3.75   0
  -6  -2 -11    3.89    3.44   0
  -5  -1  -9  497.92   15.61   0
   0   0  -4  973.92   35.64   0
   4   0   0  959.94   32.68   0
  -9  -1  -4  141.31    8.32   0
  -8  -2 -10  191.27    9.67   0
  -7  -1  -7  359.68   12.43   0
  -2   0  -6 1213.35   24.18   0
  -2   0  -5    0.67    5.39   0
  -1  -1 -10  171.35    8.10   0
  -1  -1  -9  381.06   11.92   0
  -1  -1  -3 3714.61   52.21   0
   0   0 -13    0.27    2.63   0
   1  -1 -14   -0.44    2.04   0
   2   0 -16  554.56   14.45   0
   3  -1 -17  241.17    9.87   0
   5  -1 -19  272.52   10.61   0
  -2   0  -9    0.83    3.72   0
  -2   0  -8  705.00   16.15   0
  -2   0  -7   -0.40    3.11   0
  -2   0  -4  328.82   13.84   0
  -1  -1 -11  689.60   14.91   0
   0   0 -14  955.73   17.81   0
   1  -1 -15  258.53    9.07   0
   2   0 -17   -1.73    2.44   0
   3  -1 -18    0.28    2.54   0
   4   0 -19   -1.25    2.01   0
  -2   0 -10  419.51   11.51   0
  -2   0  -3    1.16    3.60   0
  -1  -1 -12   32.15    3.54   0
  -1  -1  -2   73.79    8.29   0
   0   0 -15   -0.02    2.65   0
   1  -1 -16    6.33    2.80   0
  -2   0 -11    0.50    2.35   0
  -1  -1 -13  550.68   12.27   0
   1  -1 -17  190.49    7.75   0
   2   0 -18  214.30    8.50   0
  -3  -1  -8   75.58    5.66   0
  -3  -1  -7   89.29    6.28   0
  -3  -1  -6    4.13    3.66   0
  -2   0 -13   -2.64    2.69   0
  -2   0 -12  216.04    7.98   0
  -1  -1 -14    3.50    2.24   0
   0   0 -16  830.40   15.76   0
  -3  -1 -11  331.52    9.89   0
  -3  -1 -10    0.80    2.04   0
  -3  -1  -9  754.11   14.58   0
  -3  -1  -5  338.62   11.38   0
  -2   0 -14  257.47    9.00   0
  -2   0  -2  206.66   12.94   0
  -1  -1 -15  240.14    8.30   0
   0   0 -17   -0.71    2.08   0
   1  -1 -18    4.52    2.26   0
   2   0   1    0.15    2.44   0
  -4   0  -9    1.26    3.00   0
  -4   0  -8  634.63   13.98   0
  -4   0  -7   -0.07    2.48   0
  -4   0  -6 1447.39   22.34   0
  -3  -1 -12   23.76    3.03   0
  -3  -1  -4    2.68    2.99   0
  -2   0 -15   -0.65    3.11   0
  -1  -1 -16    6.20    2.24   0
  -1  -1  -1 1656.12   43.31   0
   0   0 -18  155.35    7.40   0
  -4   0 -11    1.86    1.92   0
  -4   0 -10  191.42    7.83   0
  -4   0  -5   -0.60    2.88   0
  -3  -1 -13  245.91    8.31   0
  -3  -1  -3  703.25   19.13   0
  -2   0 -16  479.88   12.48   0
  -1  -1 -17  161.98    7.15   0
  -4   0 -13    0.68    2.79   0
  -4   0 -12   57.47    4.41   0
  -4   0  -4  290.60   11.65   0
  -3  -1 -15   91.07    5.89   0
  -3  -1 -14    6.36    2.46   0
  -2   0 -17   -0.98    2.76   0
  -5  -1 -11  351.67   10.67   0
  -5  -1 -10   16.10    3.00   0
  -5  -1  -9  425.80   11.51   0
  -5  -1  -8   38.88    4.13   0
  -5  -1  -7  182.78    8.08   0
  -5  -1  -6  229.45    9.57   0
  -4   0 -14  280.32    9.31   0
  -3  -1 -16   16.40    3.39   0
  -5  -1 -12   37.87    4.12   0
  -5  -1  -5  459.59   13.27   0
  -4   0 -15   -0.23    2.28   0
  -4   0  -3   -0.94    3.46   0
  -3  -1  -2  172.18   10.57   0
  -2   0  -1    0.64    3.91   0
  -6   0 -11   -0.79    1.89   0
  -6   0 -10  150.56    7.08   0
  -6   0  -9   -1.21    2.26   0
  -6   0  -8  459.59   12.19   0
  -6   0  -7   -0.27    2.43   0
  -6   0  -6  993.25   18.23   0
  -5  -1 -14   11.08    2.56   0
  -5  -1 -13  216.78    8.45   0
  -5  -1  -4   14.43    3.62   0
  -4   0 -16  112.98    6.47   0
  -6   0 -13    0.20    2.41   0
  -6   0 -12  129.01    6.67   0
  -6   0  -5   -0.11    2.74   0
  -5  -1 -15   69.61    5.01   0
  -4   0  -2  489.16   17.13   0
  -7  -1 -11  233.99    8.53   0
  -7  -1 -10   27.29    3.43   0
  -7  -1  -9  334.14   10.08   0
  -7  -1  -8    9.11    2.65   0
  -7  -1  -7  307.92    9.84   0
  -6   0 -14  329.82   10.34   0
  -6   0  -4  606.02   15.29   0
  -5  -1  -3  989.04   20.22   0
  -5   1   1 1309.36   46.04   0
  -2   2  -2  848.28   24.70   0
  -1   1  -2   99.65   12.11   0
  -1   3  -2   10.59    4.29   0
   1   3  -3  263.91   12.58   0
   2   4  -1   11.88    4.53   0
   3   1  -4   66.74   11.95   0
   3   3  -4    6.80    4.10   0
   4   0  -2  340.84   45.62   0
   5   3  -5  252.09   12.13   0
   6   2  -6  406.40   16.37   0
   9   3  -6    3.21    4.05   0
   0   2  -3  119.09   10.16   0
   1   1  -3 5290.40   72.53   0
   2   2  -4  668.66   21.15   0
   4   2  -5  403.38   16.68   0
   7   3  -5  210.23   11.29   0
   8   2  -6  315.93   15.50   0
  -4   2   0  485.86   20.14   0
  -1   3  -1  644.61   20.07   0
   1   3  -2   38.18    6.96   0
   2   4   0   84.83    8.45   0
   3   3  -3  375.20   15.58   0
   5   3  -4   35.53    5.81   0
   7   1  -5 1269.15   35.09   0
   9   3  -5  136.75    9.84   0
  10   2  -6  127.52   10.73   0
   2   4   1   -1.33    4.10   0
   6   2  -5   36.47    6.65   0
   7   3  -4   57.51    6.70   0
  -3   1   0  268.83   19.76   0
  -2   2  -1   64.46    8.08   0
  -1   3   0   17.03    5.95   0
   0   2  -2  727.91   21.99   0
   2   2  -3  122.62    9.79   0
   3   3  -2   14.84    5.67   0
   4   2  -4 1487.24   30.34   0
   5   1  -4   44.96   10.68   0
   5   3  -3  393.87   15.00   0
   8   2  -5   67.82    8.57   0
   9   3  -4   60.36    6.65   0
  11   3  -4   34.34    5.99   0
   1   3  -1  471.61   16.39   0
   3   1  -3  296.80   18.75   0
   7   3  -3  231.24   11.67   0
  10   2  -5   23.25    4.96   0
  -4   2   1   10.03    4.79   0
  -1   1  -1 1653.31   43.00   0
  -1   3   1  485.24   17.55   0
   1   1  -2   24.97    8.36   0
   3   3  -1  683.84   19.82   0
   5   3  -2   37.79    5.54   0
   6   2  -4  298.33   13.89   0
   9   3  -3  142.76    9.53   0
  11   3  -3  265.87   12.74   0
  -2   2   0  532.25   19.40   0
   1   3   0   17.85    4.51   0
   4   2  -3   76.55    7.99   0
   7   1  -4  139.78   12.21   0
   7   3  -2    4.73    3.74   0
   8   2  -4  218.32   12.11   0
;
_shelx_hkl_checksum              24546
_shelx_res_file
;
TITL SIR2014 run in space group C 2/c
CELL  1.54186  29.5250   4.9400  25.6630   90.000  117.225   90.000
ZERR     8.00   0.0020   0.0008   0.0011    0.000    0.001    0.000
LATT   7
SYMM  - X,   Y, 1/2 - Z
SFAC  C    H    N    PD
UNIT  152 188 20 4
MERG   2
FMAP   2
PLAN   25
SIZE     0.100   0.100   0.210
acta
BOND   $H
CONF
L.S.  10
dfix 2.52 .01 c8 c15
WGHT    0.075000   16.394699
FVAR       0.22444   0.80622   0.00485
PD1   4    0.250000    0.250000    0.000000    10.50000    0.05759    0.05987 =
         0.05093   -0.00715    0.02726   -0.00351
N1    3    0.263825   -0.038749    0.061690    11.00000    0.06003    0.05258 =
         0.05469   -0.01101    0.02789   -0.00192
N2    3    0.324809    0.230724    0.018548    11.00000    0.05896    0.06970 =
         0.05525   -0.00253    0.03035   -0.00464
C2    1    0.228602   -0.146464    0.075956    11.00000    0.07008    0.05969 =
         0.05350   -0.00795    0.03289   -0.00515
C3    1    0.251300   -0.347433    0.121572    11.00000    0.07870    0.05785 =
         0.05635   -0.00215    0.03323   -0.00224
C4    1    0.301916   -0.357647    0.134719    11.00000    0.07702    0.05901 =
         0.05998   -0.00671    0.03055   -0.00071
C5    1    0.309738   -0.165489    0.096785    11.00000    0.07108    0.05356 =
         0.05290   -0.00726    0.03314    0.00189
C7    1    0.361432    0.065630    0.057555    11.00000    0.05487    0.06790 =
         0.06215   -0.00395    0.02712    0.00465
C8    1    0.408695    0.106831    0.053250    11.00000    0.06037    0.07315 =
         0.06930   -0.00150    0.02769    0.00213
C9    1    0.398474    0.303400    0.011936    11.00000    0.06416    0.07545 =
         0.07566   -0.00791    0.03418   -0.01062
C10   1    0.346434    0.381475   -0.008693    11.00000    0.05381    0.07096 =
         0.06206   -0.00944    0.02941   -0.00886
C11   1    0.177830   -0.073603    0.050875    11.00000    0.06720    0.05836 =
         0.06564   -0.00584    0.03724   -0.00486
AFIX  43
H11   2    0.157714   -0.166048    0.064227    11.00000   -1.20000
AFIX   0
C12   1    0.432418    0.406861   -0.012661    11.00000    0.06345    0.10335 =
         0.09881    0.01291    0.04175   -0.00614
AFIX  23
H12A  2    0.467535    0.372508    0.015531    11.00000   -1.20000
H12B  2    0.428114    0.601410   -0.017533    11.00000   -1.20000
AFIX   0
C13   1    0.422781    0.282853   -0.070856    11.00000    0.10014    0.14592 =
         0.13357    0.00668    0.08402   -0.00311
AFIX 137
H13A  2    0.425925    0.089595   -0.066947    11.00000   -1.50000
H13B  2    0.447251    0.351535   -0.082429    11.00000   -1.50000
H13C  2    0.389064    0.328893   -0.100048    11.00000   -1.50000
AFIX   0
C14   1    0.459382   -0.028142    0.088206    11.00000    0.06645    0.09670 =
         0.12893    0.01843    0.03610    0.00158
AFIX  23
H14A  2    0.476178   -0.051101    0.063673    11.00000   -1.20000
H14B  2    0.454010   -0.206361    0.100263    11.00000   -1.20000
AFIX   0
C15   1    0.494024    0.137543    0.142846    11.00000    0.09599    0.11267 =
         0.16823    0.01692   -0.03414   -0.01466
AFIX 137
H15A  2    0.499414    0.314148    0.131080    11.00000   -1.50000
H15B  2    0.526167    0.047030    0.163563    11.00000   -1.50000
H15C  2    0.478092    0.154769    0.167968    11.00000   -1.50000
AFIX   0
C18   1    0.341501   -0.530632    0.181275    11.00000    0.09786    0.07728 =
         0.08523    0.01500    0.04069    0.01868
AFIX  23
H18A  2    0.367449   -0.575688    0.169462    11.00000   -1.20000
H18B  2    0.325717   -0.698431    0.184129    11.00000   -1.20000
AFIX   0
C19   1    0.366672   -0.400369    0.240708    11.00000    0.12389    0.14582 =
         0.07837   -0.00289    0.00993    0.03583
AFIX 137
H19A  2    0.383046   -0.235807    0.238588    11.00000   -1.50000
H19B  2    0.391587   -0.521749    0.268096    11.00000   -1.50000
H19C  2    0.341472   -0.360287    0.253430    11.00000   -1.50000
AFIX   0
C20   1    0.223460   -0.504951    0.146962    11.00000    0.08468    0.07363 =
         0.06679    0.00742    0.03696   -0.00745
AFIX  23
H20A  2    0.243943   -0.659713    0.167845    11.00000   -1.20000
H20B  2    0.192032   -0.572721    0.115429    11.00000   -1.20000
AFIX   0
C21   1    0.210944   -0.338733    0.188826    11.00000    0.11856    0.08143 =
         0.09645    0.00712    0.06681   -0.00482
AFIX 137
H21A  2    0.241492   -0.256373    0.217995    11.00000   -1.50000
H21B  2    0.196706   -0.454878    0.207549    11.00000   -1.50000
H21C  2    0.186761   -0.200371    0.167272    11.00000   -1.50000
AFIX   0
C6    1    0.354488   -0.117500    0.095098    11.00000    0.07129    0.06462 =
         0.05833   -0.00920    0.03105    0.00252
AFIX  43
H6    2    0.382878   -0.214448    0.121060    10.50000   -1.20000
AFIX   0
part -1
C16   1    0.400900   -0.272458    0.138956    10.50000    0.07775    0.06934 =
         0.07168   -0.00421    0.03541    0.00833
AFIX  43
H16   2    0.406970   -0.447339    0.130258    10.50000   -1.20000
AFIX   0
N3    3    0.431202   -0.165095    0.187060    10.50000    0.07504    0.08597 =
         0.06806    0.00200    0.01943    0.01690
C17   1    0.474433   -0.347048    0.226574    10.50000    0.10010    0.14037 =
         0.09305    0.02015    0.01832    0.03812
AFIX 137
H17A  2    0.468082   -0.528138    0.211315    10.50000   -1.50000
H17B  2    0.476941   -0.346294    0.265213    10.50000   -1.50000
H17C  2    0.505755   -0.282366    0.228310    10.50000   -1.50000
part 0
AFIX   0
HKLF 4
REM  SIR2014 run in space group C 2/c
REM R1 =  0.0632 for    2366 Fo > 4sig(Fo)  and  0.0835 for all    3245 data
REM    221 parameters refined using      1 restraints
END
WGHT      0.0747     16.6641
REM Highest difference peak  0.692,  deepest hole -0.742,  1-sigma level  0.103
Q1    1   0.2638  0.0016  0.0090  11.00000  0.05    0.69
Q2    1   0.2653  0.4968  0.0058  11.00000  0.05    0.66
Q3    1   0.2919  0.3473  0.0009  11.00000  0.05    0.66
Q4    1   0.2922  0.1595  0.0000  11.00000  0.05    0.65
Q5    1   0.2832 -0.1720  0.0179  11.00000  0.05    0.40
Q6    1   0.2877 -0.3375  0.0208  11.00000  0.05    0.35
Q7    1   0.3119  0.5207  0.0126  11.00000  0.05    0.29
Q8    1   0.5472  0.0994  0.1277  11.00000  0.05    0.29
Q9    1   0.4570  0.1445 -0.0770  11.00000  0.05    0.28
Q10   1   0.4646  0.2326 -0.0567  11.00000  0.05    0.28
Q11   1   0.4959  0.1844  0.1164  11.00000  0.05    0.27
Q12   1   0.4006  0.2204  0.0491  11.00000  0.05    0.27
Q13   1   0.5465  0.3872  0.1291  11.00000  0.05    0.27
Q14   1   0.3834  0.4210  0.0134  11.00000  0.05    0.27
Q15   1   0.4795 -0.0364  0.1581  11.00000  0.05    0.26
Q16   1   0.1806 -0.2588  0.0597  11.00000  0.05    0.26
Q17   1   0.4246 -0.6425  0.0994  11.00000  0.05    0.26
Q18   1   0.2350  0.0308  0.0734  11.00000  0.05    0.26
Q19   1   0.4049  0.4062 -0.0072  11.00000  0.05    0.25
Q20   1   0.2510  0.3494  0.0493  11.00000  0.05    0.25
Q21   1   0.4446 -0.3231  0.0692  11.00000  0.05    0.24
Q22   1   0.4424  0.1275  0.1978  11.00000  0.05    0.24
Q23   1   0.4533 -0.0837 -0.0094  11.00000  0.05    0.24
Q24   1   0.3439 -0.7540  0.1630  11.00000  0.05    0.24
Q25   1   0.4202 -0.4669  0.2571  11.00000  0.05    0.24
;
_shelx_res_checksum              58824
_shelxl_version_number           .2013
loop_
_space_group_symop_operation_xyz
'x, y, z'
'-x, y, -z+1/2'
'x+1/2, y+1/2, z'
'-x+1/2, y+1/2, -z+1/2'
'-x, -y, -z'
'x, -y, z-1/2'
'-x+1/2, -y+1/2, -z'
'x+1/2, -y+1/2, z-1/2'
loop_
_atom_site_type_symbol
_atom_site_label
_atom_site_fract_x
_atom_site_fract_y
_atom_site_fract_z
_atom_site_U_iso_or_equiv
_atom_site_adp_type
_atom_site_calc_flag
_atom_site_occupancy
_atom_site_disorder_assembly
_atom_site_disorder_group
Pd Pd1 0.2500 0.2500 0.0000 0.0552(2) Uani d 1 . .
N N1 0.26383(19) -0.0387(11) 0.0617(2) 0.0551(12) Uani d 1 . .
N N2 0.32481(19) 0.2307(12) 0.0185(2) 0.0597(12) Uani d 1 . .
C C2 0.2286(3) -0.1465(15) 0.0760(3) 0.0593(15) Uani d 1 . .
C C3 0.2513(3) -0.3474(15) 0.1216(3) 0.0634(16) Uani d 1 . .
C C4 0.3019(3) -0.3576(16) 0.1347(3) 0.0656(17) Uani d 1 . .
C C5 0.3097(3) -0.1655(13) 0.0968(3) 0.0573(15) Uani d 1 . .
C C7 0.3614(2) 0.0656(15) 0.0576(3) 0.0615(16) Uani d 1 . .
C C8 0.4087(2) 0.1068(17) 0.0532(3) 0.0684(18) Uani d 1 . .
C C9 0.3985(3) 0.3034(16) 0.0119(3) 0.071(2) Uani d 1 . .
C C10 0.3464(2) 0.3815(16) -0.0087(3) 0.0612(16) Uani d 1 . .
C C11 0.1778(2) -0.0736(14) 0.0509(3) 0.0611(15) Uani d 1 . .
H H11 0.1577 -0.1660 0.0642 0.073 Uiso calc 1 . .
C C12 0.4324(3) 0.407(2) -0.0127(4) 0.087(2) Uani d 1 . .
H H12A 0.4675 0.3725 0.0155 0.104 Uiso calc 1 . .
H H12B 0.4281 0.6014 -0.0175 0.104 Uiso calc 1 . .
C C13 0.4228(4) 0.283(2) -0.0709(5) 0.115(4) Uani d 1 . .
H H13A 0.4259 0.0896 -0.0669 0.172 Uiso calc 1 . .
H H13B 0.4473 0.3515 -0.0824 0.172 Uiso calc 1 . .
H H13C 0.3891 0.3289 -0.1000 0.172 Uiso calc 1 . .
C C14 0.4594(3) -0.028(2) 0.0882(5) 0.101(3) Uani d 1 . .
H H14A 0.4762 -0.0511 0.0637 0.121 Uiso calc 1 . .
H H14B 0.4540 -0.2064 0.1003 0.121 Uiso calc 1 . .
C C15 0.4940(4) 0.138(3) 0.1428(6) 0.162(7) Uani d 1 . .
H H15A 0.4994 0.3141 0.1311 0.243 Uiso calc 1 . .
H H15B 0.5262 0.0470 0.1636 0.243 Uiso calc 1 . .
H H15C 0.4781 0.1548 0.1680 0.243 Uiso calc 1 . .
C C18 0.3415(3) -0.5306(19) 0.1813(4) 0.087(2) Uani d 1 . .
H H18A 0.3674 -0.5757 0.1695 0.105 Uiso calc 1 . .
H H18B 0.3257 -0.6984 0.1841 0.105 Uiso calc 1 . .
C C19 0.3667(4) -0.400(3) 0.2407(4) 0.130(4) Uani d 1 . .
H H19A 0.3830 -0.2358 0.2386 0.195 Uiso calc 1 . .
H H19B 0.3916 -0.5217 0.2681 0.195 Uiso calc 1 . .
H H19C 0.3415 -0.3603 0.2534 0.195 Uiso calc 1 . .
C C20 0.2235(3) -0.5050(17) 0.1470(3) 0.0741(19) Uani d 1 . .
H H20A 0.2439 -0.6597 0.1678 0.089 Uiso calc 1 . .
H H20B 0.1920 -0.5727 0.1154 0.089 Uiso calc 1 . .
C C21 0.2109(4) -0.3387(19) 0.1888(4) 0.092(3) Uani d 1 . .
H H21A 0.2415 -0.2564 0.2180 0.138 Uiso calc 1 . .
H H21B 0.1967 -0.4549 0.2075 0.138 Uiso calc 1 . .
H H21C 0.1868 -0.2004 0.1673 0.138 Uiso calc 1 . .
C C6 0.3545(3) -0.1175(15) 0.0951(3) 0.0642(16) Uani d 1 . .
H H6 0.3829 -0.2144 0.1211 0.077 Uiso calc 0.5 A .
C C16 0.4009(6) -0.272(3) 0.1390(6) 0.072(4) Uani d 0.5 A -1
H H16 0.4070 -0.4473 0.1303 0.087 Uiso calc 0.5 A -1
N N3 0.4312(5) -0.165(3) 0.1871(6) 0.081(4) Uani d 0.5 A -1
C C17 0.4744(8) -0.347(5) 0.2266(9) 0.121(8) Uani d 0.5 A -1
H H17A 0.4681 -0.5281 0.2113 0.182 Uiso calc 0.5 A -1
H H17B 0.4769 -0.3463 0.2652 0.182 Uiso calc 0.5 A -1
H H17C 0.5058 -0.2824 0.2283 0.182 Uiso calc 0.5 A -1
loop_
_atom_site_aniso_label
_atom_site_aniso_U_11
_atom_site_aniso_U_22
_atom_site_aniso_U_33
_atom_site_aniso_U_12
_atom_site_aniso_U_13
_atom_site_aniso_U_23
Pd1 0.0576(4) 0.0599(4) 0.0509(3) -0.0035(3) 0.0273(3) -0.0071(3)
N1 0.060(3) 0.053(3) 0.055(3) -0.002(2) 0.028(2) -0.011(2)
N2 0.059(3) 0.070(3) 0.055(3) -0.005(3) 0.030(2) -0.003(3)
C2 0.070(4) 0.060(3) 0.053(3) -0.005(3) 0.033(3) -0.008(3)
C3 0.079(4) 0.058(4) 0.056(4) -0.002(3) 0.033(3) -0.002(3)
C4 0.077(4) 0.059(4) 0.060(4) -0.001(4) 0.031(3) -0.007(3)
C5 0.071(4) 0.054(3) 0.053(3) 0.002(3) 0.033(3) -0.007(3)
C7 0.055(3) 0.068(4) 0.062(4) 0.005(3) 0.027(3) -0.004(3)
C8 0.060(4) 0.073(5) 0.069(4) 0.002(4) 0.028(3) -0.002(4)
C9 0.064(4) 0.075(5) 0.076(4) -0.011(3) 0.034(3) -0.008(4)
C10 0.054(3) 0.071(4) 0.062(4) -0.009(3) 0.029(3) -0.009(3)
C11 0.067(4) 0.058(4) 0.066(4) -0.005(3) 0.037(3) -0.006(3)
C12 0.063(4) 0.103(7) 0.099(6) -0.006(5) 0.042(4) 0.013(5)
C13 0.100(6) 0.146(10) 0.134(9) -0.003(7) 0.084(7) 0.007(7)
C14 0.066(5) 0.097(7) 0.129(8) 0.002(5) 0.036(5) 0.018(6)
C15 0.096(7) 0.113(9) 0.168(12) -0.015(7) -0.034(8) 0.017(9)
C18 0.098(6) 0.077(5) 0.085(5) 0.019(5) 0.041(5) 0.015(4)
C19 0.124(8) 0.146(10) 0.078(6) 0.036(8) 0.010(6) -0.003(7)
C20 0.085(5) 0.074(5) 0.067(4) -0.007(4) 0.037(4) 0.007(4)
C21 0.119(7) 0.081(6) 0.096(6) -0.005(5) 0.067(6) 0.007(5)
C6 0.071(4) 0.065(4) 0.058(4) 0.003(4) 0.031(3) -0.009(3)
C16 0.078(9) 0.069(9) 0.072(8) 0.008(8) 0.035(7) -0.004(8)
N3 0.075(8) 0.086(9) 0.068(7) 0.017(7) 0.019(6) 0.002(7)
C17 0.100(14) 0.140(19) 0.093(13) 0.038(14) 0.018(10) 0.020(13)
loop_
_atom_type_symbol
_atom_type_description
_atom_type_scat_dispersion_real
_atom_type_scat_dispersion_imag
_atom_type_scat_source
C C 0.0181 0.0091 'International Tables Vol C Tables 4.2.6.8 and 6.1.1.4'
H H 0.0000 0.0000 'International Tables Vol C Tables 4.2.6.8 and 6.1.1.4'
N N 0.0311 0.0180 'International Tables Vol C Tables 4.2.6.8 and 6.1.1.4'
Pd Pd 0.1215 3.9337 'International Tables Vol C Tables 4.2.6.8 and 6.1.1.4'
loop_
_geom_angle_atom_site_label_1
_geom_angle_atom_site_label_2
_geom_angle_atom_site_label_3
_geom_angle_site_symmetry_1
_geom_angle_site_symmetry_3
_geom_angle
_geom_angle_publ_flag
N1 Pd1 N1 . 7 180.0 ?
N1 Pd1 N2 . 7 91.4(2) ?
N1 Pd1 N2 7 7 88.6(2) ?
N1 Pd1 N2 . . 88.6(2) y
N1 Pd1 N2 7 . 91.4(2) ?
N2 Pd1 N2 7 . 180.00(7) ?
C2 N1 C5 . . 106.8(6) y
C2 N1 Pd1 . . 125.4(4) ?
C5 N1 Pd1 . . 127.7(4) ?
C7 N2 C10 . . 107.7(5) ?
C7 N2 Pd1 . . 127.8(4) ?
C10 N2 Pd1 . . 124.5(5) ?
N1 C2 C11 . . 125.0(6) y
N1 C2 C3 . . 111.0(6) y
C11 C2 C3 . . 124.0(6) y
C4 C3 C2 . . 105.9(6) y
C4 C3 C20 . . 129.2(7) ?
C2 C3 C20 . . 124.9(7) ?
C3 C4 C5 . . 107.5(6) y
C3 C4 C18 . . 125.5(7) ?
C5 C4 C18 . . 127.0(7) ?
C6 C5 N1 . . 125.1(6) y
C6 C5 C4 . . 126.1(7) y
N1 C5 C4 . . 108.8(6) y
N2 C7 C6 . . 125.2(6) y
N2 C7 C8 . . 109.0(6) y
C6 C7 C8 . . 125.8(6) y
C9 C8 C7 . . 106.1(6) y
C9 C8 C14 . . 125.8(7) ?
C7 C8 C14 . . 128.1(7) ?
C8 C9 C10 . . 107.3(6) y
C8 C9 C12 . . 128.1(7) ?
C10 C9 C12 . . 124.4(7) ?
N2 C10 C11 . 7 125.8(6) ?
N2 C10 C9 . . 109.8(6) y
C11 C10 C9 7 . 124.4(6) ?
C10 C11 C2 7 . 127.8(6) ?
C10 C11 H11 7 . 116.1 ?
C2 C11 H11 . . 116.1 ?
C9 C12 C13 . . 114.7(7) ?
C9 C12 H12A . . 108.6 ?
C13 C12 H12A . . 108.6 ?
C9 C12 H12B . . 108.6 ?
C13 C12 H12B . . 108.6 ?
H12A C12 H12B . . 107.6 ?
C12 C13 H13A . . 109.5 ?
C12 C13 H13B . . 109.5 ?
H13A C13 H13B . . 109.5 ?
C12 C13 H13C . . 109.5 ?
H13A C13 H13C . . 109.5 ?
H13B C13 H13C . . 109.5 ?
C8 C14 C15 . . 111.9(9) ?
C8 C14 H14A . . 109.2 ?
C15 C14 H14A . . 109.2 ?
C8 C14 H14B . . 109.2 ?
C15 C14 H14B . . 109.2 ?
H14A C14 H14B . . 107.9 ?
C14 C15 H15A . . 109.5 ?
C14 C15 H15B . . 109.5 ?
H15A C15 H15B . . 109.5 ?
C14 C15 H15C . . 109.5 ?
H15A C15 H15C . . 109.5 ?
H15B C15 H15C . . 109.5 ?
C4 C18 C19 . . 114.1(8) ?
C4 C18 H18A . . 108.7 ?
C19 C18 H18A . . 108.7 ?
C4 C18 H18B . . 108.7 ?
C19 C18 H18B . . 108.7 ?
H18A C18 H18B . . 107.6 ?
C18 C19 H19A . . 109.5 ?
C18 C19 H19B . . 109.5 ?
H19A C19 H19B . . 109.5 ?
C18 C19 H19C . . 109.5 ?
H19A C19 H19C . . 109.5 ?
H19B C19 H19C . . 109.5 ?
C3 C20 C21 . . 112.9(7) ?
C3 C20 H20A . . 109.0 ?
C21 C20 H20A . . 109.0 ?
C3 C20 H20B . . 109.0 ?
C21 C20 H20B . . 109.0 ?
H20A C20 H20B . . 107.8 ?
C20 C21 H21A . . 109.5 ?
C20 C21 H21B . . 109.5 ?
H21A C21 H21B . . 109.5 ?
C20 C21 H21C . . 109.5 ?
H21A C21 H21C . . 109.5 ?
H21B C21 H21C . . 109.5 ?
C5 C6 C7 . . 125.6(7) ?
C5 C6 C16 . . 116.5(8) ?
C7 C6 C16 . . 117.8(8) ?
C5 C6 H6 . . 117.2 ?
C7 C6 H6 . . 117.2 ?
C16 C6 H6 . . 1.5 ?
N3 C16 C6 . . 120.5(13) ?
N3 C16 H16 . . 119.8 ?
C6 C16 H16 . . 119.8 ?
C16 N3 C17 . . 114.2(16) ?
N3 C17 H17A . . 109.5 ?
N3 C17 H17B . . 109.5 ?
H17A C17 H17B . . 109.5 ?
N3 C17 H17C . . 109.5 ?
H17A C17 H17C . . 109.5 ?
H17B C17 H17C . . 109.5 ?
loop_
_geom_bond_atom_site_label_1
_geom_bond_atom_site_label_2
_geom_bond_site_symmetry_2
_geom_bond_distance
_geom_bond_publ_flag
Pd1 N1 . 2.029(5) y
Pd1 N1 7 2.029(5) ?
Pd1 N2 7 2.038(5) ?
Pd1 N2 . 2.038(5) y
N1 C2 . 1.359(8) y
N1 C5 . 1.387(8) y
N2 C7 . 1.359(8) y
N2 C10 . 1.364(8) y
C2 C11 . 1.381(9) y
C2 C3 . 1.445(10) y
C3 C4 . 1.374(10) y
C3 C20 . 1.482(10) y
C4 C5 . 1.452(10) y
C4 C18 . 1.499(11) ?
C5 C6 . 1.362(10) y
C7 C6 . 1.403(10) y
C7 C8 . 1.464(9) y
C8 C9 . 1.366(11) y
C8 C14 . 1.504(10) ?
C9 C10 . 1.430(10) y
C9 C12 . 1.498(10) ?
C10 C11 7 1.370(10) ?
C11 C10 7 1.370(10) ?
C11 H11 . 0.9300 ?
C12 C13 . 1.516(13) ?
C12 H12A . 0.9700 ?
C12 H12B . 0.9700 ?
C13 H13A . 0.9600 ?
C13 H13B . 0.9600 ?
C13 H13C . 0.9600 ?
C14 C15 . 1.539(15) ?
C14 H14A . 0.9700 ?
C14 H14B . 0.9700 ?
C15 H15A . 0.9600 ?
C15 H15B . 0.9600 ?
C15 H15C . 0.9600 ?
C18 C19 . 1.502(13) ?
C18 H18A . 0.9700 ?
C18 H18B . 0.9700 ?
C19 H19A . 0.9600 ?
C19 H19B . 0.9600 ?
C19 H19C . 0.9600 ?
C20 C21 . 1.526(12) ?
C20 H20A . 0.9700 ?
C20 H20B . 0.9700 ?
C21 H21A . 0.9600 ?
C21 H21B . 0.9600 ?
C21 H21C . 0.9600 ?
C6 C16 . 1.523(17) y
C6 H6 . 0.9300 ?
C16 N3 . 1.26(2) y
C16 H16 . 0.9300 ?
N3 C17 . 1.51(2) y
C17 H17A . 0.9600 ?
C17 H17B . 0.9600 ?
C17 H17C . 0.9600 ?
loop_
_geom_torsion_atom_site_label_1
_geom_torsion_atom_site_label_2
_geom_torsion_atom_site_label_3
_geom_torsion_atom_site_label_4
_geom_torsion_site_symmetry_4
_geom_torsion
C5 N1 C2 C11 . 179.8(6)
Pd1 N1 C2 C11 . -0.6(9)
C5 N1 C2 C3 . 0.3(7)
Pd1 N1 C2 C3 . 179.9(4)
N1 C2 C3 C4 . 0.2(8)
C11 C2 C3 C4 . -179.3(6)
N1 C2 C3 C20 . -179.5(6)
C11 C2 C3 C20 . 1.0(11)
C2 C3 C4 C5 . -0.6(7)
C20 C3 C4 C5 . 179.1(7)
C2 C3 C4 C18 . 177.6(7)
C20 C3 C4 C18 . -2.7(13)
C2 N1 C5 C6 . 178.7(6)
Pd1 N1 C5 C6 . -0.8(9)
C2 N1 C5 C4 . -0.7(7)
Pd1 N1 C5 C4 . 179.8(4)
C3 C4 C5 C6 . -178.6(6)
C18 C4 C5 C6 . 3.2(12)
C3 C4 C5 N1 . 0.8(7)
C18 C4 C5 N1 . -177.4(7)
C10 N2 C7 C6 . 178.7(6)
Pd1 N2 C7 C6 . -3.3(10)
C10 N2 C7 C8 . -2.2(8)
Pd1 N2 C7 C8 . 175.8(4)
N2 C7 C8 C9 . 1.4(8)
C6 C7 C8 C9 . -179.6(7)
N2 C7 C8 C14 . 179.1(8)
C6 C7 C8 C14 . -1.8(13)
C7 C8 C9 C10 . 0.0(8)
C14 C8 C9 C10 . -177.8(8)
C7 C8 C9 C12 . -174.8(8)
C14 C8 C9 C12 . 7.3(14)
C7 N2 C10 C11 7 -179.6(7)
Pd1 N2 C10 C11 7 2.3(10)
C7 N2 C10 C9 . 2.3(8)
Pd1 N2 C10 C9 . -175.8(5)
C8 C9 C10 N2 . -1.4(8)
C12 C9 C10 N2 . 173.7(7)
C8 C9 C10 C11 7 -179.5(7)
C12 C9 C10 C11 7 -4.5(12)
N1 C2 C11 C10 7 -1.2(11)
C3 C2 C11 C10 7 178.2(7)
C8 C9 C12 C13 . 97.7(11)
C10 C9 C12 C13 . -76.4(11)
C9 C8 C14 C15 . 84.7(12)
C7 C8 C14 C15 . -92.7(12)
C3 C4 C18 C19 . -88.0(11)
C5 C4 C18 C19 . 89.9(11)
C4 C3 C20 C21 . 105.2(9)
C2 C3 C20 C21 . -75.1(9)
N1 C5 C6 C7 . -0.4(11)
C4 C5 C6 C7 . 178.9(7)
N1 C5 C6 C16 . 178.0(8)
C4 C5 C6 C16 . -2.6(12)
N2 C7 C6 C5 . 2.6(11)
C8 C7 C6 C5 . -176.3(7)
N2 C7 C6 C16 . -175.9(9)
C8 C7 C6 C16 . 5.2(12)
C5 C6 C16 N3 . -95.9(16)
C7 C6 C16 N3 . 82.7(16)
C6 C16 N3 C17 . 178.2(15)
