#------------------------------------------------------------------------------
#$Date: 2019-02-14 05:35:50 +0200 (Thu, 14 Feb 2019) $
#$Revision: 213637 $
#$URL: file:///home/coder/svn-repositories/cod/cif/2/02/14/2021485.cif $
#------------------------------------------------------------------------------
#
# This file is available in the Crystallography Open Database (COD),
# http://www.crystallography.net/. The original data for this entry
# were provided by IUCr Journals, http://journals.iucr.org/.
#
# The file may be used within the scientific community so long as
# proper attribution is given to the journal article from which the
# data were obtained.
#
data_2021485
loop_
_publ_author_name
'Lahanas, Nicole'
'Kucheryavy, Pavel'
'Lalancette, Roger A.'
'Lockard, Jenny V.'
_publ_section_title
;
 Crystallographic identification of a series of manganese porphyrin
 complexes with nitrogenous bases
;
_journal_coeditor_code           JX3027
_journal_issue                   3
_journal_name_full               'Acta Crystallographica Section C'
_journal_page_first
;
;
_journal_paper_doi               10.1107/S2053229619001232
_journal_volume                  75
_journal_year                    2019
_chemical_formula_iupac          '[Mn (C44 H28 N4) (C3 H4 N2)2] Cl, 2C H Cl3'
_chemical_formula_moiety         'C50 H36 Mn N8 +, Cl -, 2(C H Cl3)'
_chemical_formula_sum            'C52 H38 Cl7 Mn N8'
_chemical_formula_weight         1077.99
_chemical_name_systematic
;
Bis(imidazole)(5,10,15,20-tetraphenylporphyrinato)manganese(III) chloride
chloroform disolvate
;
_space_group_crystal_system      triclinic
_space_group_IT_number           2
_space_group_name_Hall           '-P 1'
_space_group_name_H-M_alt        'P -1'
_symmetry_space_group_name_Hall  '-P 1'
_symmetry_space_group_name_H-M   'P -1'
_atom_sites_solution_hydrogens   geom
_atom_sites_solution_primary     direct
_atom_sites_solution_secondary   difmap
_audit_creation_method           SHELXL-2014/7
_cell_angle_alpha                92.5100(10)
_cell_angle_beta                 99.5290(10)
_cell_angle_gamma                108.6990(10)
_cell_formula_units_Z            2
_cell_length_a                   11.3475(2)
_cell_length_b                   14.2479(3)
_cell_length_c                   16.4138(4)
_cell_measurement_reflns_used    9842
_cell_measurement_temperature    100(2)
_cell_measurement_theta_max      68.89
_cell_measurement_theta_min      2.74
_cell_volume                     2465.63(9)
_computing_cell_refinement
;
APEX2 (Bruker, 2006)
;
_computing_data_collection
;
APEX2 (Bruker, 2006)
;
_computing_data_reduction
;
SAINT (Bruker, 2005)
;
_computing_molecular_graphics
;
SHELXTL (Sheldrick, 2008)
;
_computing_publication_material
;
SHELXTL (Sheldrick, 2008)
;
_computing_structure_refinement
;
SHELXL2014 (Sheldrick, 2015b)
;
_computing_structure_solution
;
SHELXT2014 (Sheldrick, 2015a)
;
_diffrn_ambient_temperature      100(2)
_diffrn_measured_fraction_theta_full 0.935
_diffrn_measured_fraction_theta_max 0.935
_diffrn_measurement_device_type  'Bruker SMART CCD APEXII area-detector'
_diffrn_measurement_method       '\f and \w'
_diffrn_radiation_monochromator  graphite
_diffrn_radiation_source         'fine-focus sealed tube'
_diffrn_radiation_type           CuK\a
_diffrn_radiation_wavelength     1.54178
_diffrn_reflns_av_R_equivalents  0.0272
_diffrn_reflns_av_unetI/netI     0.0221
_diffrn_reflns_limit_h_max       13
_diffrn_reflns_limit_h_min       -13
_diffrn_reflns_limit_k_max       17
_diffrn_reflns_limit_k_min       -16
_diffrn_reflns_limit_l_max       19
_diffrn_reflns_limit_l_min       -19
_diffrn_reflns_number            23350
_diffrn_reflns_theta_full        66.609
_diffrn_reflns_theta_max         66.609
_diffrn_reflns_theta_min         2.744
_exptl_absorpt_coefficient_mu    6.032
_exptl_absorpt_correction_T_max  0.447
_exptl_absorpt_correction_T_min  0.168
_exptl_absorpt_correction_type   numerical
_exptl_absorpt_process_details
;
(SADABS; Krause <i>et al.</i>,  2015)
;
_exptl_crystal_colour            black
_exptl_crystal_density_diffrn    1.452
_exptl_crystal_description       block
_exptl_crystal_F_000             1100
_exptl_crystal_size_max          0.429
_exptl_crystal_size_mid          0.309
_exptl_crystal_size_min          0.216
_refine_diff_density_max         1.236
_refine_diff_density_min         -1.025
_refine_ls_extinction_coef       0.00056(9)
_refine_ls_extinction_expression Fc^*^=kFc[1+0.001xFc^2^\l^3^/sin(2\q)]^-1/4^
_refine_ls_extinction_method
;
SHELXL2014 (Sheldrick, 2015b)
;
_refine_ls_goodness_of_fit_ref   1.030
_refine_ls_hydrogen_treatment    constr
_refine_ls_matrix_type           full
_refine_ls_number_parameters     614
_refine_ls_number_reflns         8162
_refine_ls_number_restraints     0
_refine_ls_restrained_S_all      1.030
_refine_ls_R_factor_all          0.0448
_refine_ls_R_factor_gt           0.0432
_refine_ls_shift/su_max          0.001
_refine_ls_shift/su_mean         0.000
_refine_ls_structure_factor_coef Fsqd
_refine_ls_weighting_details
'w=1/[\s^2^(Fo^2^)+(0.0545P)^2^+3.7406P] where P=(Fo^2^+2Fc^2^)/3'
_refine_ls_weighting_scheme      calc
_refine_ls_wR_factor_gt          0.1095
_refine_ls_wR_factor_ref         0.1108
_reflns_number_gt                7785
_reflns_number_total             8162
_reflns_threshold_expression     'I > 2\s(I)'
_cod_data_source_file            jx3027sup1.cif
_cod_data_source_block           I_Imidazole
_cod_database_code               2021485
_shelx_space_group_comment
;
The symmetry employed for this shelxl refinement is uniquely defined
by the following loop, which should always be used as a source of
symmetry information in preference to the above space-group names.
They are only intended as comments.
;
_shelx_estimated_absorpt_t_min   0.182
_shelx_estimated_absorpt_t_max   0.356
_shelx_hkl_file
;
  -1   0   0  111.39    2.90
  -1   0   0  114.19    3.10
  -1   0   0  119.79    2.80
  -1   0   0  109.29    2.90
  -1   0   0  110.39    3.00
   1   0   0  105.69    2.80
   1   0   0  119.79    2.80
   1   0   0  112.89    2.90
   1   0   0  120.39    2.90
   1   0   0  116.39    3.00
  -2   0   0   69.69    2.00
  -2   0   0   70.99    2.20
  -2   0   0   68.99    2.30
  -2   0   0   72.39    2.10
   2   0   0   69.99    2.10
   2   0   0   69.99    1.90
   2   0   0   72.79    2.30
  -3   0   0 1523.15   36.10
  -3   0   0 1538.45   36.60
  -3   0   0 1540.95   36.60
  -3   0   0 1481.75   36.20
   3   0   0 1572.44   36.40
   3   0   0 1502.95   36.00
   3   0   0 1529.15   36.70
  -4   0   0  333.27    8.80
  -4   0   0  315.47    8.00
  -4   0   0  317.37    8.70
   4   0   0  304.37    7.90
   4   0   0  325.37    8.50
  -5   0   0  372.86   10.40
  -5   0   0  391.46   10.70
  -5   0   0  366.26    9.60
   5   0   0  391.36   10.30
  -6   0   0  709.33   18.90
  -6   0   0  682.03   17.40
  -6   0   0  728.23   18.40
   6   0   0  725.03   18.30
  -7   0   0   71.79    3.40
  -7   0   0   68.29    2.60
   7   0   0   73.69    3.50
  -8   0   0   49.60    1.90
  -8   0   0   54.29    2.50
  -8   0   0   53.69    3.10
   8   0   0   56.09    3.20
  -9   0   0  100.49    3.80
 -10   0   0   11.20    1.40
 -11   0   0    0.90    0.80
 -12   0   0    3.20    0.80
 -12   1   0   50.49    2.20
 -11   1   0   11.80    1.30
 -10   1   0    2.70    1.30
 -10   1   0    2.40    1.00
  -9   1   0    2.90    1.00
  -9   1   0    1.60    0.90
   8  -1   0   41.10    2.70
  -8   1   0   43.50    2.30
  -8   1   0   43.40    2.80
  -8   1   0   42.80    2.10
   7  -1   0 1237.88   30.90
  -7   1   0 1239.08   32.10
  -7   1   0 1222.08   29.90
  -7   1   0 1261.07   31.00
   6  -1   0   30.90    1.90
  -6   1   0   26.00    1.40
  -6   1   0   26.30    2.00
  -6   1   0   29.10    2.00
   5  -1   0  482.35   12.60
  -5   1   0  479.35   12.00
  -5   1   0  488.75   12.90
  -5   1   0  491.45   12.80
   4  -1   0  621.84   15.10
  -4   1   0  613.44   15.30
  -4   1   0  580.54   14.60
  -4   1   0  599.74   15.30
   3  -1   0 3549.74   84.39
   3  -1   0 3540.05   83.99
  -3   1   0 3686.93   86.39
  -3   1   0 3571.04   83.29
  -3   1   0 3246.28   83.09
  -3   1   0 3636.84   83.79
   2  -1   0 1642.74   38.40
   2  -1   0 1650.13   38.10
   2  -1   0 1577.54   38.10
  -2   1   0 1634.04   38.20
  -2   1   0 1571.74   38.10
  -2   1   0 1617.74   39.00
  -2   1   0 1606.14   38.10
   1  -1   0  111.79    2.70
   1  -1   0  112.59    2.80
   1  -1   0  111.19    2.70
   1  -1   0  104.89    2.70
   1  -1   0  108.39    2.70
  -1   1   0  111.79    2.70
  -1   1   0  105.39    2.80
  -1   1   0  107.59    2.80
  -1   1   0  107.79    2.80
  -1   1   0  112.29    2.70
   0  -1   0   53.49    1.50
   0  -1   0   57.19    1.40
   0  -1   0   53.19    1.50
   0  -1   0   55.29    1.60
   0   1   0   52.39    1.50
   0   1   0   54.19    1.40
   0   1   0   56.19    1.50
   0   1   0   53.99    1.50
  -1  -1   0   81.79    2.30
  -1  -1   0   80.89    2.40
  -1  -1   0   83.59    2.30
   1   1   0   87.09    2.40
   1   1   0   80.79    2.20
   1   1   0   84.29    2.40
   1   1   0   82.09    2.20
  -2  -1   0  139.39    3.70
  -2  -1   0  129.79    3.50
  -2  -1   0  133.39    3.90
   2   1   0  140.29    3.70
   2   1   0  131.39    3.70
   2   1   0  130.79    4.00
  -3  -1   0 1050.79   26.50
  -3  -1   0 1118.09   26.90
  -3  -1   0 1128.99   26.90
  -3  -1   0 1089.19   26.30
   3   1   0 1111.99   27.00
   3   1   0 1111.39   26.40
   3   1   0 1108.09   26.60
  -4  -1   0  200.78    6.10
  -4  -1   0  189.88    5.20
  -4  -1   0  200.08    5.90
   4   1   0  198.48    5.70
   4   1   0  188.98    5.40
  -5  -1   0  138.69    4.00
  -5  -1   0  140.39    5.00
  -5  -1   0  143.49    4.80
   5   1   0  141.99    4.70
  -6  -1   0  211.68    6.00
  -6  -1   0  222.18    6.80
   6   1   0  210.18    6.70
  -7  -1   0   74.09    3.50
   7   1   0   73.69    3.50
  -8  -1   0    5.30    0.70
  -8  -1   0    2.20    0.90
  -8  -1   0    1.90    1.00
  -9  -1   0    9.30    1.30
 -10  -1   0    3.20    1.00
 -11  -1   0  138.19    4.40
 -12  -1   0    6.60    0.80
 -13   2   0   28.60    1.40
 -12   2   0   39.60    2.00
 -11   2   0    0.60    0.90
 -11   2   0    0.80    0.90
 -10   2   0   43.60    2.50
 -10   2   0   48.20    2.60
  -9   2   0  689.23   16.90
  -9   2   0  681.43   17.50
  -9   2   0  703.33   17.50
  -9   2   0  694.13   17.60
   8  -2   0  502.25   14.10
  -8   2   0  498.15   14.20
  -8   2   0  519.65   13.10
   7  -2   0  216.98    6.80
  -7   2   0  210.48    5.90
  -7   2   0  201.88    7.10
  -7   2   0  212.98    6.90
   6  -2   0   31.70    1.90
  -6   2   0   29.40    2.00
  -6   2   0   29.70    1.40
  -6   2   0   30.80    2.00
   5  -2   0  119.69    3.90
  -5   2   0  113.29    3.30
  -5   2   0  119.19    4.00
  -5   2   0  116.49    4.00
  -5   2   0  107.59    3.40
   4  -2   0   31.10    1.50
  -4   2   0   28.20    1.50
  -4   2   0   29.00    1.50
  -4   2   0   26.30    1.20
   3  -2   0   11.50    0.70
   3  -2   0   15.90    0.90
  -3   2   0   14.30    0.80
  -3   2   0   12.20    0.80
  -3   2   0   10.80    0.80
  -3   2   0   13.30    0.90
   2  -2   0  259.67    6.30
   2  -2   0  241.18    6.20
   2  -2   0  262.37    6.30
   2  -2   0  256.87    6.40
  -2   2   0  250.57    6.50
  -2   2   0  268.97    6.40
  -2   2   0  254.97    6.40
  -2   2   0  258.07    6.50
  -2   2   0  257.47    6.20
   1  -2   0 2122.79   49.00
   1  -2   0 2265.77   48.90
  -1   2   0 1882.81   49.10
  -1   2   0 1762.12   48.30
  -1   2   0 2295.47   49.50
  -1   2   0 2041.90   49.40
   0  -2   0 1851.01   43.00
   0  -2   0 1986.60   43.00
   0   2   0 1669.83   42.20
   0   2   0 1850.51   42.30
   0   2   0 1542.15   42.00
  -1  -2   0  457.15   11.90
  -1  -2   0  473.65   12.00
  -1  -2   0  497.35   12.20
   1   2   0  486.85   11.80
   1   2   0  499.15   12.10
   1   2   0  499.75   11.90
   1   2   0  518.15   12.20
  -2  -2   0  126.69    3.70
  -2  -2   0  127.79    3.80
  -2  -2   0  121.99    3.90
   2   2   0  132.49    4.00
   2   2   0  136.59    3.90
   2   2   0  129.39    3.70
  -3  -2   0 1963.60   47.00
  -3  -2   0 2047.40   46.90
  -3  -2   0 1802.22   46.20
  -3  -2   0 1924.31   46.50
   3   2   0 1908.81   46.90
   3   2   0 1995.80   46.60
   3   2   0 2039.40   46.50
  -4  -2   0  300.97    8.50
  -4  -2   0  287.67    8.60
   4   2   0  294.97    8.10
   4   2   0  304.57    8.20
  -5  -2   0  266.67    7.90
   5   2   0  267.67    7.80
  -6  -2   0  220.88    7.10
   6   2   0  228.58    7.10
  -7  -2   0   24.50    2.60
  -7  -2   0   27.10    2.20
   7   2   0   28.10    2.20
  -8  -2   0    4.00    1.00
  -9  -2   0  170.28    5.40
 -10  -2   0    2.80    1.00
 -11  -2   0    0.40    0.70
 -13   3   0   29.80    1.50
 -12   3   0   60.59    2.60
 -11   3   0    4.10    1.10
 -11   3   0    4.10    1.10
 -10   3   0   12.30    1.50
 -10   3   0   14.00    1.60
  -9   3   0   86.19    3.50
  -9   3   0   84.19    3.40
  -9   3   0   88.89    3.30
  -9   3   0   80.59    2.80
   8  -3   0    8.90    1.50
  -8   3   0   11.30    1.20
  -8   3   0    8.10    1.50
  -8   3   0   11.40    1.70
   7  -3   0  309.67    9.10
  -7   3   0  331.27    9.50
  -7   3   0  303.27    9.50
  -7   3   0  323.07    8.40
   6  -3   0   21.20    1.60
  -6   3   0   23.60    1.70
  -6   3   0   20.60    1.70
  -6   3   0   20.70    1.20
   5  -3   0    2.70    0.60
  -5   3   0    2.40    0.60
  -5   3   0    2.50    0.70
  -5   3   0    1.20    0.40
  -5   3   0    2.80    0.50
   4  -3   0  305.37    8.00
  -4   3   0  306.47    8.10
  -4   3   0  301.57    8.00
  -4   3   0  306.07    7.90
   3  -3   0  168.88    4.50
   3  -3   0  174.58    4.50
   3  -3   0  175.38    4.50
  -3   3   0  167.98    4.70
  -3   3   0  164.28    4.70
  -3   3   0  170.88    4.60
  -3   3   0  164.78    4.20
  -3   3   0  174.48    4.70
   2  -3   0 1164.78   26.60
   2  -3   0 1125.99   26.50
   2  -3   0 1135.99   26.50
  -2   3   0 1132.29   26.70
  -2   3   0 1152.48   26.60
  -2   3   0 1120.39   26.70
  -2   3   0 1085.49   26.70
  -2   3   0 1076.39   26.80
   1  -3   0 3159.28   69.59
  -1   3   0 3161.08   69.99
  -1   3   0 2899.71   69.39
  -1   3   0 2458.45   68.69
   0  -3   0   21.50    1.00
   0   3   0   21.10    1.00
   0   3   0   18.90    1.10
   0   3   0   21.20    1.00
   0   3   0   20.90    0.90
   0   3   0   22.90    1.20
   0   3   0   22.30    0.70
  -1  -3   0 1314.27   31.40
  -1  -3   0 1307.97   31.10
  -1  -3   0 1340.57   31.20
   1   3   0 1378.46   31.30
   1   3   0 1102.19   30.80
   1   3   0 1351.86   31.50
   1   3   0 1350.86   31.10
  -2  -3   0   20.70    1.20
  -2  -3   0   22.80    1.20
  -2  -3   0   22.10    1.40
  -2  -3   0   21.40    1.10
   2   3   0   22.10    1.40
   2   3   0   20.30    1.10
   2   3   0   21.60    1.30
   2   3   0   21.80    1.20
  -3  -3   0    5.10    0.80
  -3  -3   0    3.30    0.70
  -3  -3   0    4.50    0.80
  -3  -3   0    5.10    0.70
   3   3   0    5.80    0.80
   3   3   0    4.10    0.90
   3   3   0    4.60    0.80
  -4  -3   0  373.46   10.40
   4   3   0  385.16   10.10
   4   3   0  357.46   10.10
  -5  -3   0  360.16   10.30
   5   3   0  365.86   10.20
  -6  -3   0  433.96   12.20
   6   3   0  436.06   12.10
  -7  -3   0   75.49    3.10
  -7  -3   0   72.59    3.60
   7   3   0   74.19    3.70
  -8  -3   0    7.20    1.20
  -9  -3   0   13.00    1.50
 -10  -3   0  163.58    5.00
 -11  -3   0   12.30    1.20
  13  -4   0    4.20    0.60
 -13   4   0    3.20    0.70
 -12   4   0    5.50    1.00
 -12   4   0    4.50    1.00
 -11   4   0   14.50    1.60
 -11   4   0   15.40    1.60
 -10   4   0  250.17    7.30
 -10   4   0  249.68    7.50
 -10   4   0  259.57    7.50
  -9   4   0   49.80    2.60
  -9   4   0   52.39    2.40
  -9   4   0   50.29    2.60
   8  -4   0  568.74   15.80
  -8   4   0  597.84   16.40
  -8   4   0  615.04   15.10
  -8   4   0  590.64   15.70
   7  -4   0    1.70    0.80
  -7   4   0    0.20    0.80
  -7   4   0   -0.10    0.40
  -7   4   0    0.70    0.70
   6  -4   0  350.76    9.70
  -6   4   0  366.76   10.10
  -6   4   0  353.56    9.10
  -6   4   0  363.06   10.10
   5  -4   0   39.40    1.80
  -5   4   0   36.20    1.80
  -5   4   0   38.00    2.00
  -5   4   0   40.80    1.90
  -5   4   0   38.70    1.40
   4  -4   0  178.68    5.00
  -4   4   0  185.18    5.30
  -4   4   0  186.18    5.30
  -4   4   0  191.28    5.30
   3  -4   0    9.20    0.60
   3  -4   0    7.90    0.60
   3  -4   0    9.30    0.70
  -3   4   0    7.80    0.60
  -3   4   0    8.50    0.90
  -3   4   0    7.40    0.70
  -3   4   0    8.70    0.70
  -3   4   0    7.70    0.70
   2  -4   0   59.89    1.60
   2  -4   0   62.59    1.90
   2  -4   0   62.69    2.00
  -2   4   0   63.79    2.00
  -2   4   0   62.29    2.10
  -2   4   0   58.49    2.10
  -2   4   0   62.79    2.10
  -2   4   0   62.79    2.20
   1  -4   0 2904.61   67.09
  -1   4   0 2819.32   66.69
  -1   4   0 2701.53   66.29
  -1   4   0 2803.62   65.89
  -1   4   0 2731.33   65.79
   0  -4   0  636.14   15.80
   0  -4   0  640.24   15.50
   0  -4   0  709.73   15.70
   0   4   0  627.54   15.10
   0   4   0  585.94   15.90
   0   4   0  640.74   15.60
   0   4   0  579.64   15.90
   0   4   0  671.03   15.70
  -1  -4   0   71.19    2.70
  -1  -4   0   72.49    2.50
  -1  -4   0   75.79    2.60
   1   4   0   76.49    2.30
   1   4   0   74.59    2.70
   1   4   0   74.19    2.50
   1   4   0   74.69    2.80
  -2  -4   0  257.37    7.30
  -2  -4   0  267.27    7.30
   2   4   0  266.47    7.10
   2   4   0  270.27    7.70
   2   4   0  271.97    7.20
   2   4   0  265.37    7.70
  -3  -4   0  162.48    5.00
  -3  -4   0  141.19    4.80
   3   4   0  152.08    5.10
   3   4   0  158.98    4.70
   3   4   0  152.18    5.20
   3   4   0  149.99    4.30
  -4  -4   0    6.80    1.20
   4   4   0    9.30    1.10
   4   4   0    6.80    1.10
  -5  -4   0    6.10    1.20
   5   4   0    6.40    1.20
  -6  -4   0    2.80    1.10
   6   4   0    1.80    0.90
  -7  -4   0   46.00    2.40
  -8  -4   0    1.80    0.90
  -9  -4   0  101.79    3.70
 -10  -4   0   23.30    1.70
 -11  -4   0   23.10    1.30
  13  -5   0    0.20    0.60
 -13   5   0    0.40    0.60
 -12   5   0    2.60    1.00
 -12   5   0    1.60    1.00
 -11   5   0    8.50    1.40
 -11   5   0    7.90    1.30
 -10   5   0   88.49    3.70
 -10   5   0   88.79    3.50
 -10   5   0   92.39    3.70
  -9   5   0  121.59    4.30
  -9   5   0  120.19    4.40
  -9   5   0  112.59    4.70
  -9   5   0  119.79    4.10
  -8   5   0  376.06    9.60
  -8   5   0  357.16   11.00
  -8   5   0  358.06   10.90
  -8   5   0  354.16   10.30
  -8   5   0  343.87   10.40
  -7   5   0   47.40    2.70
  -7   5   0   51.29    2.00
  -7   5   0   51.59    2.90
   6  -5   0    4.70    1.10
  -6   5   0    4.30    0.90
  -6   5   0    4.30    1.00
  -6   5   0    4.30    0.60
   5  -5   0   30.00    1.50
  -5   5   0   31.70    1.80
  -5   5   0   29.70    1.70
  -5   5   0   30.20    1.70
  -5   5   0   31.50    1.20
   4  -5   0   19.00    1.10
  -4   5   0   19.00    1.30
  -4   5   0   18.80    1.20
  -4   5   0   18.60    1.30
  -4   5   0   18.60    0.80
   3  -5   0  544.25   14.30
  -3   5   0  603.54   14.80
  -3   5   0  611.54   14.40
  -3   5   0  560.74   14.40
  -3   5   0  590.54   14.50
   2  -5   0  143.39    4.20
  -2   5   0  149.19    4.10
  -2   5   0  139.89    4.40
  -2   5   0  157.28    4.30
  -2   5   0  145.99    4.40
   1  -5   0    7.20    0.70
  -1   5   0    6.90    0.90
  -1   5   0    7.20    0.70
  -1   5   0    7.20    0.70
  -1   5   0    8.00    0.90
   0  -5   0  302.97    7.90
   0  -5   0  295.97    7.80
   0   5   0  290.37    8.20
   0   5   0  287.57    7.90
   0   5   0  296.17    7.90
  -1  -5   0  321.47    8.60
  -1  -5   0  327.77    8.70
   1   5   0  320.37    8.00
   1   5   0  307.67    8.10
   1   5   0  325.67    9.10
   1   5   0  323.07    8.80
   1   5   0  326.67    8.60
  -2  -5   0   38.30    2.00
  -2  -5   0   50.39    2.20
   2   5   0   45.90    2.40
   2   5   0   42.10    1.60
   2   5   0   39.90    2.20
   2   5   0   40.70    2.00
   2   5   0   40.80    1.80
  -3  -5   0   30.10    1.90
  -3  -5   0   29.40    1.90
   3   5   0   32.10    2.20
   3   5   0   29.90    1.70
   3   5   0   30.80    2.10
   3   5   0   29.70    1.40
  -4  -5   0   89.39    3.90
   4   5   0   96.49    3.70
   4   5   0   91.69    4.00
  -5  -5   0  533.75   14.70
   5   5   0  523.25   14.30
  -6  -5   0  146.79    4.70
  -6  -5   0  142.79    5.50
   6   5   0  141.09    5.30
  -7  -5   0   38.30    2.30
  -8  -5   0    4.50    1.10
  -9  -5   0   27.20    1.90
 -10  -5   0  102.89    3.30
  13  -6   0    4.50    0.70
 -13   6   0    4.90    0.80
 -12   6   0    2.40    1.00
 -12   6   0    2.70    0.90
 -11   6   0    1.30    1.00
 -11   6   0    0.40    0.70
 -11   6   0    0.20    1.00
 -10   6   0 1216.98   30.00
 -10   6   0 1240.58   29.70
 -10   6   0 1251.07   29.90
 -10   6   0 1138.89   30.50
  -9   6   0   74.49    3.30
  -9   6   0   71.79    3.70
  -9   6   0   76.29    3.00
  -9   6   0   73.29    3.30
  -8   6   0  355.16    9.70
  -8   6   0  357.76    9.50
  -8   6   0  358.56   10.40
  -8   6   0  362.66    9.90
  -8   6   0  351.36   10.90
  -7   6   0   23.30    1.40
  -7   6   0   22.30    1.90
  -7   6   0   24.10    2.10
  -6   6   0  196.48    5.40
  -6   6   0  204.88    6.50
  -6   6   0  200.68    6.20
  -6   6   0  200.38    6.30
  -5   6   0   95.49    3.70
  -5   6   0  103.19    3.70
  -5   6   0   97.59    3.50
  -5   6   0   93.89    2.80
   4  -6   0    8.30    0.90
  -4   6   0    7.90    0.60
  -4   6   0    9.30    1.00
  -4   6   0    7.80    1.10
  -4   6   0    9.20    0.90
   3  -6   0  483.05   12.10
  -3   6   0  471.75   12.10
  -3   6   0  478.45   12.00
  -3   6   0  463.05   11.40
  -3   6   0  466.75   12.50
  -3   6   0  488.55   12.30
   2  -6   0  175.78    5.20
  -2   6   0  179.48    5.40
  -2   6   0  169.78    5.00
  -2   6   0  181.98    5.10
  -2   6   0  177.78    5.40
   1  -6   0  506.15   12.80
  -1   6   0  506.55   12.60
  -1   6   0  484.35   12.50
  -1   6   0  502.35   13.10
  -1   6   0  482.45   11.90
  -1   6   0  489.05   12.80
   0  -6   0    3.50    0.70
   0  -6   0    4.00    0.70
   0   6   0    3.40    0.70
   0   6   0    2.70    0.40
   0   6   0    2.40    0.80
   0   6   0    6.00    0.90
  -1  -6   0  553.94   14.40
  -1  -6   0  548.45   14.60
   1   6   0  563.44   14.50
   1   6   0  567.24   13.70
   1   6   0  555.44   14.70
   1   6   0  585.64   15.20
  -2  -6   0    4.00    0.90
  -2  -6   0    5.10    0.90
   2   6   0    5.30    1.10
   2   6   0    3.70    0.60
   2   6   0    3.90    1.00
   2   6   0    3.60    0.80
  -3  -6   0 1089.79   26.70
   3   6   0 1050.39   27.20
   3   6   0 1038.90   25.70
  -4  -6   0   33.40    2.50
   4   6   0   33.60    2.50
  -5  -6   0  415.46   12.30
  -5  -6   0  428.56   11.40
  -6  -6   0   16.80    1.70
  -7  -6   0    4.50    1.10
  -8  -6   0  184.58    5.70
  -9  -6   0   47.40    2.20
 -10  -6   0   20.40    1.20
  13  -7   0    1.00    0.60
 -13   7   0    0.10    0.60
 -12   7   0   -0.30    0.90
 -12   7   0    2.60    0.90
 -11   7   0   84.59    3.50
 -11   7   0   86.19    4.00
 -11   7   0   85.59    3.50
 -11   7   0   81.49    3.20
 -10   7   0   72.79    3.30
 -10   7   0   75.89    3.90
 -10   7   0   73.39    3.10
 -10   7   0   78.29    3.50
  -9   7   0   37.70    2.10
  -9   7   0   34.00    2.20
  -9   7   0   35.90    2.70
  -9   7   0   35.40    2.40
  -8   7   0   13.70    1.50
  -8   7   0   12.60    1.40
  -8   7   0   13.30    2.00
  -8   7   0   14.30    1.30
  -8   7   0   13.40    1.80
  -7   7   0  172.08    6.00
  -7   7   0  176.98    6.40
  -7   7   0  178.78    6.40
  -7   7   0  187.68    5.10
  -6   7   0  365.06   10.30
  -6   7   0  360.06    9.00
  -6   7   0  339.87   10.10
  -6   7   0  358.96   10.00
   5  -7   0    1.90    0.60
  -5   7   0    0.80    0.70
  -5   7   0    1.00    0.40
  -5   7   0    1.80    0.60
  -5   7   0    0.80    0.70
   4  -7   0  185.38    5.60
  -4   7   0  183.88    4.90
  -4   7   0  191.98    6.10
  -4   7   0  193.18    5.60
  -4   7   0  190.68    5.80
   3  -7   0   35.20    1.80
  -3   7   0   36.10    2.00
  -3   7   0   32.70    2.00
  -3   7   0   34.10    1.70
  -3   7   0   35.40    1.90
   2  -7   0   46.20    2.20
  -2   7   0   45.00    2.00
  -2   7   0   44.70    2.40
  -2   7   0   45.80    2.10
  -2   7   0   47.90    1.50
  -2   7   0   47.20    2.40
   1  -7   0   53.69    2.50
   1  -7   0   59.19    2.40
  -1   7   0   57.19    2.80
  -1   7   0   56.89    2.60
  -1   7   0   56.19    2.40
  -1   7   0   57.59    1.80
   0  -7   0  189.48    6.00
   0  -7   0  192.08    5.80
   0   7   0  195.08    6.00
   0   7   0  187.88    5.90
   0   7   0  199.18    6.50
   0   7   0  186.88    5.10
  -1  -7   0   34.90    2.10
  -1  -7   0   38.10    2.10
   1   7   0   39.80    2.30
   1   7   0   35.00    2.10
   1   7   0   37.10    1.60
   1   7   0   33.90    2.40
  -2  -7   0  293.87    8.70
  -2  -7   0  311.17    9.00
  -2  -7   0  316.37    9.30
   2   7   0  308.27    9.70
   2   7   0  315.47    8.10
   2   7   0  302.27    8.80
   2   7   0  300.67    9.40
  -3  -7   0  587.44   16.00
   3   7   0  594.14   16.70
   3   7   0  603.84   15.00
  -4  -7   0    2.40    1.10
   4   7   0    1.90    0.90
  -5  -7   0  239.68    7.20
  -6  -7   0   89.29    3.50
  -7  -7   0    6.60    1.20
  -8  -7   0   48.50    2.40
  -9  -7   0    1.70    0.70
  13  -8   0   35.80    1.60
 -13   8   0   34.50    1.70
  12  -8   0   42.20    2.00
 -12   8   0   38.90    2.20
 -11   8   0    8.70    1.70
 -11   8   0   10.60    1.50
 -11   8   0   11.00    1.50
 -10   8   0  565.04   14.70
 -10   8   0  554.94   14.40
 -10   8   0  545.75   15.40
 -10   8   0  539.35   14.20
  -9   8   0  380.56   11.30
  -9   8   0  376.66   10.60
  -9   8   0  365.06   10.30
  -9   8   0  382.06   10.10
  -8   8   0   86.19    3.10
  -8   8   0   79.49    3.40
  -8   8   0   83.09    4.00
  -8   8   0   78.69    3.20
  -7   8   0   72.59    3.50
  -7   8   0   72.19    3.00
  -7   8   0   71.99    2.60
  -7   8   0   66.89    3.60
  -6   8   0    2.20    0.90
  -6   8   0    1.60    0.50
  -6   8   0    2.70    0.80
  -6   8   0    1.40    0.90
  -6   8   0    2.00    0.90
   5  -8   0   69.99    3.10
  -5   8   0   76.19    3.50
  -5   8   0   74.39    2.40
  -5   8   0   78.69    3.30
  -5   8   0   75.39    3.10
   4  -8   0    2.80    0.70
  -4   8   0    3.00    0.90
  -4   8   0    3.10    0.70
  -4   8   0    4.00    1.10
   3  -8   0  499.65   13.70
  -3   8   0  522.95   14.00
  -3   8   0  526.05   13.60
  -3   8   0  508.25   12.60
  -3   8   0  539.85   13.60
  -3   8   0  512.85   14.00
   2  -8   0  212.08    6.60
  -2   8   0  209.18    6.70
  -2   8   0  211.98    6.90
  -2   8   0  210.28    6.30
  -2   8   0  212.38    5.50
  -2   8   0  209.78    6.30
   1  -8   0   26.70    1.90
   1  -8   0   27.00    1.80
  -1   8   0   27.50    1.80
  -1   8   0   25.40    2.10
  -1   8   0   33.20    2.10
  -1   8   0   26.20    1.20
   0  -8   0  227.68    7.40
   0  -8   0  233.78    7.10
   0   8   0  234.98    7.30
   0   8   0  240.58    6.30
   0   8   0  225.98    7.30
   0   8   0  251.27    8.00
  -1  -8   0   36.50    2.30
  -1  -8   0   34.40    2.30
   1   8   0   29.60    2.20
   1   8   0   35.70    2.70
   1   8   0   33.20    2.20
   1   8   0   33.50    1.60
  -2  -8   0   67.69    3.40
   2   8   0   71.19    2.70
  -3  -8   0   88.49    4.20
   3   8   0   93.79    3.20
   3   8   0   97.99    3.70
  -4  -8   0   13.50    1.60
   4   8   0   13.40    1.30
  -5  -8   0    1.90    1.00
   5   8   0    2.00    0.80
  -6  -8   0   85.39    3.40
  -7  -8   0   70.19    2.90
  -8  -8   0    8.70    1.10
  13  -9   0   52.19    1.90
  12  -9   0   29.70    1.70
 -12   9   0   27.40    2.20
 -12   9   0   29.40    1.90
 -11   9   0   84.99    4.00
 -11   9   0   83.49    3.40
 -11   9   0   86.89    3.50
 -10   9   0  147.49    5.90
 -10   9   0  157.28    5.30
 -10   9   0  146.29    5.00
  -9   9   0   49.90    2.40
  -9   9   0   49.50    2.60
  -9   9   0   51.09    3.40
  -9   9   0   45.00    2.80
  -8   9   0   23.80    2.50
  -8   9   0   21.20    1.80
  -8   9   0   22.50    1.60
  -8   9   0   22.50    1.90
  -7   9   0    4.30    1.00
  -7   9   0    3.80    0.80
  -7   9   0    4.50    1.30
  -7   9   0    5.00    1.40
  -7   9   0    4.30    1.00
  -6   9   0  181.18    5.60
  -6   9   0  183.58    5.10
  -6   9   0  175.48    6.10
  -6   9   0  176.98    6.30
   5  -9   0    2.10    0.80
  -5   9   0    1.40    0.50
  -5   9   0    1.40    0.90
  -5   9   0    0.90    0.80
  -5   9   0    2.90    0.80
  -5   9   0    1.20    0.60
  -5   9   0    1.60    1.60
   4  -9   0   10.00    1.30
  -4   9   0   11.30    1.20
  -4   9   0   11.40    1.50
  -4   9   0   11.00    1.60
  -4   9   0    9.90    0.80
   3  -9   0   11.00    1.40
  -3   9   0   13.80    0.90
  -3   9   0   11.50    1.40
  -3   9   0   11.30    1.60
  -3   9   0   11.90    1.70
   2  -9   0  231.88    7.70
   2  -9   0  254.47    7.60
  -2   9   0  248.38    7.50
  -2   9   0  256.27    6.50
  -2   9   0  251.37    8.30
  -2   9   0  252.07    7.90
   1  -9   0   13.80    1.60
   1  -9   0   13.60    1.60
  -1   9   0   14.30    1.10
  -1   9   0   12.20    1.70
  -1   9   0   13.50    1.50
  -1   9   0   13.50    1.90
   0  -9   0    7.80    1.30
   0  -9   0    4.70    1.10
   0   9   0    5.50    2.10
   0   9   0    4.80    1.20
   0   9   0    6.10    0.80
   0   9   0    5.10    1.10
  -1  -9   0   14.80    1.80
   1   9   0   15.00    1.40
   1   9   0   11.80    1.70
   1   9   0   13.00    1.20
  -2  -9   0  701.23   19.10
   2   9   0  698.33   17.70
   2   9   0  718.23   18.30
   2   9   0  734.63   17.90
   3   9   0    2.30    1.00
   3   9   0    5.00    0.90
  -4  -9   0    4.70    1.20
   4   9   0    5.20    1.00
  -5  -9   0    8.90    1.30
   5   9   0    8.30    1.10
  -6  -9   0   59.69    2.70
  -7  -9   0   19.50    1.60
  -8  -9   0    1.70    0.60
  12 -10   0   69.29    2.50
 -12  10   0   66.89    3.10
 -12  10   0   72.99    2.70
  11 -10   0    3.70    1.00
 -11  10   0    4.60    1.20
 -11  10   0    3.50    1.40
 -10  10   0  189.98    5.90
 -10  10   0  172.98    5.40
 -10  10   0  168.58    5.50
 -10  10   0  175.18    6.60
  -9  10   0   11.40    1.30
  -9  10   0   10.00    1.50
  -9  10   0    8.10    1.30
  -9  10   0    9.10    1.80
  -8  10   0   12.70    1.60
  -8  10   0   14.90    2.10
  -8  10   0   11.50    1.50
  -8  10   0   13.30    1.30
  -7  10   0   41.20    3.00
  -7  10   0   48.80    2.60
  -7  10   0   39.70    2.30
  -7  10   0   46.10    2.10
  -6  10   0    7.60    1.30
  -6  10   0    4.50    1.20
  -6  10   0    4.80    0.80
  -6  10   0    6.60    1.10
  -6  10   0    6.40    1.40
  -5  10   0   36.30    2.50
  -5  10   0   36.50    2.20
  -5  10   0   34.20    2.40
  -5  10   0   36.50    2.00
  -5  10   0   34.00    1.60
  -4  10   0    6.20    1.10
  -4  10   0    4.10    1.10
  -4  10   0    3.00    0.60
  -4  10   0    2.90    1.10
  -3  10   0  431.36   11.50
  -3  10   0  445.16   11.00
  -3  10   0  434.86   12.20
  -3  10   0  422.86   12.00
   2 -10   0   72.39    3.40
  -2  10   0   66.59    2.80
  -2  10   0   58.89    3.20
  -2  10   0   72.59    2.50
   1 -10   0  584.94   15.70
   1 -10   0  544.05   15.90
  -1  10   0  602.24   14.60
  -1  10   0  590.54   14.90
   0 -10   0    2.00    1.00
   0  10   0    1.50    0.80
   0  10   0    1.60    0.70
   0  10   0    0.30    0.80
   0  10   0    2.40    0.80
  -1 -10   0   96.99    4.40
   1  10   0  104.49    3.60
   1  10   0   98.19    3.90
   1  10   0   95.59    3.70
   1  10   0  109.99    3.60
   2  10   0  214.78    6.50
   2  10   0  220.98    6.90
   2  10   0  220.98    6.30
   3  10   0   94.49    3.90
   3  10   0   85.09    3.20
  -4 -10   0   48.50    2.70
   4  10   0   51.19    2.40
  -5 -10   0   65.99    3.00
   5  10   0   64.09    2.60
  -6 -10   0    1.20    0.80
  -7 -10   0   94.69    3.10
  12 -11   0   37.80    1.60
 -12  11   0   40.90    1.90
 -12  11   0   40.30    2.30
  11 -11   0    5.00    0.90
 -11  11   0    5.10    1.40
 -11  11   0    4.70    1.10
  10 -11   0   22.90    1.90
 -10  11   0   20.50    2.00
 -10  11   0   22.40    2.60
  -9  11   0   14.70    1.70
  -9  11   0   14.30    1.40
  -9  11   0   14.90    2.20
  -8  11   0    4.00    0.90
  -8  11   0    5.90    1.30
  -8  11   0    6.60    1.30
  -7  11   0   12.30    1.50
  -7  11   0   14.50    2.00
  -7  11   0   10.50    1.20
  -7  11   0   11.60    1.60
  -6  11   0  333.57   10.10
  -6  11   0  334.87    9.30
  -6  11   0  333.47    8.80
  -6  11   0  330.47    9.60
  -5  11   0  285.37    8.80
  -5  11   0  276.47    8.30
  -5  11   0  283.07    8.00
  -5  11   0  283.97    7.60
  -4  11   0   14.40    1.60
  -4  11   0   11.70    1.80
  -4  11   0   13.00    1.20
  -4  11   0   14.60    1.90
  -4  11   0   11.10    1.30
   3 -11   0   35.40    2.60
  -3  11   0   35.90    2.20
  -3  11   0   32.60    2.60
  -3  11   0   38.30    1.80
  -3  11   0   35.10    2.00
   2 -11   0   11.50    1.70
  -2  11   0   10.10    1.20
  -2  11   0   10.30    1.10
  -2  11   0   12.00    1.80
  -2  11   0   10.40    1.30
  -2  11   0   10.10    1.40
   1 -11   0   49.60    4.70
  -1  11   0   58.19    2.40
  -1  11   0   51.29    2.60
  -1  11   0   56.59    2.40
  -1  11   0   54.29    2.60
   0  11   0   70.39    2.90
   0  11   0   66.69    3.00
   0  11   0   70.19    3.20
   0  11   0   68.69    2.80
   1  11   0    3.50    1.20
   1  11   0    4.00    0.90
   1  11   0    5.40    1.00
   2  11   0   53.39    2.90
   2  11   0   49.90    2.40
   3  11   0  228.58    7.20
   3  11   0  223.88    6.50
  -4 -11   0   48.90    2.60
   4  11   0   41.40    2.10
  -5 -11   0   26.60    1.80
   5  11   0   23.70    1.50
  -6 -11   0   85.69    2.90
 -12  12   0   15.90    1.20
 -11  12   0   11.10    1.20
 -11  12   0    9.00    1.60
 -10  12   0   48.50    2.60
 -10  12   0   49.20    3.20
  -9  12   0  101.69    4.00
  -9  12   0  108.19    4.80
  -9  12   0   98.49    3.50
  -8  12   0    0.10    1.00
  -8  12   0    0.40    1.30
  -8  12   0    3.40    1.10
  -8  12   0    1.70    0.70
  -7  12   0    2.80    1.00
  -7  12   0    2.10    0.70
  -7  12   0    2.90    1.20
  -7  12   0    1.60    1.40
  -6  12   0   14.10    2.00
  -6  12   0   11.30    1.60
  -6  12   0   10.00    1.10
  -6  12   0    9.00    1.30
  -5  12   0  113.09    4.20
  -5  12   0  117.69    3.80
  -5  12   0  111.99    4.40
  -5  12   0  117.19    5.10
  -4  12   0    5.00    1.60
  -4  12   0    5.00    1.20
  -4  12   0    5.40    1.10
  -4  12   0    6.10    0.90
  -3  12   0   36.50    2.40
  -3  12   0   38.90    2.30
  -3  12   0   35.90    3.10
  -3  12   0   40.10    2.00
  -2  12   0    2.00    0.80
  -2  12   0    0.10    0.90
  -2  12   0    2.00    1.00
  -2  12   0    2.70    0.80
  -1  12   0   93.39    3.40
  -1  12   0   92.59    3.90
  -1  12   0   91.09    3.70
  -1  12   0   95.09    3.50
   0  12   0   94.29    3.40
   0  12   0   85.99    3.80
   0  12   0   88.69    3.60
   0  12   0   90.39    3.50
   1  12   0   10.30    1.50
   1  12   0    8.70    1.20
   2  12   0   37.40    2.60
   2  12   0   37.80    2.20
  -3 -12   0    1.10    1.00
   3  12   0    2.10    0.90
  -4 -12   0    6.50    1.10
   4  12   0    5.10    0.90
  -5 -12   0   46.20    2.00
   5  12   0   44.40    1.80
 -11  13   0   62.99    2.50
 -11  13   0   63.19    3.10
 -10  13   0   77.79    3.10
 -10  13   0   78.19    3.80
  -9  13   0    6.50    1.70
  -9  13   0    4.70    1.20
  -9  13   0    4.50    1.10
  -8  13   0  125.49    4.40
  -8  13   0  114.29    3.90
  -8  13   0  118.99    5.20
  -8  13   0  114.99    4.30
  -7  13   0   81.99    3.10
  -7  13   0   91.49    4.60
  -7  13   0   91.39    3.70
  -7  13   0   90.09    3.80
  -6  13   0  162.18    5.00
  -6  13   0  170.48    5.80
  -6  13   0  165.18    5.50
  -6  13   0  173.98    6.50
  -5  13   0   77.49    3.30
  -5  13   0   74.59    3.00
  -5  13   0   77.69    3.60
  -5  13   0   81.99    4.40
  -4  13   0  227.28    7.90
  -4  13   0  230.78    7.00
  -4  13   0  228.78    6.60
  -4  13   0  230.58    7.20
  -3  13   0    1.90    0.80
  -3  13   0    2.40    1.10
  -3  13   0    2.40    1.00
  -2  13   0  234.68    6.80
  -2  13   0  239.68    7.20
  -2  13   0  238.58    7.20
  -2  13   0  226.08    6.80
  -1  13   0   12.70    1.40
  -1  13   0   11.90    1.70
  -1  13   0   12.90    1.60
  -1  13   0    9.90    1.20
   0  13   0    0.90    0.70
   0  13   0   -1.20    1.00
   0  13   0    0.80    1.00
   0  13   0    0.20    0.90
   1  13   0  128.79    4.30
   1  13   0  131.69    4.80
   2  13   0  393.66   10.30
  -3 -13   0  116.29    4.00
   3  13   0  117.89    3.70
  -4 -13   0   70.59    2.50
   4  13   0   71.19    2.40
 -10  14   0    2.80    0.80
 -10  14   0    4.10    1.50
  -9  14   0   87.19    4.10
  -9  14   0   80.89    3.20
  -9  14   0   78.99    3.10
  -8  14   0    7.20    1.30
  -8  14   0    9.40    2.00
  -8  14   0    5.80    1.10
  -7  14   0    0.90    1.10
  -7  14   0    2.80    1.00
  -7  14   0    3.40    1.70
  -6  14   0    3.10    1.20
  -6  14   0    4.90    1.10
  -6  14   0    4.20    0.90
  -6  14   0    4.30    1.80
  -5  14   0    4.80    1.10
  -5  14   0    4.00    0.90
  -5  14   0    4.20    1.20
   4 -14   0  299.97   10.50
  -4  14   0  318.17    8.80
  -4  14   0  336.17    9.20
  -4  14   0  335.07    9.40
  -3  14   0    1.70    0.80
  -3  14   0    3.40    1.20
  -3  14   0    1.80    1.10
  -2  14   0   54.29    2.90
  -2  14   0   57.09    2.60
  -2  14   0   57.39    3.10
  -2  14   0   55.19    2.50
  -1  14   0  336.37    9.50
  -1  14   0  339.67    9.00
  -1  14   0  317.67    9.20
   0  14   0  292.57    8.30
   0  14   0  271.67    7.80
   1  14   0    9.20    1.40
   1  14   0    8.90    1.10
  -2 -14   0    0.30    0.80
   2  14   0    0.20    0.60
  -3 -14   0    1.20    0.60
   3  14   0    1.00    0.50
  -9  15   0    4.40    1.50
  -9  15   0    4.00    0.80
  -8  15   0    9.10    1.20
  -8  15   0   10.40    1.30
  -8  15   0   10.70    1.90
  -7  15   0  131.29    5.30
  -7  15   0  134.09    4.40
  -7  15   0  131.19    4.60
   6 -15   0   34.30    4.30
  -6  15   0   47.60    2.60
  -6  15   0   45.80    2.40
   5 -15   0   58.39    4.00
  -5  15   0   68.39    3.00
  -5  15   0   59.79    3.00
  -4  15   0  119.99    4.30
  -4  15   0  112.59    4.30
  -3  15   0   14.30    1.60
  -3  15   0   12.50    1.60
  -2  15   0  114.69    4.10
  -2  15   0  112.79    4.20
  -2  15   0  114.39    3.80
  -1  15   0   41.70    2.40
  -1  15   0   46.50    2.10
  -1  15   0   43.90    2.30
   0  15   0    6.90    1.20
   0  15   0    6.90    0.90
  -1 -15   0   55.59    2.30
   1  15   0   52.89    2.10
  -8  16   0   27.90    1.60
   7 -16   0   -0.60    1.50
  -7  16   0    0.30    0.80
  -7  16   0    1.60    0.70
   6 -16   0   45.50    2.80
  -6  16   0   47.60    2.30
  -6  16   0   43.10    2.30
  -5  16   0  126.59    4.40
  -5  16   0  134.69    4.40
  -4  16   0   12.50    1.40
  -4  16   0   10.10    1.30
  -3  16   0   10.30    1.30
  -3  16   0   10.60    1.30
  -2  16   0    0.70    0.80
  -2  16   0    1.30    0.80
  -2  16   0    0.50    0.90
  -1  16   0   26.40    1.60
  -1  16   0   24.90    1.40
   0  16  -1   25.00    1.30
   0 -16   1   23.10    1.50
  -1  16  -1    0.00    0.60
  -1  16  -1    0.20    0.70
  -2  16  -1    1.40    0.90
  -2  16  -1    1.80    0.80
  -3  16  -1   18.60    1.60
  -3  16  -1   21.10    1.90
  -4  16  -1    1.40    1.00
  -4  16  -1    1.40    1.00
  -5  16  -1   19.20    1.80
  -5  16  -1   20.50    1.90
  -6  16  -1   14.10    1.40
  -6  16  -1   15.50    1.60
  -7  16  -1    7.40    1.10
  -7  16  -1    6.90    1.10
  -8  16  -1   17.90    1.30
   2  15  -1    1.30    0.60
  -2 -15   1    3.00    0.70
   1  15  -1   15.00    1.20
  -1 -15   1   13.90    1.40
   0  15  -1    6.10    1.00
   0  15  -1    7.10    1.20
  -1  15  -1   29.80    2.00
  -1  15  -1   27.40    2.10
  -1  15  -1   27.50    1.80
  -2  15  -1   43.40    2.50
  -2  15  -1   47.30    2.20
  -2  15  -1   43.00    2.60
  -3  15  -1   10.60    1.50
  -3  15  -1    9.50    1.50
  -4  15  -1   30.00    2.30
  -4  15  -1   26.90    2.20
  -5  15  -1   36.60    2.30
  -5  15  -1   34.60    2.40
  -6  15  -1   65.89    3.20
  -7  15  -1    5.30    1.20
  -7  15  -1    6.80    1.80
  -7  15  -1    6.30    1.10
  -8  15  -1    9.80    1.20
  -8  15  -1   11.00    1.30
  -8  15  -1   11.70    2.00
  -9  15  -1    2.20    0.80
  -9  15  -1    4.80    1.50
   3  14  -1   -0.50    0.50
  -3 -14   1   -0.50    0.60
   2  14  -1   58.09    2.30
  -2 -14   1   53.69    2.50
   1  14  -1    7.40    1.30
   1  14  -1    6.00    1.00
   0  14  -1   43.50    2.30
   0  14  -1   44.30    2.70
   0  14  -1   40.10    2.40
  -1  14  -1   10.90    1.50
  -1  14  -1    8.60    1.20
  -1  14  -1   12.80    1.70
  -1  14  -1   12.70    1.40
  -2  14  -1   24.60    1.90
  -2  14  -1   27.30    2.50
  -2  14  -1   26.10    1.80
  -2  14  -1   28.10    2.30
  -3  14  -1  277.37    8.00
  -3  14  -1  275.97    8.20
  -3  14  -1  258.17    7.50
  -4  14  -1    4.00    1.10
  -4  14  -1    2.00    0.80
  -4  14  -1    2.60    1.20
  -5  14  -1    2.10    1.70
  -5  14  -1    1.50    0.80
  -5  14  -1    1.90    1.20
  -5  14  -1    1.30    1.00
  -6  14  -1   88.89    4.60
  -6  14  -1   88.49    3.80
  -6  14  -1   90.09    3.60
  -6  14  -1   81.29    3.10
  -7  14  -1  244.38    7.20
  -7  14  -1  237.18    7.30
  -7  14  -1  246.28    8.10
  -8  14  -1   28.30    2.00
  -8  14  -1   28.30    2.90
  -8  14  -1   28.80    2.10
  -9  14  -1    4.50    1.00
  -9  14  -1    8.60    1.80
 -10  14  -1    3.60    1.40
 -10  14  -1    3.00    0.80
   4  13  -1   56.89    2.10
  -4 -13   1   56.49    2.30
   3  13  -1  194.68    5.60
  -3 -13   1  205.58    6.00
   2  13  -1   22.50    2.10
   2  13  -1   20.30    1.70
   1  13  -1   29.30    1.90
   1  13  -1   28.00    2.40
   1  13  -1   29.20    3.00
   0  13  -1   87.89    3.70
   0  13  -1   95.09    4.00
   0  13  -1   92.39    3.40
   0  13  -1   82.09    3.30
  -1  13  -1   11.60    1.30
  -1  13  -1    8.10    1.50
  -1  13  -1   11.10    1.30
  -1  13  -1   10.40    1.50
  -2  13  -1   55.39    3.00
  -2  13  -1   58.59    3.10
  -2  13  -1   52.29    2.50
  -2  13  -1   51.99    2.40
  -3  13  -1    0.90    0.70
  -3  13  -1    1.60    1.20
  -3  13  -1    1.30    0.90
  -4  13  -1   19.30    2.40
  -4  13  -1   20.50    2.10
  -4  13  -1   17.90    1.90
  -4  13  -1   20.10    1.60
  -5  13  -1  685.43   18.80
  -5  13  -1  692.93   17.40
  -5  13  -1  710.23   18.00
  -5  13  -1  701.13   18.20
  -6  13  -1   78.09    3.40
  -6  13  -1   72.39    4.10
  -6  13  -1   70.69    2.80
  -6  13  -1   79.59    3.60
  -7  13  -1   48.40    2.20
  -7  13  -1   49.30    2.80
  -7  13  -1   47.50    3.40
  -7  13  -1   47.50    2.70
  -8  13  -1  277.67    7.90
  -8  13  -1  303.67    8.50
  -8  13  -1  291.77    9.30
  -8  13  -1  292.57    8.40
  -9  13  -1  124.59    5.20
  -9  13  -1  125.29    4.50
 -10  13  -1   19.40    2.20
 -10  13  -1   19.60    1.70
 -11  13  -1    8.50    1.50
 -11  13  -1    7.90    1.00
   5  12  -1   62.39    2.20
  -5 -12   1   66.99    2.50
   4  12  -1   66.59    2.60
  -4 -12   1   66.19    2.90
   3  12  -1    1.00    0.80
  -3 -12   1    0.20    1.00
   2  12  -1    1.50    1.10
   2  12  -1    2.20    1.00
   1  12  -1   64.79    2.80
   1  12  -1   59.19    3.00
   1  12  -1   65.09    2.90
   1  12  -1   62.09    3.20
   0  12  -1   14.40    1.80
   0  12  -1   15.60    1.70
   0  12  -1   17.20    1.50
   0  12  -1   17.30    1.70
  -1  12  -1   -0.10    1.00
  -1  12  -1    1.40    0.70
  -1  12  -1    1.60    1.10
  -1  12  -1    1.40    0.80
  -2  12  -1   22.10    1.60
  -2  12  -1   20.00    2.10
  -2  12  -1   18.70    1.60
  -2  12  -1   17.10    1.80
  -3  12  -1  540.95   14.30
  -3  12  -1  523.05   15.00
  -3  12  -1  552.14   14.60
  -3  12  -1  565.64   13.90
  -4  12  -1    5.80    0.90
  -4  12  -1    7.10    1.70
  -4  12  -1    4.70    1.20
  -4  12  -1    4.00    1.10
  -5  12  -1  275.87    8.80
  -5  12  -1  266.67    8.20
  -5  12  -1  270.27    7.40
  -5  12  -1  269.37    7.90
  -6  12  -1   15.20    1.70
  -6  12  -1   16.00    1.90
  -6  12  -1   19.90    2.50
  -6  12  -1   14.00    1.30
  -7  12  -1  425.06   11.70
  -7  12  -1  425.36   11.00
  -7  12  -1  416.36   12.40
  -7  12  -1  427.66   11.60
  -8  12  -1    4.40    1.10
  -8  12  -1    2.90    1.10
  -8  12  -1    3.70    0.80
  -8  12  -1    3.70    1.50
  -9  12  -1  100.49    4.60
  -9  12  -1   95.09    3.40
  -9  12  -1  102.09    4.00
 -10  12  -1   18.50    1.80
 -10  12  -1   18.50    2.30
 -11  12  -1    6.90    1.10
 -11  12  -1    7.20    1.40
  -6 -11   1  112.69    3.60
   5  11  -1    1.70    0.80
   5  11  -1    1.60    0.40
  -5 -11   1    1.00    0.90
   4  11  -1  173.28    5.20
  -4 -11   1  175.08    5.70
   3  11  -1   17.70    1.60
   3  11  -1   22.20    2.20
   2  11  -1    2.70    0.80
   2  11  -1    2.80    1.10
   2  11  -1    1.00    0.90
   1  11  -1   11.80    1.30
   1  11  -1   10.20    1.50
   1  11  -1   14.80    1.40
   1  11  -1   12.30    1.50
   0  11  -1  679.93   17.80
   0  11  -1  698.83   17.50
   0  11  -1  687.63   17.90
   0  11  -1  716.13   17.50
  -1  11  -1   55.79    2.70
  -1  11  -1   63.59    2.60
  -1  11  -1   64.79    2.50
  -1  11  -1   59.99    2.90
  -2  11  -1   43.40    2.00
  -2  11  -1   42.10    2.20
  -2  11  -1   46.20    2.00
  -2  11  -1   41.00    2.40
   2 -11   1   41.60    2.80
  -3  11  -1   51.79    2.10
  -3  11  -1   47.90    2.60
  -3  11  -1   45.30    2.90
  -3  11  -1   48.60    2.40
   3 -11   1   48.90    3.10
  -4  11  -1   12.20    1.30
  -4  11  -1    8.80    1.60
  -4  11  -1   12.40    1.10
  -4  11  -1   13.10    1.50
  -4  11  -1   12.20    1.70
  -5  11  -1  284.37    7.40
  -5  11  -1  278.37    7.90
  -5  11  -1  267.67    8.60
  -5  11  -1  269.37    8.10
  -6  11  -1  114.79    4.10
  -6  11  -1  121.89    4.50
  -6  11  -1  113.39    4.80
  -6  11  -1  116.39    3.70
  -7  11  -1   92.59    3.20
  -7  11  -1   92.19    3.70
  -7  11  -1   95.19    4.40
  -7  11  -1   89.29    3.80
  -8  11  -1   29.00    2.90
  -8  11  -1   28.20    2.20
  -8  11  -1   25.50    1.70
  -9  11  -1   56.49    3.70
  -9  11  -1   51.39    2.30
  -9  11  -1   52.79    2.90
 -10  11  -1  216.28    6.60
 -10  11  -1  209.88    7.40
  10 -11   1  200.68    6.70
 -11  11  -1    1.50    0.90
 -11  11  -1    0.40    1.20
  11 -11   1    2.70    0.80
 -12  11  -1   19.70    1.40
 -12  11  -1   18.60    2.40
  12 -11   1   17.90    1.20
  -7 -10   1   98.99    3.20
  -6 -10   1    4.10    1.00
   5  10  -1   41.10    2.10
  -5 -10   1   42.70    2.50
   4  10  -1    4.80    1.00
  -4 -10   1    2.60    1.10
   3  10  -1   62.49    2.70
   3  10  -1   64.79    3.30
   2  10  -1   46.20    2.30
   2  10  -1   48.40    2.70
   2  10  -1   51.69    2.30
   1  10  -1  254.67    7.00
   1  10  -1  245.48    7.30
   1  10  -1  240.58    7.20
  -1 -10   1  240.88    8.10
   0  10  -1   74.19    2.70
   0  10  -1   72.69    3.10
   0  10  -1   73.59    3.10
   0  10  -1   73.49    2.80
   0 -10   1   74.29    3.60
  -1  10  -1   41.10    2.20
  -1  10  -1   44.10    1.90
   1 -10   1   39.90    2.60
  -2  10  -1  391.46   11.30
  -2  10  -1  403.86   10.90
  -2  10  -1  420.36   10.40
   2 -10   1  419.66   11.70
  -3  10  -1    9.90    1.50
  -3  10  -1    9.20    0.90
  -3  10  -1    9.80    1.50
  -3  10  -1    9.40    1.20
  -4  10  -1   89.39    4.00
  -4  10  -1   88.79    3.50
  -4  10  -1   86.39    3.70
  -4  10  -1   88.39    2.80
  -5  10  -1    8.60    1.40
  -5  10  -1    7.00    1.10
  -5  10  -1    6.50    1.20
  -5  10  -1    7.40    1.40
  -5  10  -1    9.90    0.90
  -6  10  -1   28.60    1.90
  -6  10  -1   29.90    2.10
  -6  10  -1   27.10    2.30
  -6  10  -1   28.50    2.50
  -6  10  -1   29.50    1.50
  -7  10  -1   85.69    3.50
  -7  10  -1   92.39    3.10
  -7  10  -1   82.39    3.40
  -7  10  -1   87.49    4.20
  -8  10  -1    6.40    1.30
  -8  10  -1    8.10    1.70
  -8  10  -1    6.20    1.00
  -9  10  -1   24.70    2.00
  -9  10  -1   24.90    2.80
  -9  10  -1   24.60    2.20
 -10  10  -1    0.70    1.40
 -10  10  -1    0.90    0.70
 -10  10  -1   -0.40    1.00
 -10  10  -1    0.30    1.00
 -11  10  -1    9.80    1.30
 -11  10  -1   10.00    1.40
 -11  10  -1   10.20    1.80
 -12  10  -1    4.20    1.20
 -12  10  -1    5.50    0.90
  12 -10   1    4.90    0.80
  -8  -9   1   89.19    2.90
  -7  -9   1    6.60    1.00
  -6  -9   1   77.69    3.20
   5   9  -1   29.20    1.80
  -5  -9   1   26.20    2.20
   4   9  -1  155.38    4.80
  -4  -9   1  152.08    5.30
   3   9  -1  234.48    6.70
   3   9  -1  235.68    6.90
   3   9  -1  243.88    7.40
   2   9  -1   30.30    2.20
   2   9  -1   30.50    1.70
   2   9  -1   29.10    1.70
  -2  -9   1   32.30    2.60
   1   9  -1   16.50    1.30
   1   9  -1   15.20    1.50
   1   9  -1   14.60    1.80
  -1  -9   1   17.90    1.90
  -1  -9   1   15.10    1.70
   0   9  -1   58.59    3.10
   0   9  -1   55.99    3.50
   0   9  -1   56.89    3.00
   0   9  -1   58.99    2.20
   0  -9   1   52.89    3.00
   0  -9   1   58.79    3.00
  -1   9  -1  177.68    6.40
  -1   9  -1  179.28    6.00
  -1   9  -1  201.18    6.90
  -1   9  -1  179.88    5.00
   1  -9   1  186.68    6.10
   1  -9   1  179.58    6.20
  -2   9  -1   18.50    2.00
  -2   9  -1   19.60    1.00
  -2   9  -1   17.90    1.90
  -2   9  -1   19.90    1.50
   2  -9   1   17.00    1.60
   2  -9   1   20.30    1.70
  -3   9  -1  361.36   10.80
  -3   9  -1  370.96    9.10
  -3   9  -1  360.16   11.40
  -3   9  -1  374.36   10.40
  -3   9  -1  378.96   10.20
   3  -9   1  351.56   10.30
  -4   9  -1  478.05   13.50
  -4   9  -1  469.45   13.00
  -4   9  -1  483.45   11.70
  -4   9  -1  474.35   12.70
   4  -9   1  474.25   12.80
  -5   9  -1   31.00    1.90
  -5   9  -1   29.40    2.50
  -5   9  -1   27.80    1.80
  -5   9  -1   30.80    1.30
  -5   9  -1   29.70    2.20
  -5   9  -1   31.20    2.10
   5  -9   1   30.10    2.00
  -6   9  -1  278.87    8.10
  -6   9  -1  287.37    8.80
  -6   9  -1  292.67    8.40
  -6   9  -1  290.27    9.00
  -6   9  -1  297.47    7.60
  -7   9  -1   22.70    1.80
  -7   9  -1   19.70    2.20
  -7   9  -1   20.90    1.40
  -7   9  -1   18.50    2.20
  -8   9  -1  123.89    4.00
  -8   9  -1  119.69    4.20
  -8   9  -1  121.39    5.20
  -8   9  -1  123.49    4.50
  -9   9  -1  181.88    5.50
  -9   9  -1  186.48    6.10
  -9   9  -1  181.88    6.80
  -9   9  -1  178.28    5.70
 -10   9  -1  217.38    6.60
 -10   9  -1  226.28    7.60
 -10   9  -1  207.68    6.30
 -10   9  -1  218.78    6.80
 -11   9  -1    4.30    1.20
 -11   9  -1    2.40    1.10
 -11   9  -1    1.50    1.30
 -12   9  -1   13.40    1.80
 -12   9  -1   13.30    1.30
  12  -9   1   14.90    1.30
  -9  -8   1   23.30    1.30
  -8  -8   1   27.70    1.80
  -7  -8   1  246.28    7.10
   6   8  -1    2.20    0.50
  -6  -8   1    2.10    1.00
   5   8  -1    9.80    1.10
  -5  -8   1    9.00    1.40
   4   8  -1   29.30    1.70
   4   8  -1   33.50    2.40
   3   8  -1   27.00    1.70
   3   8  -1   25.70    2.00
   3   8  -1   26.00    1.70
  -3  -8   1   25.60    2.40
   2   8  -1    9.80    1.10
   2   8  -1    9.10    1.50
  -2  -8   1   11.00    1.50
  -2  -8   1    8.30    1.40
  -2  -8   1   10.40    1.50
   1   8  -1  120.79    4.60
   1   8  -1  126.89    3.70
   1   8  -1  122.89    5.20
   1   8  -1  119.69    4.80
  -1  -8   1  117.59    4.60
  -1  -8   1  125.29    4.60
   0   8  -1  115.59    4.50
   0   8  -1  113.39    4.30
   0   8  -1  120.59    5.00
   0   8  -1  120.29    3.40
   0  -8   1  121.19    4.50
   0  -8   1  118.59    4.30
  -1   8  -1   40.20    2.10
  -1   8  -1   37.80    1.50
  -1   8  -1   39.80    2.40
  -1   8  -1   38.50    2.50
   1  -8   1   41.00    2.20
   1  -8   1   39.30    2.20
  -2   8  -1   10.20    1.40
  -2   8  -1    8.90    1.40
  -2   8  -1   10.50    1.10
  -2   8  -1   12.00    1.30
  -2   8  -1    9.10    0.70
   2  -8   1   11.00    1.20
  -3   8  -1  242.48    7.50
  -3   8  -1  246.78    6.30
  -3   8  -1  254.37    7.70
  -3   8  -1  254.17    7.10
  -3   8  -1  248.98    7.30
   3  -8   1  249.78    7.20
  -4   8  -1  260.97    7.90
  -4   8  -1  256.57    7.60
  -4   8  -1  247.78    6.40
  -4   8  -1  257.37    7.20
   4  -8   1  246.18    7.20
  -5   8  -1  221.68    6.50
  -5   8  -1  217.78    6.80
  -5   8  -1  214.98    5.60
  -5   8  -1  213.68    7.00
   5  -8   1  207.98    6.40
  -6   8  -1  312.77    7.80
  -6   8  -1  310.17    9.30
  -6   8  -1  299.87    8.90
  -6   8  -1  294.37    8.70
  -7   8  -1   57.89    3.30
  -7   8  -1   59.79    2.30
  -7   8  -1   57.09    2.60
  -7   8  -1   57.79    3.10
  -8   8  -1  191.68    6.10
  -8   8  -1  187.88    5.80
  -8   8  -1  193.48    6.80
  -8   8  -1  194.98    5.60
  -9   8  -1   11.70    1.60
  -9   8  -1   12.30    1.40
  -9   8  -1   12.00    1.50
  -9   8  -1    9.30    1.80
 -10   8  -1   79.69    3.60
 -10   8  -1   76.69    3.40
 -10   8  -1   78.49    3.10
 -10   8  -1   84.29    4.30
 -11   8  -1   39.90    2.40
 -11   8  -1   39.60    2.50
 -11   8  -1   42.10    3.00
 -12   8  -1    1.60    1.10
 -12   8  -1    1.00    0.90
 -12   8  -1    1.20    0.80
 -13   8  -1    1.10    0.60
  13  -8   1    0.50    0.60
  -9  -7   1   37.70    1.80
  -8  -7   1   33.20    2.00
  -7  -7   1  102.39    3.80
  -6  -7   1   61.49    2.90
  -5  -7   1   45.00    2.60
   4   7  -1  402.66   11.00
  -4  -7   1  385.06   11.70
   3   7  -1  159.48    6.20
   3   7  -1  170.48    5.00
  -3  -7   1  163.58    5.80
   2   7  -1  394.26   11.40
   2   7  -1  391.56   11.60
   2   7  -1  385.86   10.00
  -2  -7   1  403.36   11.00
  -2  -7   1  379.36   11.00
  -2  -7   1  380.56   10.80
   1   7  -1  235.88    7.30
   1   7  -1  226.38    7.10
   1   7  -1  243.78    7.80
   1   7  -1  241.38    6.20
  -1  -7   1  229.38    7.10
  -1  -7   1  244.48    7.10
   0   7  -1   50.59    2.40
   0   7  -1   50.49    2.80
   0   7  -1   49.00    1.70
   0   7  -1   50.39    2.50
   0  -7   1   47.10    2.30
   0  -7   1   51.29    2.30
  -1   7  -1  149.39    3.90
  -1   7  -1  147.39    5.20
  -1   7  -1  150.08    4.60
  -1   7  -1  147.99    5.00
   1  -7   1  147.09    4.70
   1  -7   1  150.38    4.70
  -2   7  -1  529.45   14.00
  -2   7  -1  542.25   13.30
  -2   7  -1  503.45   12.60
  -2   7  -1  531.15   13.50
  -2   7  -1  534.15   13.90
   2  -7   1  518.25   13.50
  -3   7  -1   69.09    3.00
  -3   7  -1   72.39    2.90
  -3   7  -1   71.59    2.80
  -3   7  -1   72.89    2.60
  -3   7  -1   68.19    2.00
   3  -7   1   67.59    2.60
  -4   7  -1 1352.06   33.10
  -4   7  -1 1418.16   34.50
  -4   7  -1 1431.46   33.90
  -4   7  -1 1413.56   34.20
   4  -7   1 1408.96   33.90
  -5   7  -1   90.59    2.70
  -5   7  -1   97.79    3.70
  -5   7  -1   94.19    3.70
  -5   7  -1   96.09    3.40
   5  -7   1   93.49    3.30
  -6   7  -1   31.20    1.90
  -6   7  -1   30.80    1.30
  -6   7  -1   29.00    2.20
  -7   7  -1   84.89    3.70
  -7   7  -1   84.89    2.80
  -7   7  -1   80.39    3.90
  -8   7  -1  219.98    6.10
  -8   7  -1  213.28    6.40
  -8   7  -1  210.68    6.60
  -8   7  -1  211.98    7.20
  -8   7  -1  210.78    7.50
  -9   7  -1   47.30    2.30
  -9   7  -1   46.40    3.10
  -9   7  -1   47.20    2.70
  -9   7  -1   47.60    2.60
 -10   7  -1    8.60    1.20
 -10   7  -1    6.80    1.40
 -10   7  -1    6.80    1.70
 -10   7  -1    8.50    1.40
 -11   7  -1   10.30    1.40
 -11   7  -1   10.90    1.30
 -11   7  -1   11.20    1.80
 -11   7  -1   11.50    1.50
 -12   7  -1   20.40    1.70
 -12   7  -1   21.40    1.70
 -13   7  -1   36.70    1.70
  13  -7   1   38.40    1.60
 -10  -6   1    8.10    0.90
  -9  -6   1  174.98    5.30
  -8  -6   1   24.60    2.00
  -7  -6   1  159.88    5.20
  -6  -6   1  145.29    4.90
  -5  -6   1   76.39    3.90
  -5  -6   1   76.59    3.20
   4   6  -1  228.28    7.90
  -4  -6   1  240.48    7.80
   3   6  -1  702.13   18.70
   3   6  -1  701.63   17.10
   3   6  -1  691.73   18.60
  -3  -6   1  682.03   18.00
  -3  -6   1  668.63   18.00
  -3  -6   1  710.53   18.10
   2   6  -1   15.30    1.70
   2   6  -1   14.10    1.50
   2   6  -1   14.30    1.00
   2   6  -1   14.30    1.40
  -2  -6   1   14.90    1.40
  -2  -6   1   14.30    1.40
  -2  -6   1   14.70    1.40
   1   6  -1  723.83   18.40
   1   6  -1  708.33   17.80
   1   6  -1  678.53   17.90
   1   6  -1  711.43   16.90
  -1  -6   1  713.93   17.70
  -1  -6   1  680.13   17.70
   0   6  -1  338.07    8.60
   0   6  -1  355.76    9.90
   0   6  -1  358.96    9.50
   0   6  -1  361.86    9.70
   0  -6   1  353.66    9.40
   0  -6   1  357.16    9.40
  -1   6  -1  825.22   21.10
  -1   6  -1  854.71   21.30
  -1   6  -1  858.31   20.70
  -1   6  -1  840.82   20.80
   1  -6   1  852.71   20.70
  -2   6  -1  445.26   11.20
  -2   6  -1  445.86   11.80
  -2   6  -1  445.16   11.80
  -2   6  -1  451.55   11.50
   2  -6   1  446.86   11.30
  -3   6  -1  189.78    5.60
  -3   6  -1  195.08    5.30
  -3   6  -1  194.78    5.90
  -3   6  -1  191.28    5.60
   3  -6   1  197.78    5.30
  -4   6  -1   61.69    2.30
  -4   6  -1   56.59    1.70
  -4   6  -1   60.99    2.60
  -4   6  -1   62.19    2.50
   4  -6   1   61.89    2.20
  -5   6  -1   12.00    1.20
  -5   6  -1   10.80    1.00
  -5   6  -1   13.00    1.30
  -5   6  -1   11.40    0.70
  -6   6  -1    3.80    0.60
  -6   6  -1    3.80    0.80
  -6   6  -1    4.10    1.00
  -7   6  -1   90.69    3.80
  -7   6  -1   89.69    4.00
  -7   6  -1   90.59    3.80
  -7   6  -1   93.19    3.00
  -8   6  -1  383.76   11.50
  -8   6  -1  383.26   11.10
  -8   6  -1  376.46   10.20
  -8   6  -1  371.76   10.50
  -8   6  -1  387.06   10.00
  -9   6  -1   37.60    2.90
  -9   6  -1   39.60    2.50
  -9   6  -1   39.20    2.50
  -9   6  -1   39.50    2.10
 -10   6  -1  462.05   12.40
 -10   6  -1  466.35   13.30
 -10   6  -1  468.15   12.50
 -10   6  -1  456.35   12.20
 -11   6  -1   62.79    3.00
 -11   6  -1   57.79    3.30
 -11   6  -1   62.09    2.90
 -11   6  -1   56.59    2.60
 -12   6  -1   27.50    1.90
 -12   6  -1   27.70    1.90
 -13   6  -1   16.80    1.20
  13  -6   1   15.30    1.10
 -10  -5   1   10.00    1.10
  -9  -5   1    7.10    1.20
  -8  -5   1   33.50    2.20
  -7  -5   1  171.28    5.50
   6   5  -1  100.59    4.30
  -6  -5   1   97.79    3.70
  -6  -5   1  102.09    4.50
   5   5  -1    7.50    1.30
  -5  -5   1    7.50    1.40
   4   5  -1  814.12   20.10
   4   5  -1  755.02   20.60
  -4  -5   1  797.52   20.60
   3   5  -1  790.72   20.40
   3   5  -1  805.12   19.60
   3   5  -1  769.62   20.30
   3   5  -1  770.42   19.10
  -3  -5   1  781.22   19.90
  -3  -5   1  788.02   19.90
  -3  -5   1  770.32   19.60
   2   5  -1  188.28    5.00
   2   5  -1  185.98    5.60
   2   5  -1  186.58    5.30
   2   5  -1  186.38    6.10
   2   5  -1  185.88    6.00
  -2  -5   1  192.48    5.70
  -2  -5   1  185.08    5.60
  -2  -5   1  180.58    5.60
   1   5  -1  677.13   17.00
   1   5  -1  666.83   16.30
   1   5  -1  677.63   17.30
   1   5  -1  685.43   16.90
   1   5  -1  662.73   16.10
  -1  -5   1  673.43   16.80
  -1  -5   1  660.03   16.70
   0   5  -1   87.19    2.50
   0   5  -1  101.69    3.50
   0   5  -1   94.19    3.20
   0   5  -1   90.79    3.00
   0  -5   1   96.39    3.10
   0  -5   1   96.79    3.00
  -1   5  -1 1199.38   27.60
  -1   5  -1 1123.79   28.00
  -1   5  -1 1146.29   28.00
  -1   5  -1 1084.19   27.90
  -1   5  -1 1156.58   27.70
   1  -5   1 1208.48   27.60
  -2   5  -1   19.50    1.20
  -2   5  -1   21.00    1.00
  -2   5  -1   20.10    1.10
  -2   5  -1   19.10    1.30
  -2   5  -1   17.90    1.00
   2  -5   1   21.30    0.90
   2  -5   1   20.70    0.90
  -3   5  -1   50.59    1.70
  -3   5  -1   43.80    1.80
  -3   5  -1   48.10    2.00
  -3   5  -1   49.99    2.10
   3  -5   1   49.40    1.70
   3  -5   1   44.20    1.60
  -4   5  -1  129.19    3.80
  -4   5  -1  129.19    4.10
  -4   5  -1  127.99    4.10
   4  -5   1  129.69    3.70
   4  -5   1  127.19    3.80
  -5   5  -1    7.20    1.00
  -5   5  -1    9.80    1.00
  -5   5  -1    8.60    1.10
  -5   5  -1    7.40    0.60
   5  -5   1    8.10    0.90
  -6   5  -1   77.99    2.50
  -6   5  -1   80.79    3.40
  -6   5  -1   81.49    3.30
   6  -5   1   78.89    3.10
  -7   5  -1    1.60    0.80
  -7   5  -1    2.40    1.00
  -7   5  -1    1.90    0.60
   7  -5   1    6.20    1.30
  -8   5  -1  464.25   13.30
  -8   5  -1  489.05   12.00
  -8   5  -1  455.85   12.10
  -8   5  -1  443.56   12.80
  -8   5  -1  447.06   12.30
  -9   5  -1   56.09    2.80
  -9   5  -1   57.39    2.60
  -9   5  -1   53.39    2.70
  -9   5  -1   50.39    3.10
 -10   5  -1   75.89    3.40
 -10   5  -1   76.69    3.40
 -10   5  -1   81.19    3.20
 -10   5  -1   75.19    3.90
 -11   5  -1   41.70    2.50
 -11   5  -1   40.80    2.50
 -11   5  -1   38.00    2.10
 -12   5  -1   28.50    1.90
 -12   5  -1   24.50    1.80
 -13   5  -1    6.10    0.80
  13  -5   1    7.00    0.70
 -11  -4   1   55.09    2.10
 -10  -4   1   35.90    2.00
  -9  -4   1   29.00    2.10
  -8  -4   1   81.79    3.40
  -7  -4   1   31.80    2.10
   6   4  -1    7.40    1.30
  -6  -4   1    4.80    1.20
   5   4  -1   19.10    1.70
  -5  -4   1   17.20    1.80
   4   4  -1   13.30    1.30
   4   4  -1   15.00    1.40
   4   4  -1   14.40    1.50
  -4  -4   1   15.40    1.60
   3   4  -1  262.57    7.00
   3   4  -1  244.28    7.50
   3   4  -1  251.77    6.60
   3   4  -1  260.77    7.70
  -3  -4   1  257.07    7.30
  -3  -4   1  240.98    7.00
  -3  -4   1  246.28    7.20
   2   4  -1   23.80    1.60
   2   4  -1   26.00    1.60
   2   4  -1   24.70    1.50
   2   4  -1   25.50    1.30
  -2  -4   1   29.00    1.50
  -2  -4   1   26.90    1.40
  -2  -4   1   26.90    1.50
   1   4  -1 1249.28   30.90
   1   4  -1 1265.97   30.70
   1   4  -1 1243.18   30.60
  -1  -4   1 1310.37   30.50
  -1  -4   1 1284.47   30.50
   0   4  -1   54.89    2.20
   0   4  -1   60.99    2.30
   0   4  -1   62.69    2.00
   0   4  -1   59.69    2.20
   0   4  -1   57.39    1.70
   0  -4   1   63.39    2.00
   0  -4   1   59.59    2.10
  -1   4  -1  320.37    8.40
  -1   4  -1  301.87    8.20
  -1   4  -1  310.17    7.80
  -1   4  -1  328.57    8.20
  -1   4  -1  317.57    8.40
  -1   4  -1  330.37    7.90
   1  -4   1  339.67    7.80
  -2   4  -1  392.66   10.00
  -2   4  -1  401.16    9.90
  -2   4  -1  377.36    9.70
  -2   4  -1  407.16    9.60
  -2   4  -1  399.76    9.90
   2  -4   1  398.76    9.40
   2  -4   1  381.46    9.60
  -3   4  -1    9.50    0.70
  -3   4  -1    8.70    0.80
  -3   4  -1    9.10    0.60
  -3   4  -1    9.00    0.80
   3  -4   1    9.70    0.70
   3  -4   1    7.80    0.50
   3  -4   1    9.90    0.60
  -4   4  -1  229.98    6.30
  -4   4  -1  227.58    6.10
  -4   4  -1  221.68    6.20
   4  -4   1  219.88    6.10
  -5   4  -1  323.77    8.70
  -5   4  -1  318.67    8.90
  -5   4  -1  319.37    8.00
   5  -4   1  322.87    8.70
  -6   4  -1   46.80    1.80
  -6   4  -1   49.40    2.50
  -6   4  -1   48.20    2.50
   6  -4   1   48.30    2.30
  -7   4  -1   32.60    2.20
  -7   4  -1   30.90    2.20
  -7   4  -1   30.00    1.60
   7  -4   1   30.20    2.00
  -8   4  -1  425.66   11.50
  -8   4  -1  401.66   12.00
  -8   4  -1  413.56   11.10
  -8   4  -1  405.46   11.60
  -8   4  -1  429.96   10.80
   8  -4   1  403.86   11.70
  -9   4  -1    5.70    1.20
  -9   4  -1    5.10    1.00
  -9   4  -1    7.70    1.40
  -9   4  -1    4.60    1.10
 -10   4  -1  267.77    7.80
 -10   4  -1  275.87    8.00
 -10   4  -1  288.97    8.10
 -11   4  -1    1.10    1.00
 -11   4  -1    1.90    1.00
 -12   4  -1    2.00    0.90
 -12   4  -1    0.70    0.80
 -13   4  -1   10.70    1.00
  13  -4   1    9.10    1.10
 -11  -3   1    1.00    0.70
 -10  -3   1   73.19    3.00
  -9  -3   1   66.99    3.00
  -8  -3   1    7.40    1.20
   7   3  -1    7.40    1.40
  -7  -3   1    6.60    1.30
  -7  -3   1    8.50    1.20
   6   3  -1    7.20    1.30
  -6  -3   1    7.60    1.30
   5   3  -1  623.94   16.10
  -5  -3   1  604.34   16.40
   4   3  -1  603.34   16.00
   4   3  -1  642.24   15.90
  -4  -3   1  624.84   16.30
   3   3  -1 1287.17   31.60
   3   3  -1 1347.27   32.10
   3   3  -1 1316.97   32.30
  -3  -3   1 1296.77   31.80
  -3  -3   1 1310.97   31.60
  -3  -3   1 1333.07   32.00
   2   3  -1  114.99    3.80
   2   3  -1  117.29    3.80
   2   3  -1  117.19    3.40
  -2  -3   1  121.29    3.70
  -2  -3   1  119.99    3.60
  -2  -3   1  115.49    3.50
  -2  -3   1  109.99    3.70
   1   3  -1   65.19    2.20
   1   3  -1   63.39    1.90
   1   3  -1   62.49    2.20
   1   3  -1   62.29    2.30
  -1  -3   1   59.89    2.10
  -1  -3   1   66.49    2.10
  -1  -3   1   63.29    2.10
   0   3  -1  916.71   21.50
   0   3  -1  899.91   21.60
   0   3  -1  900.11   21.20
   0   3  -1  916.81   21.40
   0   3  -1  912.31   21.60
   0  -3   1  848.12   21.30
  -1   3  -1    6.10    0.60
  -1   3  -1    8.10    0.60
  -1   3  -1    8.90    0.40
  -1   3  -1    5.00    0.40
  -1   3  -1    5.40    0.60
  -1   3  -1    6.50    0.40
  -2   3  -1  157.88    4.10
  -2   3  -1  166.08    4.30
  -2   3  -1  168.78    4.10
  -2   3  -1  160.18    4.30
  -2   3  -1  162.38    4.40
   2  -3   1  157.78    4.20
  -3   3  -1   45.50    1.60
  -3   3  -1   41.70    1.30
  -3   3  -1   39.70    1.50
  -3   3  -1   41.80    1.60
  -3   3  -1   42.60    1.60
   3  -3   1   44.80    1.40
   3  -3   1   41.70    1.60
   3  -3   1   44.80    1.40
  -4   3  -1   50.29    1.80
  -4   3  -1   49.60    2.10
  -4   3  -1   52.09    2.00
   4  -3   1   50.29    2.00
  -5   3  -1  245.48    6.30
  -5   3  -1  240.08    7.00
  -5   3  -1  250.47    7.00
   5  -3   1  240.58    6.90
  -6   3  -1   49.60    2.50
  -6   3  -1   50.79    2.50
  -6   3  -1   48.90    1.90
   6  -3   1   49.30    2.40
  -7   3  -1  517.95   12.70
  -7   3  -1  515.75   13.80
  -7   3  -1  477.65   13.90
   7  -3   1  491.15   13.50
  -8   3  -1   88.29    3.40
  -8   3  -1   73.49    2.90
  -8   3  -1   66.29    3.00
  -8   3  -1   74.19    3.70
   8  -3   1   67.69    3.40
  -9   3  -1  671.93   16.90
  -9   3  -1  692.93   16.80
  -9   3  -1  647.94   16.90
  -9   3  -1  632.54   16.20
 -10   3  -1   44.60    2.30
 -10   3  -1   46.60    2.60
 -10   3  -1   45.70    2.50
 -11   3  -1   44.10    2.40
 -11   3  -1   44.10    2.40
 -12   3  -1    4.10    0.90
 -12   3  -1    5.30    1.00
 -13   3  -1   17.90    1.10
 -12  -2   1   19.80    1.20
 -11  -2   1    7.40    1.10
 -10  -2   1  108.79    3.90
  -9  -2   1    1.30    0.90
  -8  -2   1    9.80    1.30
   7   2  -1  402.46   11.60
  -7  -2   1  404.46   11.60
   6   2  -1   73.59    3.30
  -6  -2   1   66.99    3.20
   5   2  -1  121.19    4.20
  -5  -2   1  112.69    4.30
   4   2  -1   55.59    2.30
   4   2  -1   58.59    2.40
   4   2  -1   54.49    2.70
  -4  -2   1   54.79    2.40
  -4  -2   1   55.89    2.20
  -4  -2   1   58.39    2.70
  -4  -2   1   62.39    3.60
   3   2  -1    2.30    0.50
   3   2  -1    2.20    0.60
   3   2  -1    2.30    0.50
  -3  -2   1    2.20    0.60
  -3  -2   1    3.40    0.60
  -3  -2   1    3.80    0.60
   2   2  -1  290.67    7.40
   2   2  -1  294.67    7.60
   2   2  -1  291.47    7.90
  -2  -2   1  303.37    7.50
  -2  -2   1  285.27    7.70
  -2  -2   1  288.17    7.50
  -2  -2   1  289.87    7.70
   1   2  -1  554.14   13.00
   1   2  -1  543.65   13.20
   1   2  -1  559.54   13.30
   1   2  -1  513.15   13.20
   1   2  -1  535.75   13.30
  -1  -2   1  564.94   13.10
  -1  -2   1  512.65   13.10
  -1  -2   1  542.25   13.10
   0   2  -1  129.69    3.50
   0   2  -1  130.59    3.30
   0   2  -1  130.19    3.40
   0   2  -1  129.79    3.60
   0   2  -1  125.49    3.40
   0  -2   1  139.29    3.20
  -1   2  -1  140.79    3.70
  -1   2  -1  140.89    3.60
  -1   2  -1  139.89    3.70
  -2   2  -1  152.28    3.90
  -2   2  -1  146.89    4.00
  -2   2  -1  147.79    3.80
  -2   2  -1  151.38    3.90
  -2   2  -1  157.38    3.90
   2  -2   1  149.39    4.00
  -3   2  -1   36.50    1.50
  -3   2  -1   38.20    1.60
  -3   2  -1   49.30    1.50
  -3   2  -1   39.00    1.60
   3  -2   1   38.60    1.60
   3  -2   1   47.10    1.50
  -4   2  -1   11.70    0.70
  -4   2  -1   13.00    1.00
  -4   2  -1   14.90    1.10
   4  -2   1   11.80    1.00
  -5   2  -1  769.32   19.30
  -5   2  -1  773.22   19.30
  -5   2  -1  740.93   18.50
   5  -2   1  779.52   19.20
  -6   2  -1  101.09    3.80
  -6   2  -1  101.39    4.00
  -6   2  -1   98.99    3.10
   6  -2   1   99.49    3.80
  -7   2  -1  123.69    5.00
  -7   2  -1  130.19    4.00
  -7   2  -1  127.49    4.80
   7  -2   1  130.59    4.80
  -8   2  -1  679.73   18.70
  -8   2  -1  688.53   18.30
  -8   2  -1  673.33   17.80
  -8   2  -1  714.63   17.20
  -8   2  -1  672.13   17.40
   8  -2   1  673.83   18.20
  -9   2  -1   62.69    2.30
  -9   2  -1   61.19    2.80
  -9   2  -1   62.79    2.70
  -9   2  -1   62.29    2.80
 -10   2  -1   22.70    1.90
 -10   2  -1   25.50    2.00
 -11   2  -1   38.30    2.20
 -11   2  -1   42.80    2.30
 -12   2  -1    0.80    0.70
 -12  -1   1  131.59    3.90
 -11  -1   1    0.90    0.80
 -10  -1   1    2.30    1.00
  -9  -1   1   76.09    3.20
   8   1  -1   30.20    2.50
  -8  -1   1   28.60    2.40
  -8  -1   1   35.10    2.10
   7   1  -1  545.15   15.10
  -7  -1   1  559.64   15.10
   6   1  -1  433.36   11.80
  -6  -1   1  426.06   11.90
   5   1  -1  373.96    9.90
  -5  -1   1  357.96   10.00
  -5  -1   1  358.26   10.40
  -5  -1   1  352.36    9.40
   4   1  -1  983.60   24.20
   4   1  -1 1008.60   25.10
   4   1  -1 1059.09   24.50
  -4  -1   1 1031.90   24.90
  -4  -1   1  932.71   24.40
  -4  -1   1 1036.70   24.90
  -4  -1   1  967.80   24.20
   3   1  -1   96.69    2.90
   3   1  -1   98.59    3.00
   3   1  -1   91.69    3.30
  -3  -1   1   94.39    3.20
  -3  -1   1   98.19    3.30
  -3  -1   1   93.89    3.00
  -3  -1   1   95.49    3.00
   2   1  -1   29.50    1.20
   2   1  -1   29.50    1.20
   2   1  -1   32.70    1.50
  -2  -1   1   30.70    1.40
  -2  -1   1   33.30    1.30
  -2  -1   1   28.90    1.30
  -2  -1   1   30.60    1.20
   1   1  -1  596.44   14.70
   1   1  -1  575.14   14.50
   1   1  -1  595.24   14.60
   1   1  -1  614.84   14.60
  -1  -1   1  588.74   14.60
  -1  -1   1  655.53   14.50
  -1  -1   1  617.04   14.60
  -1  -1   1  624.94   14.60
   0   1  -1   85.29    2.20
   0   1  -1   89.09    2.10
   0   1  -1   88.19    2.20
   0   1  -1   91.19    2.30
   0   1  -1   88.79    2.40
  -1   1  -1  809.42   18.90
  -1   1  -1  798.02   18.80
  -1   1  -1  819.52   18.80
  -1   1  -1  795.72   18.90
  -1   1  -1  706.03   18.70
   1  -1   1  836.22   18.80
   1  -1   1  801.42   18.80
  -2   1  -1  361.76    8.70
  -2   1  -1  389.76    9.00
  -2   1  -1  346.07    8.90
  -2   1  -1  349.57    8.90
   2  -1   1  364.06    9.00
   2  -1   1  357.36    8.70
   2  -1   1  367.96    8.80
   2  -1   1  365.76    8.70
  -3   1  -1   15.70    1.00
  -3   1  -1   16.50    0.70
  -3   1  -1   15.80    1.00
  -3   1  -1   15.50    1.00
   3  -1   1   15.80    1.00
  -4   1  -1  917.81   22.70
  -4   1  -1  930.31   22.80
  -4   1  -1  896.41   21.90
   4  -1   1  951.00   22.70
  -5   1  -1   16.30    1.40
  -5   1  -1   18.30    1.40
  -5   1  -1   10.80    0.90
   5  -1   1   10.50    1.20
  -6   1  -1  749.13   19.50
  -6   1  -1  745.33   18.30
  -6   1  -1  734.33   19.10
   6  -1   1  751.12   19.10
  -7   1  -1  675.23   19.00
  -7   1  -1  722.53   18.60
  -7   1  -1  724.53   17.50
   7  -1   1  691.13   18.40
  -8   1  -1  199.58    6.10
  -8   1  -1  194.18    6.80
  -8   1  -1  208.48    5.90
  -8   1  -1  196.18    5.90
   8  -1   1  206.38    7.00
  -9   1  -1  326.07    8.90
  -9   1  -1  328.37    9.10
  -9   1  -1  325.57    8.40
 -10   1  -1    4.50    1.10
 -10   1  -1    5.90    1.20
 -11   1  -1   24.00    1.80
 -12   1  -1    0.80    0.70
 -12   0   1   33.90    1.80
 -11   0   1  268.87    7.50
 -10   0   1   28.30    2.10
  -9   0   1    1.40    0.90
   8   0  -1   62.79    3.40
  -8   0   1   59.99    2.70
  -8   0   1   60.29    3.30
   7   0  -1   26.00    2.10
  -7   0   1   26.00    2.10
   6   0  -1 1987.70   48.30
  -6   0   1 1947.71   47.50
  -6   0   1 2067.69   48.60
   5   0  -1  586.74   14.70
  -5   0   1  579.24   15.10
  -5   0   1  580.24   14.90
  -5   0   1  565.44   14.40
  -5   0   1  540.25   14.00
   4   0  -1  188.58    4.90
   4   0  -1  179.88    5.70
   4   0  -1  196.38    5.30
  -4   0   1  200.78    5.70
  -4   0   1  186.58    5.20
  -4   0   1  192.48    5.60
  -4   0   1  154.28    5.00
   3   0  -1  262.07    6.80
   3   0  -1  264.97    6.60
   3   0  -1  263.57    7.30
  -3   0   1  265.57    7.00
  -3   0   1  258.57    6.90
  -3   0   1  264.37    6.80
  -3   0   1  261.37    7.20
   2   0  -1  903.31   21.50
   2   0  -1  898.31   21.50
   2   0  -1  914.21   21.90
  -2   0   1  904.61   21.70
  -2   0   1  922.21   21.60
  -2   0   1  891.31   21.90
   1   0  -1  691.73   16.70
   1   0  -1  764.22   17.10
   1   0  -1  761.92   16.90
  -1   0   1  689.83   16.90
  -1   0   1  617.94   16.80
  -1   0   1  748.93   17.00
  -1   0   1  707.63   16.90
  -1   0   1  683.43   16.90
   0   0  -1   33.20    1.00
   0   0  -1   34.40    0.90
   0   0  -1   35.90    1.00
   0   0   1   37.10    1.00
   0   0   1   35.60    1.10
  -1   0  -1  630.24   14.90
  -1   0  -1  556.34   14.80
  -1   0  -1  613.64   14.70
  -1   0  -1  646.74   14.90
   1   0   1  619.24   14.90
   1   0   1  638.54   14.80
   1   0   1  627.64   14.90
   1   0   1  644.64   14.80
  -2   0  -1   14.60    0.90
  -2   0  -1   14.40    0.90
  -2   0  -1   14.10    0.90
  -2   0  -1   14.70    0.70
   2   0   1   13.50    0.70
   2   0   1   13.40    0.90
   2   0   1   13.60    0.80
  -3   0  -1 3076.99   71.99
  -3   0  -1 3173.78   71.69
  -3   0  -1 3061.59   70.89
  -3   0  -1 3172.18   71.59
   3   0   1 3023.00   71.69
   3   0   1 2679.33   71.39
  -4   0  -1  264.97    7.60
  -4   0  -1  269.77    7.40
   4   0   1  273.07    7.30
   4   0   1  251.37    6.70
  -5   0  -1    1.50    0.70
  -5   0  -1    2.20    0.70
  -5   0  -1    1.70    0.50
   5   0   1    1.90    0.70
  -6   0  -1  588.44   16.10
  -6   0  -1  595.34   15.60
  -6   0  -1  580.04   14.80
   6   0   1  609.94   15.70
  -7   0  -1  530.75   14.30
  -7   0  -1  524.05   13.30
   7   0   1  515.15   14.30
  -8   0  -1   53.09    3.10
  -8   0  -1   53.39    2.60
  -8   0  -1   50.29    2.00
   8   0   1   49.60    3.00
  -9   0  -1   84.49    2.80
  -9   0  -1   86.89    3.40
 -10   0  -1    9.00    1.30
 -11   0  -1  109.29    3.70
 -12   0  -1   15.00    1.20
 -12   1   1   29.10    1.80
 -11   1   1    7.20    1.20
 -10   1   1    2.80    1.10
  -9   1   1   25.00    1.90
  -9   1   1   22.90    1.90
   8  -1  -1   27.30    2.40
  -8   1   1   31.10    2.10
  -8   1   1   30.50    2.40
   7  -1  -1  108.69    4.20
  -7   1   1  100.99    3.40
  -7   1   1  111.39    4.30
   6  -1  -1  299.07    8.60
  -6   1   1  295.47    8.90
  -6   1   1  302.37    8.80
  -5   1   1    3.70    0.90
  -5   1   1    3.10    0.50
  -5   1   1    5.00    0.70
  -5   1   1    2.60    0.70
   4  -1  -1  885.51   21.00
   4  -1  -1  828.82   21.40
  -4   1   1  870.81   21.20
  -4   1   1  860.71   20.90
  -4   1   1  846.92   21.30
   3  -1  -1  747.73   17.60
   3  -1  -1  732.83   17.90
  -3   1   1  744.93   17.60
  -3   1   1  732.03   17.90
  -3   1   1  665.33   17.50
  -3   1   1  705.33   17.20
  -3   1   1  723.43   17.10
  -3   1   1  762.52   17.80
   2  -1  -1   11.50    0.70
   2  -1  -1   13.00    0.60
  -2   1   1   11.30    0.60
  -2   1   1   10.60    0.50
  -2   1   1   11.00    0.70
  -2   1   1   11.30    0.50
  -2   1   1   11.00    0.70
  -2   1   1   11.40    0.70
   1  -1  -1  845.62   20.10
   1  -1  -1  859.51   20.10
   1  -1  -1  766.72   20.00
   1  -1  -1  895.61   20.60
  -1   1   1  787.82   20.00
  -1   1   1  821.92   19.90
  -1   1   1  954.50   20.30
  -1   1   1  797.12   20.20
  -1   1   1  897.51   20.60
   0  -1  -1 2040.80   45.40
   0  -1  -1 2008.90   44.70
   0   1   1 1766.82   44.40
   0   1   1 1615.44   43.80
  -1  -1  -1  779.92   19.70
  -1  -1  -1  856.41   19.70
  -1  -1  -1  834.32   20.00
  -1  -1  -1  724.03   19.40
   1   1   1  874.01   19.80
   1   1   1  872.51   19.50
   1   1   1  868.71   19.90
   1   1   1  808.42   19.70
  -2  -1  -1  441.36   10.60
  -2  -1  -1  432.06   10.70
  -2  -1  -1  415.66   10.10
   2   1   1  414.56   10.60
   2   1   1  415.96   10.80
  -3  -1  -1  634.74   16.00
  -3  -1  -1  611.04   15.10
  -3  -1  -1  626.64   15.50
  -3  -1  -1  662.23   15.90
   3   1   1  607.04   15.50
   3   1   1  612.04   15.90
   3   1   1  656.13   15.70
  -4  -1  -1  297.37    8.60
  -4  -1  -1  309.27    8.40
   4   1   1  296.17    7.90
   4   1   1  309.47    8.30
  -5  -1  -1 1212.18   29.10
  -5  -1  -1 1199.48   30.50
  -5  -1  -1 1217.08   29.90
   5   1   1 1230.48   29.90
  -6  -1  -1   47.90    2.60
  -6  -1  -1   47.60    2.00
   6   1   1   47.90    2.60
  -7  -1  -1  296.97    9.00
   7   1   1  298.27    9.10
  -8  -1  -1   38.40    3.30
  -8  -1  -1   32.20    1.50
  -8  -1  -1   33.40    2.10
  -9  -1  -1    3.20    1.00
 -10  -1  -1   20.50    1.80
 -11  -1  -1    3.90    0.90
 -12  -1  -1   36.30    1.60
 -13   2   1    5.30    0.80
 -12   2   1   21.50    1.70
 -11   2   1  106.79    3.80
 -11   2   1  112.19    4.00
 -10   2   1   16.30    1.70
 -10   2   1   13.40    1.50
  -9   2   1   68.49    3.00
  -9   2   1   69.89    3.00
   8  -2  -1  161.88    5.90
  -8   2   1  169.78    6.00
  -8   2   1  159.68    4.90
   7  -2  -1  314.87    9.20
  -7   2   1  316.27    8.40
  -7   2   1  311.07    9.70
  -7   2   1  331.77    9.60
   6  -2  -1   16.20    1.40
  -6   2   1   15.20    1.00
  -6   2   1   15.70    1.60
  -6   2   1   16.70    1.50
   5  -2  -1  244.98    6.80
  -5   2   1  232.18    6.60
  -5   2   1  251.57    6.30
  -5   2   1  245.18    7.20
  -5   2   1  247.28    7.10
   4  -2  -1    2.60    0.50
  -4   2   1    3.90    0.60
  -4   2   1    2.30    0.50
  -4   2   1    3.40    0.70
   3  -2  -1 3123.39   75.19
   3  -2  -1 3138.19   75.59
  -3   2   1 3179.08   75.99
  -3   2   1 3481.65   77.19
  -3   2   1 3040.80   75.49
  -3   2   1 3100.09   75.19
   2  -2  -1  526.75   12.50
   2  -2  -1  530.35   12.70
   2  -2  -1  505.35   12.80
  -2   2   1  535.95   12.70
  -2   2   1  532.95   12.80
  -2   2   1  497.05   12.80
  -2   2   1  536.95   12.60
  -2   2   1  520.75   12.70
  -2   2   1  522.55   12.50
   1  -2  -1  994.20   23.20
  -1   2   1 1034.90   23.00
  -1   2   1 1002.10   23.40
  -1   2   1 1011.20   23.70
  -1   2   1  982.20   23.20
  -1   2   1  830.32   23.20
   0  -2  -1   23.90    1.10
   0   2   1   22.40    0.90
   0   2   1   21.80    0.80
   0   2   1   22.80    0.80
   0   2   1   23.80    0.90
   0   2   1   27.90    1.20
  -1  -2  -1  523.75   13.00
  -1  -2  -1  548.65   13.20
   1   2   1  541.05   13.30
   1   2   1  516.65   13.20
   1   2   1  543.95   13.00
   1   2   1  540.55   12.90
  -2  -2  -1 2004.50   46.90
  -2  -2  -1 2016.10   46.50
  -2  -2  -1 2062.79   46.50
  -2  -2  -1 1977.10   46.00
   2   2   1 2081.79   46.10
   2   2   1 1692.73   46.50
   2   2   1 2007.40   46.80
   2   2   1 1822.72   46.30
  -3  -2  -1  675.63   17.90
  -3  -2  -1  728.03   17.70
  -3  -2  -1  691.23   17.00
  -3  -2  -1  684.03   17.50
   3   2   1  737.33   18.00
   3   2   1  704.93   17.50
   3   2   1  725.03   17.60
  -4  -2  -1  775.92   20.10
  -4  -2  -1  815.52   19.80
   4   2   1  752.02   19.40
   4   2   1  789.32   19.60
  -5  -2  -1  400.86   10.40
  -5  -2  -1  413.16   11.30
   5   2   1  415.86   11.20
  -6  -2  -1    7.20    1.30
   6   2   1    7.90    1.30
  -7  -2  -1  269.37    7.60
  -7  -2  -1  263.77    8.30
   7   2   1  271.97    8.50
  -8  -2  -1   28.60    1.40
  -8  -2  -1   27.90    2.00
  -9  -2  -1  102.69    3.80
 -10  -2  -1    7.20    1.10
 -11  -2  -1   31.10    1.70
 -13   3   1    6.40    0.80
  12  -3  -1   12.90    1.30
 -12   3   1   16.60    1.60
 -11   3   1   20.40    1.90
 -11   3   1   19.70    1.90
 -10   3   1  203.58    6.30
 -10   3   1  207.18    6.30
  -9   3   1   41.80    2.30
  -9   3   1   34.80    2.20
  -9   3   1   38.20    2.10
   8  -3  -1  149.59    5.50
  -8   3   1  157.98    4.70
  -8   3   1  150.28    5.70
   7  -3  -1  183.58    6.00
  -7   3   1  186.18    6.50
  -7   3   1  186.88    6.40
  -7   3   1  190.78    5.30
   6  -3  -1    6.00    1.00
  -6   3   1    5.00    1.00
  -6   3   1    4.60    0.90
  -6   3   1    6.40    0.70
   5  -3  -1   62.19    2.40
  -5   3   1   62.99    2.60
  -5   3   1   62.39    2.70
  -5   3   1   59.19    2.00
  -5   3   1   60.99    2.40
   4  -3  -1  372.46    9.70
  -4   3   1  398.16   10.10
  -4   3   1  377.76   10.00
  -4   3   1  403.56   10.10
   3  -3  -1  163.38    4.20
  -3   3   1  165.98    4.50
  -3   3   1  160.68    4.20
  -3   3   1  154.58    4.60
  -3   3   1  169.48    4.50
  -3   3   1  163.78    4.60
   2  -3  -1  251.37    6.90
   2  -3  -1  283.67    6.90
   2  -3  -1  269.87    6.40
  -2   3   1  260.37    6.90
  -2   3   1  273.27    6.80
  -2   3   1  254.97    6.90
  -2   3   1  278.37    6.80
   1  -3  -1 8308.67  197.28
   1  -3  -1 7342.37  196.38
  -1   3   1 8053.19  196.78
  -1   3   1 7933.51  197.78
  -1   3   1 8742.23  195.88
  -1   3   1 8404.86  197.18
  -1   3   1 8511.85  231.98
  -1   3   1 9264.17  211.68
   0  -3  -1 2003.10   50.29
   0   3   1 2096.39   51.49
   0   3   1 2297.67   50.99
   0   3   1 2293.17   51.09
   0   3   1 1936.51   49.70
   0   3   1 2117.39   49.90
  -1  -3  -1 1006.90   25.40
  -1  -3  -1 1035.50   25.20
  -1  -3  -1 1029.30   24.90
   1   3   1 1056.99   25.40
   1   3   1 1068.19   24.90
   1   3   1 1053.69   25.20
  -2  -3  -1 1362.46   32.20
  -2  -3  -1 1303.47   32.30
  -2  -3  -1 1297.17   32.70
   2   3   1 1348.57   32.10
   2   3   1 1344.27   32.60
   2   3   1 1329.17   31.90
   2   3   1 1403.66   32.70
  -3  -3  -1  335.47    9.60
  -3  -3  -1  356.96    9.40
  -3  -3  -1  345.67    8.80
  -3  -3  -1  344.27    9.30
   3   3   1  346.77    9.40
   3   3   1  337.37    9.60
   3   3   1  341.67    9.10
  -4  -3  -1  418.46   11.30
   4   3   1  405.86   11.10
   4   3   1  411.26   11.00
  -5  -3  -1  175.28    5.80
   5   3   1  178.28    5.70
  -6  -3  -1   12.90    1.60
   6   3   1   10.50    1.50
  -7  -3  -1  136.19    4.60
  -7  -3  -1  138.89    5.40
  -7  -3  -1  144.89    3.90
   7   3   1  139.19    5.40
  -8  -3  -1    5.90    1.10
  -9  -3  -1   81.99    3.30
 -10  -3  -1   13.90    1.40
 -11  -3  -1    1.60    0.60
  13  -4  -1    1.60    0.60
 -13   4   1    0.70    0.60
  12  -4  -1    7.40    1.00
 -12   4   1    4.80    1.10
 -11   4   1    8.70    1.30
 -11   4   1    7.20    1.30
 -10   4   1  306.07    8.70
 -10   4   1  304.57    8.70
  -9   4   1  276.57    7.70
  -9   4   1  267.07    7.70
  -9   4   1  262.97    7.80
   8  -4  -1    1.90    0.90
  -8   4   1    1.00    1.00
  -8   4   1    0.70    0.60
  -8   4   1    0.70    0.80
   7  -4  -1  129.69    4.50
  -7   4   1  139.89    5.20
  -7   4   1  126.09    5.00
  -7   4   1  135.29    4.00
   6  -4  -1  153.48    4.80
  -6   4   1  159.78    5.20
  -6   4   1  156.58    4.30
  -6   4   1  152.38    5.30
  -6   4   1  151.78    4.90
   5  -4  -1  183.78    5.20
  -5   4   1  184.08    4.90
  -5   4   1  185.48    5.50
  -5   4   1  186.48    5.70
  -5   4   1  189.38    5.60
   4  -4  -1   45.50    1.60
  -4   4   1   44.80    2.00
  -4   4   1   46.10    1.90
  -4   4   1   47.20    2.00
   3  -4  -1 4421.16  111.89
   3  -4  -1 4885.31  114.59
  -3   4   1 4927.51  114.09
  -3   4   1 4989.50  112.19
  -3   4   1 4295.37  112.79
  -3   4   1 5147.58  115.39
   2  -4  -1 9037.20  219.98
  -2   4   1 9999.00  220.28
  -2   4   1 8791.12  219.98
  -2   4   1 9018.30  220.68
  -2   4   1 9720.13  219.58
  -2   4   1 9020.90  219.88
   1  -4  -1 2061.99   49.90
   1  -4  -1 1870.21   49.50
  -1   4   1 2215.28   49.70
  -1   4   1 2079.69   50.49
  -1   4   1 2193.78   49.50
  -1   4   1 2094.59   49.20
   0  -4  -1   41.90    1.90
   0  -4  -1   42.30    1.60
   0  -4  -1   44.30    1.90
   0   4   1   45.30    1.80
   0   4   1   42.50    1.70
   0   4   1   44.60    1.30
   0   4   1   46.70    2.10
  -1  -4  -1   80.89    3.10
  -1  -4  -1   84.59    2.80
  -1  -4  -1   82.79    3.00
   1   4   1   89.29    2.80
   1   4   1   93.09    3.30
   1   4   1   85.89    2.60
   1   4   1   84.89    3.00
  -2  -4  -1   41.40    2.00
  -2  -4  -1   41.20    1.90
   2   4   1   37.40    1.60
   2   4   1   39.40    2.10
   2   4   1   43.10    1.70
   2   4   1   40.50    2.10
  -3  -4  -1  132.29    4.40
   3   4   1  134.59    4.30
   3   4   1  134.39    4.70
  -4  -4  -1    0.30    0.70
   4   4   1    0.30    0.50
   4   4   1    0.40    0.60
  -5  -4  -1  223.58    7.10
   5   4   1  223.38    6.90
  -6  -4  -1   26.00    2.10
  -6  -4  -1   26.00    1.80
   6   4   1   26.40    2.20
  -7  -4  -1   36.50    2.20
  -8  -4  -1    3.70    1.00
  -9  -4  -1   19.10    1.70
 -10  -4  -1  135.09    4.10
 -11  -4  -1  209.98    5.80
  13  -5  -1   39.00    1.60
 -13   5   1   39.50    1.80
 -12   5   1   -0.10    0.80
 -11   5   1   22.80    2.00
 -11   5   1   17.20    1.80
 -10   5   1    9.40    1.50
 -10   5   1   10.20    1.30
 -10   5   1   10.40    1.50
  -9   5   1  343.27    9.50
  -9   5   1  335.27    9.50
  -9   5   1  343.77    9.30
  -8   5   1   25.30    1.60
  -8   5   1   22.10    2.30
  -7   5   1   16.20    1.10
  -7   5   1   11.70    1.70
  -7   5   1   13.00    1.50
  -6   5   1  153.28    5.20
  -6   5   1  148.39    5.00
  -6   5   1  153.18    4.30
  -6   5   1  150.78    5.00
  -5   5   1  652.23   16.50
  -5   5   1  635.14   15.60
  -5   5   1  650.83   16.50
  -5   5   1  640.14   16.40
   4  -5  -1   80.79    2.80
  -4   5   1   84.49    3.10
  -4   5   1   78.29    2.90
  -4   5   1   80.59    2.80
  -4   5   1   78.79    2.30
   3  -5  -1  521.45   12.90
  -3   5   1  507.95   12.80
  -3   5   1  523.95   12.90
  -3   5   1  492.75   13.10
   2  -5  -1   20.50    1.20
  -2   5   1   21.40    1.40
  -2   5   1   20.90    1.30
  -2   5   1   19.90    1.10
  -2   5   1   18.20    1.10
   1  -5  -1 2253.77   52.09
  -1   5   1 2257.57   51.69
  -1   5   1 2279.57   51.99
  -1   5   1 2233.58   52.89
  -1   5   1 1903.71   52.19
   0  -5  -1   10.70    1.00
   0  -5  -1    9.30    0.80
   0   5   1    8.60    0.90
   0   5   1   15.40    1.40
   0   5   1    8.00    0.90
  -1  -5  -1   30.70    1.50
  -1  -5  -1   29.70    1.70
   1   5   1   29.60    1.30
   1   5   1   30.80    1.90
   1   5   1   30.60    1.20
   1   5   1   30.40    1.50
   1   5   1   30.80    1.70
  -2  -5  -1  131.09    4.20
  -2  -5  -1  132.49    4.40
   2   5   1  126.99    3.70
   2   5   1  122.79    4.00
   2   5   1  130.89    4.60
   2   5   1  122.79    4.50
  -3  -5  -1  211.38    6.50
   3   5   1  213.58    6.90
   3   5   1  211.88    6.20
  -4  -5  -1  333.17    9.60
   4   5   1  323.97    9.20
   4   5   1  326.17    9.80
  -5  -5  -1   92.09    4.10
   5   5   1   96.69    3.90
  -6  -5  -1    0.90    0.80
  -7  -5  -1   70.79    3.00
  -8  -5  -1    2.00    0.90
  -9  -5  -1   65.59    2.70
 -10  -5  -1   16.70    1.20
  13  -6  -1   63.29    2.30
 -13   6   1   68.19    2.50
  12  -6  -1   20.00    1.60
 -12   6   1   17.00    1.70
 -11   6   1   25.70    2.10
 -11   6   1   25.10    2.20
 -10   6   1  493.45   13.00
 -10   6   1  483.15   12.90
 -10   6   1  479.45   12.70
  -9   6   1    7.00    1.30
  -9   6   1    5.50    1.20
  -9   6   1    7.60    1.10
  -9   6   1    7.20    1.50
  -8   6   1   60.09    2.70
  -8   6   1   56.59    3.40
  -8   6   1   63.29    2.50
  -8   6   1   64.09    3.10
  -8   6   1   56.99    2.70
  -7   6   1   24.80    1.90
  -7   6   1   26.30    2.20
  -7   6   1   26.90    1.40
  -6   6   1    1.20    0.60
  -6   6   1    2.00    0.50
  -6   6   1    3.00    0.90
  -6   6   1    0.60    0.70
  -5   6   1  164.48    4.50
  -5   6   1  172.78    5.30
  -5   6   1  169.28    5.50
  -5   6   1  171.38    5.40
   4  -6  -1  158.08    4.90
  -4   6   1  155.38    4.80
  -4   6   1  159.38    5.10
  -4   6   1  154.78    4.80
  -4   6   1  153.98    4.10
   3  -6  -1  715.63   17.90
  -3   6   1  721.93   17.80
  -3   6   1  711.83   17.90
  -3   6   1  713.33   17.10
  -3   6   1  709.93   18.20
  -3   6   1  718.13   17.70
   2  -6  -1 2510.65   60.89
  -2   6   1 2528.15   60.59
  -2   6   1 2545.85   60.69
  -2   6   1 2553.24   60.99
  -2   6   1 2577.64   59.99
  -2   6   1 2642.84   61.19
   1  -6  -1  938.71   23.80
  -1   6   1  964.40   23.70
  -1   6   1  921.31   22.90
  -1   6   1  963.30   24.20
  -1   6   1 1010.40   23.80
  -1   6   1  984.40   23.50
   0  -6  -1  332.07    9.20
   0  -6  -1  331.37    8.80
   0   6   1  327.67    8.90
   0   6   1  323.17    8.20
   0   6   1  341.97    9.60
   0   6   1  323.17    9.00
  -1  -6  -1  317.17    9.10
  -1  -6  -1  327.57    8.80
   1   6   1  335.47    9.60
   1   6   1  319.17    8.80
   1   6   1  316.37    9.20
   1   6   1  318.67    8.20
  -2  -6  -1  792.22   20.40
  -2  -6  -1  812.62   20.10
   2   6   1  793.82   19.30
   2   6   1  785.12   19.80
   2   6   1  779.12   20.60
   2   6   1  791.42   20.70
  -3  -6  -1  180.08    5.90
   3   6   1  178.28    6.40
  -4  -6  -1   13.00    1.70
   4   6   1   12.50    1.70
  -5  -6  -1   62.69    2.80
  -5  -6  -1   58.99    3.80
  -6  -6  -1   30.80    2.00
  -7  -6  -1    4.80    1.00
  -8  -6  -1   16.40    1.70
  -9  -6  -1   65.29    2.50
 -10  -6  -1   51.49    2.30
  13  -7  -1   31.80    1.50
 -13   7   1   31.20    1.70
  12  -7  -1   10.30    1.20
 -12   7   1   10.20    1.30
 -11   7   1    0.10    1.10
 -11   7   1   -0.50    0.90
 -10   7   1    8.50    1.20
 -10   7   1    8.90    1.40
 -10   7   1    7.80    1.70
 -10   7   1    9.20    1.40
  -9   7   1  476.85   13.70
  -9   7   1  489.15   12.90
  -9   7   1  485.55   13.10
  -9   7   1  499.25   12.70
  -8   7   1  111.79    4.10
  -8   7   1  120.59    3.90
  -8   7   1  115.79    4.60
  -8   7   1  117.29    5.10
  -8   7   1  116.79    4.00
  -7   7   1    2.70    0.90
  -7   7   1    1.40    0.60
  -7   7   1    2.20    0.90
  -7   7   1    1.50    1.00
  -6   7   1    0.90    0.60
  -6   7   1    1.40    0.50
  -6   7   1    1.20    0.80
  -6   7   1    1.20    0.90
  -5   7   1 1925.31   46.20
  -5   7   1 1908.01   45.80
  -5   7   1 1843.72   45.60
  -5   7   1 1892.51   44.70
   4  -7  -1  170.78    5.50
  -4   7   1  175.78    5.40
  -4   7   1  175.38    4.70
  -4   7   1  182.78    5.90
   3  -7  -1   29.30    1.70
  -3   7   1   29.00    1.60
  -3   7   1   29.60    1.90
  -3   7   1   29.30    1.90
  -3   7   1   30.60    1.70
  -3   7   1   30.50    1.20
   2  -7  -1   90.29    3.50
  -2   7   1   92.59    3.60
  -2   7   1   87.59    3.20
  -2   7   1  103.19    3.30
  -2   7   1   86.19    3.60
  -2   7   1   89.59    2.60
   1  -7  -1  275.67    7.80
   1  -7  -1  281.47    8.20
  -1   7   1  283.27    7.20
  -1   7   1  281.07    8.00
  -1   7   1  292.17    8.60
  -1   7   1  283.47    8.10
   0  -7  -1   43.40    2.10
   0  -7  -1   40.60    2.30
   0   7   1   39.40    2.50
   0   7   1   39.90    1.60
   0   7   1   42.60    2.20
   0   7   1   43.10    2.30
  -1  -7  -1   58.59    2.70
  -1  -7  -1   57.49    2.90
   1   7   1   57.49    2.10
   1   7   1   61.39    3.20
   1   7   1   57.59    2.90
   1   7   1   56.09    2.60
  -2  -7  -1  389.06   11.00
   2   7   1  391.16   11.70
   2   7   1  397.56   10.10
  -3  -7  -1    5.80    1.20
   3   7   1    6.60    1.80
  -4  -7  -1  251.57    7.30
  -4  -7  -1  237.28    8.00
   4   7   1  249.28    6.70
  -5  -7  -1    2.50    0.90
  -6  -7  -1   19.80    1.80
  -7  -7  -1   36.00    2.20
  -8  -7  -1  213.28    6.10
  -9  -7  -1   32.10    1.60
  13  -8  -1   17.60    1.20
 -13   8   1   18.20    1.30
  12  -8  -1  123.09    3.90
 -12   8   1  124.29    4.20
 -11   8   1  239.98    7.00
 -11   8   1  245.88    7.00
 -11   8   1  219.88    6.70
 -11   8   1  230.08    7.60
 -10   8   1   35.40    2.40
 -10   8   1   33.00    2.80
 -10   8   1   34.00    2.40
  -9   8   1    4.90    1.20
  -9   8   1    5.20    1.00
  -9   8   1    5.40    1.50
  -9   8   1    3.90    1.10
  -8   8   1  170.78    5.60
  -8   8   1  178.38    5.50
  -8   8   1  183.88    5.30
  -8   8   1  172.68    6.20
  -7   8   1    5.80    0.80
  -7   8   1    4.40    1.00
  -7   8   1    7.40    1.50
  -7   8   1    5.90    1.30
  -7   8   1    7.70    1.80
  -6   8   1    2.40    0.60
  -6   8   1    2.30    1.00
  -6   8   1    6.60    1.10
  -6   8   1    3.20    1.00
  -6   8   1    2.80    1.00
   5  -8  -1   31.60    2.00
  -5   8   1   34.10    2.00
  -5   8   1   33.10    2.10
  -5   8   1   34.40    2.40
   4  -8  -1   22.00    1.70
  -4   8   1   23.80    2.00
  -4   8   1   21.30    1.60
  -4   8   1   21.00    1.60
  -4   8   1   27.10    1.20
   3  -8  -1    6.40    1.10
  -3   8   1    6.30    1.00
  -3   8   1    6.00    1.20
  -3   8   1    4.90    1.10
  -3   8   1    6.40    0.70
  -3   8   1    7.30    1.00
   2  -8  -1   18.20    1.60
  -2   8   1   20.00    1.80
  -2   8   1   18.20    1.00
  -2   8   1   21.30    1.60
  -2   8   1   20.40    1.50
  -2   8   1   19.50    1.70
   1  -8  -1   37.90    2.30
   1  -8  -1   38.30    2.10
  -1   8   1   41.30    2.30
  -1   8   1   49.50    1.70
  -1   8   1   40.50    2.60
  -1   8   1   37.10    2.20
   0  -8  -1   45.10    2.40
   0  -8  -1   45.30    2.60
   0   8   1   40.20    1.70
   0   8   1   43.80    2.40
   0   8   1   47.40    3.00
   0   8   1   45.60    2.50
  -1  -8  -1   27.40    2.00
   1   8   1   25.90    2.40
   1   8   1   26.00    1.90
   1   8   1   26.40    1.50
   1   8   1   24.90    2.10
  -2  -8  -1   12.80    1.70
   2   8   1   10.30    1.10
  -3  -8  -1  166.98    6.20
   3   8   1  181.08    5.80
   3   8   1  182.48    5.20
  -4  -8  -1  126.29    4.50
   4   8   1  123.79    3.90
  -5  -8  -1   27.20    2.00
   5   8   1   31.40    1.70
  -6  -8  -1   63.79    2.90
  -7  -8  -1   12.00    1.30
  -8  -8  -1   70.29    2.60
  13  -9  -1   35.70    1.60
 -13   9   1   36.50    1.70
  12  -9  -1   10.40    1.10
 -12   9   1   10.50    1.20
  11  -9  -1    3.80    1.00
 -11   9   1    5.00    1.50
 -11   9   1    8.50    1.40
 -10   9   1   35.50    2.40
 -10   9   1   37.40    3.00
 -10   9   1   36.80    2.50
 -10   9   1   34.20    2.00
  -9   9   1  150.48    5.20
  -9   9   1  156.18    6.00
  -9   9   1  144.89    4.70
  -9   9   1  151.48    5.00
  -8   9   1    5.20    1.10
  -8   9   1    3.90    1.00
  -8   9   1    3.90    1.10
  -8   9   1    4.40    1.40
  -7   9   1   17.30    1.60
  -7   9   1   17.70    2.10
  -7   9   1   15.80    1.60
  -7   9   1   17.70    2.00
  -6   9   1   14.60    1.90
  -6   9   1   14.30    1.50
  -6   9   1   14.80    1.70
  -6   9   1   14.90    1.10
   5  -9  -1  239.58    7.70
  -5   9   1  247.98    7.60
  -5   9   1  249.08    7.70
  -5   9   1  245.38    7.60
  -5   9   1  251.37    6.60
  -5   9   1  248.38    7.20
   4  -9  -1   16.90    1.70
  -4   9   1   17.20    1.90
  -4   9   1   17.50    1.60
  -4   9   1   17.20    1.10
  -4   9   1   18.40    1.60
   3  -9  -1    2.20    0.80
  -3   9   1    1.90    0.70
  -3   9   1    1.80    0.80
  -3   9   1    1.80    0.50
  -3   9   1    4.70    1.10
  -3   9   1    2.90    1.00
   2  -9  -1  117.49    4.30
   2  -9  -1  109.79    4.50
  -2   9   1  119.19    3.50
  -2   9   1  113.49    4.90
  -2   9   1  116.49    4.60
  -2   9   1  108.29    4.30
   1  -9  -1    3.00    0.90
   1  -9  -1    7.40    1.30
  -1   9   1    3.50    0.60
  -1   9   1    3.30    0.90
  -1   9   1    3.60    1.00
  -1   9   1    2.80    1.20
   0  -9  -1  384.96   11.50
   0  -9  -1  391.06   11.00
   0   9   1  387.06   11.20
   0   9   1  382.06   11.40
   0   9   1  402.76   10.10
  -1  -9  -1   99.99    4.20
   1   9   1   97.59    3.40
  -2  -9  -1   44.60    2.80
   2   9   1   47.70    2.10
   2   9   1   47.10    2.50
   3   9   1   60.89    3.10
   3   9   1   59.79    2.50
  -4  -9  -1  349.96    9.90
   4   9   1  355.16    9.30
  -5  -9  -1    3.50    1.00
   5   9   1    3.60    0.90
  -6  -9  -1  118.39    4.00
  -7  -9  -1    3.00    0.80
  -8  -9  -1   61.99    2.10
  12 -10  -1  178.58    5.00
 -12  10   1  175.28    5.70
 -12  10   1  180.68    5.30
  11 -10  -1   30.20    1.90
 -11  10   1   33.70    2.20
 -11  10   1   28.90    2.60
  10 -10  -1   11.50    1.30
 -10  10   1   14.90    2.10
 -10  10   1    9.80    1.50
 -10  10   1   10.30    1.20
  -9  10   1    8.30    1.10
  -9  10   1   10.20    1.90
  -9  10   1   11.20    1.50
  -8  10   1   70.49    2.80
  -8  10   1   70.79    3.90
  -8  10   1   70.99    3.20
  -8  10   1   69.89    3.20
  -7  10   1   31.20    2.00
  -7  10   1   29.00    2.50
  -7  10   1   27.60    2.10
  -7  10   1   31.90    1.70
  -6  10   1   28.40    2.10
  -6  10   1   30.90    2.40
  -6  10   1   28.40    1.60
  -6  10   1   28.90    1.90
  -6  10   1   27.90    2.30
  -5  10   1  501.95   12.20
  -5  10   1  457.95   12.70
  -5  10   1  484.55   13.30
  -5  10   1  474.65   12.40
  -5  10   1  472.45   13.40
  -4  10   1   58.89    2.70
  -4  10   1   60.19    3.10
  -4  10   1   60.29    3.10
  -4  10   1   64.09    2.30
  -3  10   1  187.88    5.10
  -3  10   1  176.28    5.60
  -3  10   1  182.48    6.10
  -3  10   1  171.88    6.00
   2 -10  -1   32.40    2.30
  -2  10   1   31.00    2.40
  -2  10   1   30.60    1.90
  -2  10   1   33.70    1.70
   1 -10  -1   48.70    3.20
   1 -10  -1   55.89    3.00
  -1  10   1   61.69    2.40
  -1  10   1   54.59    2.50
   0 -10  -1   25.10    2.10
   0  10   1   16.00    1.70
   0  10   1   23.50    1.50
   0  10   1   23.00    1.50
   0  10   1   21.30    1.70
  -1 -10  -1  844.42   22.60
   1  10   1  880.41   21.40
   1  10   1  863.51   21.50
   1  10   1  881.91   21.90
   2  10   1   22.40    2.00
   2  10   1   20.70    1.60
   3  10   1    5.40    1.00
   3  10   1    6.40    1.30
  -4 -10  -1   11.00    1.40
   4  10   1   11.70    1.30
  -5 -10  -1    1.80    0.90
   5  10   1    1.50    0.70
  -6 -10  -1    1.50    0.80
  -7 -10  -1    2.30    0.70
  12 -11  -1    5.10    0.80
 -12  11   1    4.20    1.20
 -12  11   1    3.30    0.80
  11 -11  -1   17.10    1.50
 -11  11   1   15.30    1.60
 -11  11   1   16.50    2.10
  10 -11  -1   11.40    1.20
 -10  11   1   15.20    1.60
 -10  11   1   11.00    1.90
 -10  11   1   14.00    1.80
  -9  11   1   70.99    3.30
  -9  11   1   74.09    3.90
  -9  11   1   68.99    2.80
  -9  11   1   69.39    3.20
  -8  11   1   95.39    4.60
  -8  11   1   96.99    3.40
  -8  11   1   96.49    3.80
  -8  11   1   93.59    3.90
  -7  11   1   43.20    2.50
  -7  11   1   42.80    3.10
  -7  11   1   43.40    2.60
  -7  11   1   43.20    2.10
  -6  11   1  175.78    5.70
  -6  11   1  182.88    6.60
  -6  11   1  187.08    6.10
  -6  11   1  186.28    5.40
  -5  11   1  215.68    7.30
  -5  11   1  206.88    6.30
  -5  11   1  218.78    6.10
  -5  11   1  211.78    6.70
  -4  11   1   38.70    2.90
  -4  11   1   38.50    2.70
  -4  11   1   40.60    2.40
  -4  11   1   43.00    2.00
  -4  11   1   36.20    2.10
   3 -11  -1   80.49    3.90
  -3  11   1   83.59    3.40
  -3  11   1   84.39    4.00
  -3  11   1   80.99    3.20
  -3  11   1   82.69    3.00
   2 -11  -1   -6.40    1.40
   2 -11  -1    2.20    1.00
  -2  11   1    1.40    0.70
  -2  11   1    1.60    0.70
  -2  11   1    2.30    0.90
  -2  11   1    2.10    0.80
  -1  11   1   15.50    1.60
  -1  11   1   16.90    1.70
  -1  11   1   17.20    1.40
  -1  11   1   17.40    1.50
   0  11   1   67.79    2.80
   0  11   1   67.29    2.80
   0  11   1   61.59    2.80
   0  11   1   64.19    3.10
   1  11   1   61.39    2.70
   1  11   1   64.59    3.10
   2  11   1   19.40    2.10
   2  11   1   11.60    1.30
  -3 -11  -1   25.70    2.10
   3  11   1   25.70    1.80
  -4 -11  -1   18.30    1.80
   4  11   1   16.20    1.50
  -5 -11  -1   17.00    1.50
   5  11   1   18.40    1.30
  -6 -11  -1    1.60    0.60
 -12  12   1  105.29    3.30
 -11  12   1   88.99    3.20
 -11  12   1   85.69    3.80
 -10  12   1   99.19    3.70
 -10  12   1   97.79    4.50
  -9  12   1   19.20    1.90
  -9  12   1   19.20    1.50
  -9  12   1   17.90    1.90
  -9  12   1   18.20    2.30
  -8  12   1   63.29    3.10
  -8  12   1   64.59    3.80
  -8  12   1   57.59    2.50
  -8  12   1   61.49    3.00
  -7  12   1   78.29    3.60
  -7  12   1   74.59    3.30
  -7  12   1   80.69    4.20
  -7  12   1   83.09    3.10
  -6  12   1    6.30    1.70
  -6  12   1    3.30    1.00
  -6  12   1    2.80    1.20
  -6  12   1    4.20    0.90
  -5  12   1  173.58    5.20
  -5  12   1  168.58    5.80
  -5  12   1  164.58    5.50
  -5  12   1  176.88    6.50
  -4  12   1  129.99    5.50
  -4  12   1  133.49    4.60
  -4  12   1  143.39    4.40
  -4  12   1  140.39    4.90
   3 -12  -1  175.68    7.90
  -3  12   1  211.18    6.00
  -3  12   1  212.48    6.30
  -3  12   1  211.98    6.50
   2 -12  -1    2.60    1.60
  -2  12   1    4.20    1.10
  -2  12   1    4.60    0.90
  -2  12   1    4.40    0.90
  -2  12   1    4.00    1.10
  -1  12   1   61.19    3.10
  -1  12   1   64.09    3.00
  -1  12   1   64.19    2.80
  -1  12   1   68.59    2.80
   0  12   1  158.38    5.20
   0  12   1  161.28    5.40
   0  12   1  162.38    5.10
   0  12   1  154.08    5.00
   1  12   1  353.76   10.00
   1  12   1  345.07    9.40
   2  12   1   27.00    1.90
   2  12   1   32.10    2.30
  -3 -12  -1   11.40    1.40
   3  12   1   13.40    1.30
  -4 -12  -1   61.99    2.60
   4  12   1   62.79    2.40
  -5 -12  -1   82.99    2.70
   5  12   1   82.59    2.60
 -11  13   1    9.70    1.10
 -11  13   1    9.50    1.60
 -10  13   1   47.10    3.20
 -10  13   1   45.30    2.30
  -9  13   1    0.90    0.90
  -9  13   1    2.90    1.50
  -9  13   1    2.10    1.00
  -8  13   1  554.44   15.20
  -8  13   1  518.15   13.70
  -8  13   1  538.45   14.20
  -8  13   1  539.25   14.10
  -7  13   1   33.90    2.30
  -7  13   1   35.40    3.30
  -7  13   1   33.40    1.90
  -7  13   1   38.30    2.60
  -6  13   1   40.70    3.50
  -6  13   1   43.50    2.40
  -6  13   1   37.50    2.00
  -6  13   1   41.00    2.70
  -5  13   1   34.40    3.30
  -5  13   1   30.40    2.40
  -5  13   1   33.30    2.20
  -5  13   1   29.80    1.90
   4 -13  -1   34.60    4.40
  -4  13   1   59.89    2.50
  -4  13   1   65.29    3.10
  -4  13   1   58.79    2.80
   3 -13  -1    5.50    2.00
  -3  13   1    7.40    1.10
  -3  13   1    7.10    1.40
  -3  13   1    7.70    1.30
  -2  13   1  186.08    6.00
  -2  13   1  192.18    5.70
  -2  13   1  183.68    5.60
  -2  13   1  183.48    6.10
  -1  13   1    0.70    0.70
  -1  13   1    0.30    1.00
  -1  13   1    0.50    0.80
  -1  13   1    1.70    1.00
   0  13   1  256.67    7.60
   0  13   1  244.68    7.20
   1  13   1   65.89    2.80
   1  13   1   73.59    3.30
  -2 -13  -1   41.80    2.30
   2  13   1   41.00    2.10
  -3 -13  -1    8.90    1.10
   3  13   1    8.40    1.00
  -4 -13  -1    7.20    0.80
   4  13   1    7.20    0.80
 -10  14   1   23.90    2.40
 -10  14   1   21.10    1.50
  -9  14   1   15.10    2.10
  -9  14   1   12.40    1.30
  -9  14   1   11.50    1.30
  -8  14   1   56.69    3.70
  -8  14   1   50.99    2.70
  -8  14   1   53.19    2.60
  -7  14   1    4.30    1.10
  -7  14   1    3.90    1.20
  -7  14   1    4.50    1.80
  -6  14   1   38.60    3.40
  -6  14   1   33.70    2.40
  -6  14   1   34.20    1.90
  -6  14   1   37.90    2.30
   5 -14  -1   11.00    2.90
  -5  14   1   21.70    2.10
  -5  14   1   15.60    1.50
  -5  14   1   17.50    1.80
   4 -14  -1   29.80    3.50
  -4  14   1   47.20    2.60
  -4  14   1   40.30    2.50
  -4  14   1   36.60    2.00
   3 -14  -1   55.49    3.20
  -3  14   1   45.90    2.60
  -3  14   1   43.00    2.20
  -3  14   1   45.50    2.70
  -2  14   1   25.70    2.10
  -2  14   1   21.80    2.10
  -2  14   1   21.80    1.60
  -2  14   1   25.00    1.80
  -1  14   1    1.80    1.00
  -1  14   1    1.00    0.80
  -1  14   1    1.10    1.00
   0  14   1  126.29    4.50
   0  14   1  134.19    4.20
   1  14   1  149.19    4.50
   1  14   1  150.38    5.00
  -2 -14  -1   54.49    2.40
   2  14   1   56.49    2.20
  -3 -14  -1    5.90    0.90
   3  14   1    5.30    0.70
  -9  15   1    5.00    1.50
  -9  15   1    1.90    1.10
  -9  15   1    3.00    0.70
  -8  15   1  112.09    4.00
  -8  15   1  116.19    3.80
   7 -15  -1   19.20    3.10
  -7  15   1   17.10    1.80
  -7  15   1   17.00    1.60
   6 -15  -1  149.49    6.70
  -6  15   1  155.48    5.20
  -6  15   1  154.88    5.00
   5 -15  -1   89.49    4.60
  -5  15   1   96.39    3.60
  -5  15   1   94.09    3.70
   4 -15  -1   23.90    2.30
  -4  15   1   16.60    1.70
  -4  15   1   20.50    2.00
  -3  15   1    5.20    1.20
  -3  15   1    4.80    1.20
  -2  15   1   31.20    2.00
  -2  15   1   31.60    1.80
  -2  15   1   31.80    2.20
  -1  15   1    2.00    0.90
  -1  15   1    2.50    0.80
   0  15   1   35.20    1.70
   0  15   1   32.40    2.00
  -1 -15  -1  149.19    4.40
   1  15   1  147.69    4.20
  -8  16   1    1.30    0.60
   7 -16  -1    8.00    1.70
  -7  16   1    6.60    1.10
  -7  16   1    6.30    1.00
   6 -16  -1   55.39    2.90
  -6  16   1   47.60    2.40
  -6  16   1   51.29    2.40
  -5  16   1    6.40    1.10
  -5  16   1    5.50    1.10
  -4  16   1    4.40    1.00
  -4  16   1    4.30    1.00
  -3  16   1    2.20    0.90
  -3  16   1    3.40    0.90
  -2  16   1  219.28    6.10
  -2  16   1  203.38    5.80
  -1  16   1    1.70    0.60
  -1  16   1   -0.50    0.50
   0  16  -2   11.80    1.00
   0 -16   2   12.00    1.20
  -1  16  -2   26.20    1.80
  -1  16  -2   26.50    1.40
  -2  16  -2   75.89    3.00
  -2  16  -2   78.59    3.10
  -3  16  -2   30.30    2.10
  -3  16  -2   31.40    2.00
  -4  16  -2   86.89    3.50
  -4  16  -2   95.69    3.60
  -5  16  -2    1.90    1.00
  -5  16  -2    4.30    1.10
  -6  16  -2    1.20    0.90
  -6  16  -2    1.90    0.90
  -7  16  -2   -0.20    0.80
  -7  16  -2    0.70    0.70
  -8  16  -2    1.10    0.60
   2  15  -2   95.59    3.00
  -2 -15   2  105.19    3.30
   1  15  -2   31.40    1.60
  -1 -15   2   32.90    1.90
   0  15  -2    1.10    0.80
   0  15  -2    1.00    1.00
   0  15  -2    2.20    0.80
  -1  15  -2  183.28    5.70
  -1  15  -2  179.98    5.40
  -1  15  -2  188.58    5.90
  -2  15  -2    3.90    1.20
  -2  15  -2    2.00    1.20
  -2  15  -2    2.50    0.80
  -3  15  -2  119.99    4.50
  -3  15  -2  128.49    4.60
  -4  15  -2   82.29    3.50
  -4  15  -2   79.09    3.60
  -5  15  -2    2.90    1.20
  -5  15  -2    5.20    1.20
  -6  15  -2   14.80    1.50
  -6  15  -2   13.50    1.60
  -7  15  -2    3.80    1.00
  -7  15  -2    6.40    1.70
  -7  15  -2    4.60    1.20
  -8  15  -2  100.59    3.60
  -8  15  -2   99.69    3.50
  -8  15  -2   98.39    4.30
  -9  15  -2    1.20    0.70
   3  14  -2  125.39    3.70
  -3 -14   2  127.19    4.00
   2  14  -2    6.00    0.90
  -2 -14   2    8.10    1.30
   1  14  -2   16.80    1.60
   1  14  -2   16.90    1.80
   1  14  -2   17.50    1.70
   0  14  -2   49.30    2.50
   0  14  -2   47.30    2.60
   0  14  -2   47.50    2.80
  -1  14  -2  524.45   13.60
  -1  14  -2  495.85   13.40
  -1  14  -2  475.95   13.00
  -1  14  -2  519.65   13.10
  -2  14  -2   39.00    2.80
  -2  14  -2   35.50    2.60
  -2  14  -2   36.20    2.10
  -2  14  -2   34.90    2.00
  -3  14  -2   11.60    1.70
  -3  14  -2   10.40    1.50
  -3  14  -2   12.80    1.40
  -4  14  -2    9.80    1.50
  -4  14  -2   11.50    1.30
  -4  14  -2   11.80    1.70
  -5  14  -2  147.69    5.90
  -5  14  -2  155.08    5.20
  -5  14  -2  148.59    4.60
  -5  14  -2  151.18    5.40
  -6  14  -2   61.39    2.50
  -6  14  -2   66.49    3.30
  -6  14  -2   70.99    3.10
  -6  14  -2   68.89    4.00
  -7  14  -2   45.80    3.40
  -7  14  -2   47.30    2.60
  -7  14  -2   42.10    2.60
  -8  14  -2    0.40    0.90
  -8  14  -2    3.80    1.60
  -8  14  -2    1.90    0.90
  -9  14  -2   64.49    2.80
  -9  14  -2   64.59    3.50
 -10  14  -2   66.09    3.20
 -10  14  -2   62.89    2.50
   4  13  -2   58.89    2.20
  -4 -13   2   62.09    2.50
   3  13  -2  129.19    4.10
  -3 -13   2  134.79    4.50
   2  13  -2    2.80    1.10
   2  13  -2    5.10    1.10
   1  13  -2   29.20    2.20
   1  13  -2   26.60    1.80
   1  13  -2   26.10    2.40
   1  13  -2   28.60    2.00
   0  13  -2   22.20    2.20
   0  13  -2   22.10    1.90
   0  13  -2   25.50    2.20
   0  13  -2   21.60    1.70
  -1  13  -2    0.20    0.80
  -1  13  -2    0.90    1.20
  -1  13  -2    0.10    1.20
  -1  13  -2    1.60    0.80
  -2  13  -2   22.80    2.30
  -2  13  -2   25.60    1.80
  -2  13  -2   26.20    2.30
  -2  13  -2   23.70    1.70
  -3  13  -2   54.69    2.40
  -3  13  -2   56.99    3.20
  -3  13  -2   58.29    2.90
  -4  13  -2   23.60    1.60
  -4  13  -2   26.50    2.40
  -4  13  -2   25.30    2.90
  -4  13  -2   26.40    2.10
  -5  13  -2   10.40    1.20
  -5  13  -2   10.70    1.60
  -5  13  -2    9.80    1.40
  -5  13  -2   10.40    2.00
  -6  13  -2  144.39    4.50
  -6  13  -2  153.88    5.20
  -6  13  -2  147.99    5.30
  -6  13  -2  149.49    5.90
  -7  13  -2  178.18    6.50
  -7  13  -2  162.98    5.10
  -7  13  -2  181.08    5.70
  -7  13  -2  174.48    5.70
  -8  13  -2  309.87    9.70
  -8  13  -2  309.17    8.90
  -9  13  -2   99.99    3.90
  -9  13  -2  100.69    4.50
 -10  13  -2    9.50    1.30
 -10  13  -2   11.40    1.70
 -11  13  -2    9.90    1.00
   5  12  -2    0.60    0.60
  -5 -12   2    1.70    0.70
   4  12  -2    0.60    0.70
  -4 -12   2    1.70    0.90
   3  12  -2  118.19    4.00
  -3 -12   2  121.09    4.50
   2  12  -2  121.89    4.20
   2  12  -2  112.69    4.20
   2  12  -2  120.89    4.70
   1  12  -2   36.50    2.70
   1  12  -2   41.40    2.30
   1  12  -2   40.90    2.50
   1  12  -2   39.60    2.20
   0  12  -2    2.90    0.90
   0  12  -2    0.70    1.10
   0  12  -2    2.40    1.30
   0  12  -2    2.30    0.90
  -1  12  -2  277.67    7.60
  -1  12  -2  261.17    8.00
  -1  12  -2  274.17    8.20
  -1  12  -2  274.07    7.70
  -2  12  -2    1.10    0.90
  -2  12  -2    2.10    0.80
  -2  12  -2    2.60    0.90
  -2  12  -2    0.00    1.00
  -3  12  -2    8.10    1.20
  -3  12  -2    7.00    1.00
  -3  12  -2    8.00    1.40
  -4  12  -2    4.70    1.50
  -4  12  -2    4.00    1.00
  -4  12  -2    3.00    1.20
  -5  12  -2  149.59    5.10
  -5  12  -2  149.49    5.30
  -5  12  -2  149.88    4.50
  -5  12  -2  153.58    5.80
  -6  12  -2    6.50    1.50
  -6  12  -2    5.00    0.80
  -6  12  -2    4.80    1.10
  -6  12  -2    3.90    1.20
  -7  12  -2    6.40    1.20
  -7  12  -2    5.60    0.90
  -7  12  -2    6.20    1.60
  -7  12  -2    7.40    1.30
  -8  12  -2    1.10    1.00
  -8  12  -2    1.20    1.30
  -8  12  -2    0.60    0.60
  -9  12  -2    2.30    1.00
  -9  12  -2    2.90    1.50
 -10  12  -2   47.20    3.10
 -10  12  -2   44.40    2.40
 -11  12  -2   37.80    2.00
 -11  12  -2   36.70    2.40
  -6 -11   2   14.50    1.30
   5  11  -2   31.00    1.70
  -5 -11   2   34.00    2.10
   4  11  -2    0.80    0.80
  -4 -11   2    0.20    0.90
   3  11  -2    0.50    0.90
   3  11  -2    1.20    1.10
   2  11  -2   25.50    1.90
   2  11  -2   23.60    2.00
   2  11  -2   24.70    2.20
   2  11  -2   23.10    1.80
   1  11  -2   70.19    2.80
   1  11  -2   61.29    3.20
   1  11  -2   67.89    2.90
   1  11  -2   67.69    3.20
   0  11  -2   -0.60    1.00
   0  11  -2    0.10    0.60
   0  11  -2   -0.30    0.90
   0  11  -2    0.00    0.70
  -1  11  -2   92.09    3.70
  -1  11  -2   99.79    3.40
  -1  11  -2   93.49    3.80
  -1  11  -2   97.89    3.30
  -2  11  -2  215.98    6.20
  -2  11  -2  208.58    6.40
  -2  11  -2  220.38    6.70
  -2  11  -2  219.18    6.00
   2 -11   2  211.68    7.30
  -3  11  -2  216.58    5.90
  -3  11  -2  212.78    6.40
  -3  11  -2  210.58    7.00
  -3  11  -2  215.68    6.70
   3 -11   2  218.38    7.50
  -4  11  -2   10.30    1.00
  -4  11  -2    8.80    1.30
  -4  11  -2   10.50    1.60
  -4  11  -2   11.20    1.30
  -5  11  -2    6.50    1.30
  -5  11  -2    7.00    0.90
  -5  11  -2    5.20    1.00
  -5  11  -2    6.60    1.40
  -6  11  -2  150.48    5.70
  -6  11  -2  147.39    4.40
  -6  11  -2  147.49    5.00
  -6  11  -2  156.08    5.20
  -7  11  -2   91.39    4.50
  -7  11  -2   92.39    3.10
  -7  11  -2   91.99    3.70
  -7  11  -2   87.09    3.60
  -8  11  -2   45.70    2.70
  -8  11  -2   43.50    3.30
  -8  11  -2   41.30    2.00
  -9  11  -2   40.90    2.60
  -9  11  -2   43.90    3.30
  -9  11  -2   39.10    2.00
 -10  11  -2    5.10    1.20
 -10  11  -2    5.30    1.60
 -11  11  -2   25.70    1.80
 -11  11  -2   26.90    2.30
  11 -11   2   25.40    1.50
 -12  11  -2    6.10    0.80
  -7 -10   2   63.69    2.50
  -6 -10   2   51.19    2.50
   5  10  -2  193.58    5.60
  -5 -10   2  193.08    6.10
   4  10  -2  384.56   10.30
  -4 -10   2  393.86   10.90
   3  10  -2    4.20    1.00
   3  10  -2    6.70    1.40
   3  10  -2    2.90    1.00
   2  10  -2    5.50    1.20
   2  10  -2    5.10    1.00
   2  10  -2    4.00    1.00
   2  10  -2    3.80    1.20
   1  10  -2    2.80    1.00
   1  10  -2    3.70    1.10
   1  10  -2    3.00    0.80
   1  10  -2    2.80    0.90
  -1 -10   2    2.90    1.20
   0  10  -2  122.59    4.40
   0  10  -2  133.69    4.60
   0  10  -2  138.89    4.10
   0  10  -2  131.89    4.20
   0 -10   2  127.89    5.10
  -1  10  -2  662.23   17.50
  -1  10  -2  708.13   16.90
   1 -10   2  685.93   18.30
  -2  10  -2    1.30    0.50
  -2  10  -2    2.50    0.90
   2 -10   2    0.50    0.80
  -3  10  -2   20.90    1.90
  -3  10  -2   22.20    1.20
  -3  10  -2   20.80    1.70
  -4  10  -2    2.80    0.90
  -4  10  -2    2.40    1.00
  -4  10  -2    2.50    0.90
  -4  10  -2    1.60    0.90
  -4  10  -2    2.50    0.50
  -5  10  -2  433.16   11.40
  -5  10  -2  428.06   11.60
  -5  10  -2  430.96   10.80
  -5  10  -2  421.16   12.40
  -5  10  -2  438.96   12.20
  -6  10  -2   29.70    2.00
  -6  10  -2   31.30    2.40
  -6  10  -2   29.60    1.50
  -6  10  -2   27.70    2.00
  -7  10  -2   -0.10    1.00
  -7  10  -2    0.90    0.80
  -7  10  -2    0.00    0.50
  -8  10  -2    2.20    0.70
  -8  10  -2    0.60    0.90
  -8  10  -2    1.50    1.30
  -9  10  -2    4.70    1.10
  -9  10  -2    5.60    1.70
  -9  10  -2    5.00    1.30
  -9  10  -2    5.00    1.00
 -10  10  -2  302.27    8.50
 -10  10  -2  309.87    9.70
 -10  10  -2  291.27    8.30
 -10  10  -2  316.67    8.90
 -11  10  -2    7.60    1.60
 -11  10  -2    8.40    1.20
 -11  10  -2    9.50    1.30
 -12  10  -2    5.20    0.90
 -12  10  -2    6.30    1.20
  12 -10   2    6.10    0.80
  -8  -9   2    0.50    0.60
  -7  -9   2    2.40    0.90
   6   9  -2    4.40    0.60
  -6  -9   2    3.10    1.00
   5   9  -2    2.40    0.90
  -5  -9   2    0.40    1.00
   4   9  -2    3.30    0.90
   4   9  -2    3.00    1.20
   3   9  -2   21.20    1.60
   3   9  -2   19.20    1.60
   3   9  -2   26.60    2.10
   2   9  -2  873.61   20.90
   2   9  -2  840.22   21.30
   2   9  -2  837.52   20.80
   2   9  -2  820.02   21.10
  -2  -9   2  836.42   22.20
   1   9  -2    6.20    1.40
   1   9  -2    7.60    1.00
   1   9  -2    6.70    1.10
  -1  -9   2    6.90    1.40
   0   9  -2    9.40    1.60
   0   9  -2    9.50    1.30
   0   9  -2    9.30    1.70
   0   9  -2    9.40    0.90
   0  -9   2    7.70    1.30
   0  -9   2   10.00    1.40
  -1   9  -2   84.29    3.90
  -1   9  -2   81.39    2.60
  -1   9  -2   78.89    4.10
  -1   9  -2   81.69    3.50
   1  -9   2   83.49    3.60
   1  -9   2   84.69    3.60
  -2   9  -2   81.49    2.40
  -2   9  -2   82.89    3.90
  -2   9  -2   81.89    3.90
  -2   9  -2   79.99    3.20
   2  -9   2   80.69    3.50
   2  -9   2   75.49    3.30
  -3   9  -2    8.90    1.50
  -3   9  -2   11.50    1.40
  -3   9  -2   11.20    1.20
  -3   9  -2   10.30    0.70
   3  -9   2   11.20    1.30
  -4   9  -2   18.40    1.40
  -4   9  -2   18.40    1.80
  -4   9  -2   19.10    2.00
  -4   9  -2   18.90    0.90
   4  -9   2   17.30    1.40
  -5   9  -2  128.89    4.40
  -5   9  -2  132.59    5.00
  -5   9  -2  135.49    3.70
  -5   9  -2  131.79    4.80
  -5   9  -2  127.39    7.00
  -6   9  -2  211.58    6.40
  -6   9  -2  220.08    7.10
  -6   9  -2  216.08    6.40
  -6   9  -2  214.48    7.30
  -6   9  -2  221.78    5.80
  -7   9  -2 1203.48   30.90
  -7   9  -2 1258.97   29.50
  -7   9  -2 1204.28   30.10
  -8   9  -2    3.20    0.80
  -8   9  -2    1.50    1.30
  -8   9  -2    2.20    1.00
  -8   9  -2    1.60    0.90
  -9   9  -2   87.09    3.60
  -9   9  -2   90.09    3.80
  -9   9  -2   90.89    4.60
  -9   9  -2   88.19    3.30
 -10   9  -2    5.80    1.30
 -10   9  -2    2.70    0.90
 -10   9  -2    2.60    1.10
 -10   9  -2    3.60    1.60
 -11   9  -2   25.00    2.00
 -11   9  -2   24.80    2.50
 -11   9  -2   28.70    2.10
 -12   9  -2    2.70    1.10
 -12   9  -2    5.60    1.00
 -12   9  -2    2.30    0.90
  -9  -8   2   43.60    1.80
  -8  -8   2  389.16   10.20
  -7  -8   2   25.30    1.90
  -6  -8   2   64.89    3.10
   5   8  -2  361.86    9.70
  -5  -8   2  375.76   10.40
   4   8  -2    3.50    0.90
   3   8  -2   47.30    2.20
   3   8  -2   40.80    2.20
   3   8  -2   50.29    2.60
  -3  -8   2   44.10    2.90
   2   8  -2   13.80    1.70
   2   8  -2   13.30    1.20
  -2  -8   2   14.70    1.70
  -2  -8   2   13.70    1.70
  -2  -8   2   14.70    1.60
   1   8  -2   15.70    1.80
   1   8  -2   14.80    1.10
   1   8  -2   14.80    1.60
   1   8  -2   14.40    2.00
  -1  -8   2   14.10    1.60
  -1  -8   2   15.10    1.50
   0   8  -2  146.59    5.60
   0   8  -2  145.49    5.20
   0   8  -2  145.99    4.00
   0   8  -2  138.59    5.00
   0  -8   2  151.58    5.00
   0  -8   2  135.99    4.90
  -1   8  -2   43.50    2.60
  -1   8  -2   39.50    1.40
  -1   8  -2   39.30    2.00
  -1   8  -2   38.80    2.50
   1  -8   2   41.30    2.20
   1  -8   2   39.10    2.10
  -2   8  -2  890.81   22.90
  -2   8  -2  927.01   22.50
  -2   8  -2  887.91   22.10
  -2   8  -2  890.61   21.20
  -2   8  -2  899.31   23.00
   2  -8   2  870.81   22.20
  -3   8  -2  334.37    9.90
  -3   8  -2  347.87   10.00
  -3   8  -2  336.67    8.40
  -3   8  -2  356.86    9.20
  -3   8  -2  356.16    9.70
   3  -8   2  346.77    9.30
  -4   8  -2  195.88    6.10
  -4   8  -2  185.88    5.50
  -4   8  -2  183.48    4.70
  -4   8  -2  185.98    6.20
   4  -8   2  186.58    5.50
  -5   8  -2  499.75   12.40
  -5   8  -2  515.55   13.30
  -5   8  -2  512.65   14.00
  -5   8  -2  528.85   13.90
   5  -8   2  510.85   13.30
  -6   8  -2  123.99    3.60
  -6   8  -2  131.99    4.90
  -6   8  -2  118.89    4.60
  -7   8  -2  159.28    5.70
  -7   8  -2  152.38    5.90
  -7   8  -2  157.78    4.50
  -7   8  -2  151.48    5.00
  -7   8  -2  151.58    4.80
  -8   8  -2    8.70    1.70
  -8   8  -2    8.40    1.30
  -8   8  -2    7.10    1.20
  -8   8  -2    8.40    1.00
  -9   8  -2   28.60    1.80
  -9   8  -2   34.00    2.90
  -9   8  -2   30.40    2.30
  -9   8  -2   26.30    2.20
 -10   8  -2    9.10    1.20
 -10   8  -2    9.80    1.90
 -10   8  -2    9.80    1.40
 -10   8  -2   10.10    1.50
 -11   8  -2   16.70    1.70
 -11   8  -2   18.00    1.80
 -11   8  -2   16.60    2.10
 -12   8  -2   29.40    1.90
 -12   8  -2   27.00    2.10
 -12   8  -2   30.50    1.80
  -9  -7   2   15.40    1.40
  -8  -7   2   85.79    3.30
  -7  -7   2   45.90    2.50
  -6  -7   2   62.69    3.00
   5   7  -2  214.98    6.20
  -5  -7   2  216.18    6.70
   4   7  -2    1.70    0.80
   4   7  -2    0.90    0.60
  -4  -7   2    1.30    1.00
   3   7  -2   13.30    1.20
   3   7  -2   12.70    1.90
   3   7  -2   15.70    1.80
  -3  -7   2   15.30    1.80
  -3  -7   2   13.70    1.60
  -3  -7   2   12.80    1.60
   2   7  -2 1307.37   30.70
   2   7  -2 1296.77   32.60
   2   7  -2 1270.67   32.20
  -2  -7   2 1225.38   31.60
  -2  -7   2 1306.67   31.80
  -2  -7   2 1258.37   31.70
   1   7  -2  583.34   15.50
   1   7  -2  584.84   16.00
   1   7  -2  583.84   14.30
   1   7  -2  582.44   15.60
  -1  -7   2  575.64   15.20
  -1  -7   2  597.14   15.30
   0   7  -2   11.20    1.10
   0   7  -2   10.80    0.70
   0   7  -2    9.70    1.40
   0   7  -2   10.50    1.40
   0  -7   2   10.20    1.10
   0  -7   2   10.90    1.20
  -1   7  -2   97.49    3.40
  -1   7  -2   98.09    3.80
  -1   7  -2  104.49    4.00
  -1   7  -2   97.99    2.70
   1  -7   2  101.19    3.60
   1  -7   2  100.09    3.40
  -2   7  -2   35.80    2.10
  -2   7  -2   32.50    2.00
  -2   7  -2   33.60    1.80
   2  -7   2   36.90    1.60
  -3   7  -2   74.19    3.10
  -3   7  -2   78.99    2.60
  -3   7  -2   80.79    3.30
  -3   7  -2   74.19    3.00
   3  -7   2   79.19    2.70
  -4   7  -2  755.02   19.90
  -4   7  -2  804.62   20.20
  -4   7  -2  830.22   19.50
   4  -7   2  776.42   19.40
  -5   7  -2   13.40    1.40
  -5   7  -2   13.40    0.70
  -5   7  -2   13.10    1.10
  -5   7  -2   11.70    1.40
   5  -7   2   12.70    1.10
  -6   7  -2  375.76   10.40
  -6   7  -2  396.86   11.00
  -6   7  -2  378.36    9.60
  -7   7  -2  800.22   19.60
  -7   7  -2  787.12   21.10
  -7   7  -2  824.82   21.00
  -8   7  -2    5.00    1.10
  -8   7  -2    5.50    0.90
  -8   7  -2    7.60    1.30
  -8   7  -2    5.40    1.40
  -8   7  -2    6.30    1.50
  -9   7  -2    1.90    1.10
  -9   7  -2    4.60    1.20
  -9   7  -2    2.80    0.80
  -9   7  -2    3.30    1.40
 -10   7  -2  123.49    4.50
 -10   7  -2  123.69    5.20
 -10   7  -2  117.09    4.10
 -10   7  -2  119.69    4.40
 -11   7  -2    7.40    1.30
 -11   7  -2    9.10    1.70
 -11   7  -2    9.60    1.40
 -12   7  -2   37.80    2.40
 -12   7  -2   36.40    2.00
 -12   7  -2   40.90    2.10
 -10  -6   2    1.20    0.60
  -9  -6   2  209.18    6.10
  -8  -6   2  249.48    7.30
  -7  -6   2   43.00    2.40
  -6  -6   2   40.90    2.30
  -5  -6   2  273.87    9.00
   4   6  -2   58.49    3.40
   4   6  -2   62.19    2.50
  -4  -6   2   62.39    3.30
   3   6  -2  447.86   13.00
   3   6  -2  456.45   13.10
   3   6  -2  472.05   11.60
  -3  -6   2  442.96   12.30
  -3  -6   2  461.75   12.60
  -3  -6   2  450.05   12.50
   2   6  -2   38.80    2.30
   2   6  -2   36.90    2.40
   2   6  -2   41.10    1.60
  -2  -6   2   37.20    2.10
  -2  -6   2   35.90    2.10
  -2  -6   2   36.20    2.00
   1   6  -2  134.39    4.60
   1   6  -2  129.39    3.60
   1   6  -2  126.99    4.70
   1   6  -2  129.19    4.50
  -1  -6   2  131.29    4.30
  -1  -6   2  133.69    4.20
   0   6  -2  639.54   16.60
   0   6  -2  660.73   16.10
   0   6  -2  639.64   16.40
   0   6  -2  614.34   15.20
   0  -6   2  631.34   16.10
   0  -6   2  632.64   15.80
  -1   6  -2   35.40    1.70
  -1   6  -2   35.90    2.00
  -1   6  -2   33.50    1.50
  -1   6  -2   37.50    2.00
   1  -6   2   35.30    1.50
  -2   6  -2  276.77    7.90
  -2   6  -2  288.07    7.70
  -2   6  -2  283.17    8.00
  -2   6  -2  280.47    7.30
   2  -6   2  290.37    7.20
  -3   6  -2   61.09    2.50
  -3   6  -2   66.49    2.60
  -3   6  -2   65.29    2.20
  -3   6  -2   68.49    2.70
   3  -6   2   65.99    2.10
  -4   6  -2  421.76   10.90
  -4   6  -2  406.96   10.40
  -4   6  -2  391.76   10.80
   4  -6   2  410.06   10.20
  -5   6  -2   51.19    2.50
  -5   6  -2   42.60    2.20
  -5   6  -2   50.99    2.10
  -5   6  -2   45.60    1.50
  -6   6  -2   13.60    1.60
  -6   6  -2    7.80    0.70
  -6   6  -2    8.80    1.10
  -7   6  -2    3.50    1.00
  -7   6  -2    1.50    0.50
  -7   6  -2    1.80    1.00
  -7   6  -2    1.50    1.00
  -8   6  -2   67.09    3.60
  -8   6  -2   71.29    2.70
  -8   6  -2   72.29    3.10
  -8   6  -2   73.89    3.80
  -8   6  -2   72.19    3.10
  -9   6  -2   98.49    3.80
  -9   6  -2   97.39    4.60
  -9   6  -2  106.49    3.70
  -9   6  -2  101.89    4.00
 -10   6  -2    2.20    1.20
 -10   6  -2    1.80    1.10
 -10   6  -2    3.50    1.00
 -10   6  -2    3.40    1.50
 -11   6  -2   11.40    1.30
 -11   6  -2   12.20    1.50
 -11   6  -2   10.00    1.40
 -11   6  -2   11.90    1.80
 -12   6  -2   37.90    3.00
 -12   6  -2   38.20    2.10
 -12   6  -2   37.90    2.00
 -13   6  -2   12.10    1.00
  13  -6   2   14.40    1.00
 -10  -5   2   76.69    2.80
  -9  -5   2    7.40    1.20
  -8  -5   2   17.60    1.80
  -7  -5   2   11.40    1.30
   6   5  -2    3.10    1.10
  -6  -5   2    4.40    1.00
  -6  -5   2    2.50    1.20
   5   5  -2   28.60    2.10
  -5  -5   2   23.80    2.20
   4   5  -2   42.50    1.90
   4   5  -2   50.09    2.40
   4   5  -2   38.80    2.60
  -4  -5   2   42.40    2.70
   3   5  -2  352.36    9.10
   3   5  -2  359.36   10.40
   3   5  -2  358.96    9.60
   3   5  -2  362.06   10.40
  -3  -5   2  362.46    9.90
  -3  -5   2  343.37    9.70
  -3  -5   2  350.46   10.00
   2   5  -2  740.13   18.90
   2   5  -2  723.73   18.00
   2   5  -2  726.23   18.80
   2   5  -2  720.63   17.60
  -2  -5   2  740.73   18.50
  -2  -5   2  713.83   18.40
  -2  -5   2  742.73   18.30
   1   5  -2   40.20    2.20
   1   5  -2   41.00    2.00
   1   5  -2   41.90    2.10
   1   5  -2   35.50    1.50
   1   5  -2   40.50    1.30
  -1  -5   2   44.00    1.90
  -1  -5   2   40.60    1.70
   0   5  -2   15.60    1.30
   0   5  -2   17.10    1.00
   0   5  -2   16.20    1.30
   0   5  -2   15.40    0.80
   0  -5   2   15.70    0.90
   0  -5   2   17.00    1.10
  -1   5  -2  684.33   18.30
  -1   5  -2  762.02   18.40
  -1   5  -2  725.23   18.00
  -1   5  -2  787.92   18.80
  -1   5  -2  760.82   18.70
   1  -5   2  789.42   17.90
  -2   5  -2  342.77    8.30
  -2   5  -2  335.97    8.90
  -2   5  -2  332.67    8.50
  -2   5  -2  335.77    9.00
  -2   5  -2  325.87    8.50
  -2   5  -2  350.16    8.80
  -3   5  -2    6.60    0.60
  -3   5  -2    7.50    0.60
  -3   5  -2   14.20    1.00
  -3   5  -2    7.50    0.80
  -3   5  -2    7.30    0.90
   3  -5   2   10.30    0.80
  -4   5  -2   57.79    2.40
  -4   5  -2   54.69    2.30
  -4   5  -2   58.09    2.10
   4  -5   2   67.19    2.00
   4  -5   2   54.79    2.20
  -5   5  -2    4.00    0.90
  -5   5  -2    4.00    0.50
  -5   5  -2    3.20    0.70
   5  -5   2    5.10    0.90
  -6   5  -2   98.09    3.60
  -6   5  -2   90.49    2.80
  -6   5  -2   94.99    3.80
   6  -5   2   91.99    3.50
  -7   5  -2  106.69    4.40
  -7   5  -2  111.49    4.60
  -7   5  -2  118.69    3.60
  -7   5  -2  114.79    4.60
   7  -5   2  112.29    4.30
  -8   5  -2    7.30    1.20
  -8   5  -2    6.60    1.50
  -8   5  -2    6.50    1.20
  -8   5  -2    6.80    1.00
  -8   5  -2    7.50    1.50
  -9   5  -2    0.50    0.90
  -9   5  -2   -0.20    1.00
  -9   5  -2    0.40    0.70
  -9   5  -2    1.30    1.00
 -10   5  -2  102.59    4.00
 -10   5  -2   97.09    4.50
 -10   5  -2  104.29    4.00
 -10   5  -2  102.99    3.70
 -11   5  -2   15.10    1.90
 -11   5  -2   17.50    1.70
 -11   5  -2   13.80    1.50
 -11   5  -2   14.30    1.50
 -12   5  -2    2.30    0.90
 -12   5  -2    3.30    0.90
 -13   5  -2   12.70    1.00
  13  -5   2   11.20    0.90
 -11  -4   2   12.50    1.20
 -10  -4   2    0.30    0.80
  -9  -4   2  296.47    8.40
  -8  -4   2   40.80    2.40
  -7  -4   2    2.30    0.90
   6   4  -2   24.50    2.10
  -6  -4   2   23.70    2.20
   5   4  -2  173.08    5.70
  -5  -4   2  173.88    6.10
   4   4  -2  113.69    4.40
   4   4  -2  119.99    4.00
   4   4  -2  114.49    4.60
   4   4  -2  113.49    3.60
  -4  -4   2  113.29    4.20
  -4  -4   2  108.59    3.90
  -4  -4   2  117.09    4.50
   3   4  -2   45.50    2.40
   3   4  -2   46.70    2.40
   3   4  -2   44.90    1.70
   3   4  -2   44.30    2.00
  -3  -4   2   42.30    2.20
  -3  -4   2   45.10    2.10
  -3  -4   2   44.70    2.10
   2   4  -2  903.31   22.80
   2   4  -2  966.60   23.70
   2   4  -2  954.60   23.00
   2   4  -2  943.91   23.70
  -2  -4   2  972.70   23.40
  -2  -4   2  962.10   23.20
  -2  -4   2  954.40   23.40
   1   4  -2  470.35   11.90
   1   4  -2  485.85   12.40
   1   4  -2  483.05   12.50
   1   4  -2  488.85   12.30
  -1  -4   2  499.55   12.00
  -1  -4   2  469.85   12.20
   0   4  -2   42.30    1.80
   0   4  -2   39.50    1.50
   0   4  -2   39.00    1.60
   0   4  -2   41.00    1.80
   0   4  -2   43.20    1.40
   0  -4   2   41.50    1.60
   0  -4   2   43.80    1.40
  -1   4  -2  368.16    9.10
  -1   4  -2  344.77    9.00
  -1   4  -2  360.16    8.50
  -1   4  -2  331.67    8.60
  -1   4  -2  348.57    8.60
  -1   4  -2  341.97    8.80
  -2   4  -2  138.99    3.50
  -2   4  -2  133.59    3.80
  -2   4  -2  135.49    4.00
  -2   4  -2  136.49    4.00
  -2   4  -2  134.19    3.50
  -2   4  -2  137.79    3.90
  -3   4  -2  494.65   13.50
  -3   4  -2  544.75   13.40
  -3   4  -2  569.24   13.20
  -3   4  -2  532.15   13.20
  -3   4  -2  566.34   13.60
   3  -4   2  548.45   13.50
  -4   4  -2  820.62   19.70
  -4   4  -2  808.42   20.00
   4  -4   2  799.22   19.90
  -5   4  -2  678.03   16.60
  -5   4  -2  676.63   17.50
  -5   4  -2  704.33   17.40
   5  -4   2  707.43   17.50
  -6   4  -2    9.00    1.20
  -6   4  -2   11.70    1.40
  -6   4  -2    9.70    0.80
   6  -4   2    9.20    1.30
  -7   4  -2   15.50    1.80
  -7   4  -2   18.30    1.70
  -7   4  -2   18.50    1.20
   7  -4   2   18.10    1.70
  -8   4  -2   37.70    2.70
  -8   4  -2   41.10    2.00
  -8   4  -2   40.30    2.20
  -8   4  -2   38.90    2.20
  -8   4  -2   39.70    2.60
   8  -4   2   39.40    2.60
  -9   4  -2  187.88    5.90
  -9   4  -2  189.78    5.70
  -9   4  -2  178.58    6.50
  -9   4  -2  186.28    5.80
 -10   4  -2    1.30    1.10
 -10   4  -2    2.30    0.70
 -10   4  -2    2.00    1.30
 -10   4  -2    2.10    0.90
 -10   4  -2    0.60    1.00
 -11   4  -2   13.90    1.50
 -11   4  -2   12.10    1.40
 -12   4  -2   89.59    3.20
 -12   4  -2   92.89    3.20
 -11  -3   2   16.50    1.40
 -10  -3   2   13.20    1.40
  -9  -3   2   98.59    3.80
  -8  -3   2   27.40    1.90
   7   3  -2  103.09    4.40
  -7  -3   2  105.39    4.50
  -7  -3   2  107.89    3.80
   6   3  -2  108.59    4.40
  -6  -3   2  114.29    4.60
   5   3  -2    2.00    0.80
  -5  -3   2    2.50    1.00
   4   3  -2    0.80    0.40
   4   3  -2    1.90    0.70
   4   3  -2    0.20    0.60
   4   3  -2    1.50    0.60
  -4  -3   2    0.40    0.50
  -4  -3   2    0.10    0.60
  -4  -3   2    0.20    0.40
   3   3  -2  365.96   10.00
   3   3  -2  366.36    9.50
   3   3  -2  367.76    9.90
  -3  -3   2  367.36    9.80
  -3  -3   2  352.26    9.50
  -3  -3   2  355.36    9.60
   2   3  -2    4.10    0.70
   2   3  -2    4.10    0.70
   2   3  -2    4.70    0.60
  -2  -3   2    3.50    0.60
  -2  -3   2    2.90    0.60
  -2  -3   2    3.60    0.60
  -2  -3   2    4.50    0.70
   1   3  -2  264.07    7.50
   1   3  -2  305.87    7.70
   1   3  -2  305.57    7.80
   1   3  -2  303.07    7.80
   1   3  -2  291.67    7.40
  -1  -3   2  297.87    7.40
  -1  -3   2  288.17    7.60
   0   3  -2  667.23   16.20
   0   3  -2  674.43   16.10
   0   3  -2  692.23   15.80
   0   3  -2  642.14   15.70
   0   3  -2  629.14   15.70
   0  -3   2  643.84   15.90
  -1   3  -2  389.86    9.70
  -1   3  -2  391.16    9.60
  -1   3  -2  368.46    9.40
  -2   3  -2   11.00    0.80
  -2   3  -2   10.50    0.40
  -2   3  -2   10.40    0.80
  -2   3  -2   11.20    0.70
  -2   3  -2   10.80    0.70
  -3   3  -2  143.09    4.00
  -3   3  -2  149.19    4.20
  -3   3  -2  152.78    4.00
   3  -3   2  150.88    3.80
   3  -3   2  140.39    3.90
   3  -3   2  144.09    4.20
   3  -3   2  150.58    3.70
  -4   3  -2  305.37    8.00
  -4   3  -2  322.67    8.40
  -4   3  -2  322.37    8.50
   4  -3   2  320.97    8.50
  -5   3  -2  164.78    5.10
  -5   3  -2  166.18    4.40
  -5   3  -2  167.08    5.20
   5  -3   2  165.48    5.20
  -6   3  -2  144.19    5.00
  -6   3  -2  147.19    4.90
  -6   3  -2  136.19    4.10
   6  -3   2  143.19    4.90
  -7   3  -2 1111.39   27.60
  -7   3  -2 1129.19   26.50
  -7   3  -2 1064.29   27.80
   7  -3   2 1065.19   27.40
  -8   3  -2   11.00    1.30
  -8   3  -2   17.50    1.70
  -8   3  -2    9.00    1.50
  -8   3  -2    9.80    1.60
  -8   3  -2    8.90    1.20
   8  -3   2    9.60    1.50
  -9   3  -2    1.90    0.80
  -9   3  -2    1.90    1.00
  -9   3  -2    2.60    1.20
  -9   3  -2    0.40    0.80
 -10   3  -2   83.79    2.80
 -10   3  -2   80.99    3.20
 -10   3  -2   87.29    3.50
 -10   3  -2   83.59    3.40
 -11   3  -2   39.30    2.20
 -11   3  -2   40.70    2.30
 -12   3  -2    3.90    0.90
 -12   3  -2    3.80    0.90
 -12  -2   2    1.60    0.60
 -11  -2   2   89.09    3.20
 -10  -2   2   27.70    2.00
  -9  -2   2  524.55   13.80
  -8  -2   2   40.20    2.30
   7   2  -2  114.99    4.70
  -7  -2   2  122.79    4.80
   6   2  -2   55.19    2.80
  -6  -2   2   56.39    3.00
   5   2  -2  326.47    9.00
  -5  -2   2  313.97    9.30
   4   2  -2  154.38    4.70
   4   2  -2  147.39    5.10
   4   2  -2  154.18    4.70
  -4  -2   2  147.89    4.60
  -4  -2   2  158.98    5.10
  -4  -2   2  143.99    4.70
   3   2  -2   65.39    2.50
   3   2  -2   61.19    2.60
   3   2  -2   61.79    2.30
  -3  -2   2   59.19    2.40
  -3  -2   2   66.79    2.60
  -3  -2   2   64.39    2.40
  -3  -2   2   65.99    2.40
   2   2  -2  198.48    5.70
   2   2  -2  206.38    5.60
   2   2  -2  200.68    5.40
  -2  -2   2  193.68    5.40
  -2  -2   2  203.68    5.60
  -2  -2   2  210.98    5.40
  -2  -2   2  202.38    5.50
   1   2  -2  327.27    8.30
   1   2  -2  323.27    8.10
   1   2  -2  314.67    8.10
   1   2  -2  332.57    8.30
  -1  -2   2  340.67    8.00
  -1  -2   2  328.07    8.30
  -1  -2   2  322.77    8.20
  -1  -2   2  321.97    8.20
   0   2  -2 3126.49   67.69
   0   2  -2 2882.31   68.59
   0   2  -2 2587.04   66.89
   0   2  -2 2636.94   66.39
   0   2  -2 3133.29   66.99
   0   2  -2 2539.85   66.49
  -1   2  -2 1086.99   25.90
  -1   2  -2 1096.89   25.80
  -1   2  -2 1097.99   26.00
  -1   2  -2 1088.29   25.90
  -2   2  -2  568.34   13.70
  -2   2  -2  570.14   13.70
  -2   2  -2  556.54   13.60
  -2   2  -2  573.54   13.60
   2  -2   2  574.34   13.70
   2  -2   2  567.34   13.90
  -3   2  -2  488.25   12.30
  -3   2  -2  503.15   12.40
  -3   2  -2  492.15   12.30
  -3   2  -2  497.55   12.00
   3  -2   2  489.35   12.00
   3  -2   2  498.15   12.10
   3  -2   2  522.75   12.50
  -4   2  -2   84.09    3.00
  -4   2  -2   86.99    3.00
   4  -2   2   87.99    3.10
  -5   2  -2  124.39    3.50
  -5   2  -2  120.99    4.20
  -5   2  -2  124.39    4.10
   5  -2   2  125.79    4.20
  -6   2  -2   98.09    3.20
  -6   2  -2  104.89    3.90
  -6   2  -2   99.89    4.00
   6  -2   2  104.59    4.00
  -7   2  -2   99.19    4.10
  -7   2  -2  100.79    4.40
  -7   2  -2  102.99    3.40
   7  -2   2  100.99    4.10
  -8   2  -2  214.48    6.00
  -8   2  -2  209.28    6.70
  -8   2  -2  198.88    6.00
  -8   2  -2  198.48    6.80
  -8   2  -2  204.18    6.20
   8  -2   2  200.68    6.90
  -9   2  -2  158.88    4.50
  -9   2  -2  157.28    5.00
  -9   2  -2  152.58    5.70
  -9   2  -2  154.48    5.10
  -9   2  -2  162.88    5.10
 -10   2  -2   72.39    3.10
 -10   2  -2   66.89    3.00
 -10   2  -2   73.99    2.50
 -11   2  -2   10.40    1.30
 -11   2  -2   10.50    1.30
 -12   2  -2  123.79    3.80
 -12  -1   2  124.69    3.80
 -11  -1   2   48.00    2.40
 -10  -1   2   25.90    2.00
  -9  -1   2  118.09    4.20
   8   1  -2   10.00    1.60
  -8  -1   2   10.20    1.60
  -8  -1   2   12.30    1.40
   7   1  -2   37.90    2.60
  -7  -1   2   40.00    2.50
   6   1  -2   54.09    2.70
  -6  -1   2   50.09    2.70
  -5  -1   2 1484.65   36.50
  -5  -1   2 1541.75   37.00
   4   1  -2    2.70    0.60
   4   1  -2    2.80    0.60
   4   1  -2    2.30    0.70
  -4  -1   2    3.00    0.60
  -4  -1   2    2.60    0.60
  -4  -1   2    3.00    0.60
  -4  -1   2    2.50    0.70
   3   1  -2 2424.06   58.29
   3   1  -2 2441.36   57.69
   3   1  -2 2464.85   58.19
  -3  -1   2 2423.76   57.89
  -3  -1   2 2457.05   58.19
  -3  -1   2 2489.85   59.09
  -3  -1   2 2413.36   57.89
   2   1  -2 5625.94  138.39
   2   1  -2 6094.69  139.79
   2   1  -2 5711.13  139.59
  -2  -1   2 5848.31  138.39
  -2  -1   2 5613.14  138.69
  -2  -1   2 6005.00  139.39
  -2  -1   2 5923.61  139.19
   1   1  -2    4.10    0.40
   1   1  -2    4.60    0.50
   1   1  -2    3.50    0.30
   1   1  -2    4.50    0.50
  -1  -1   2    4.20    0.50
  -1  -1   2    4.10    0.30
  -1  -1   2    3.90    0.50
  -1  -1   2    3.70    0.30
   0   1  -2  254.27    6.50
   0   1  -2  284.17    6.60
   0   1  -2  278.37    6.70
   0   1  -2  277.97    6.90
   0  -1   2  269.57    6.60
   0  -1   2  280.87    6.80
  -1   1  -2  128.59    3.50
  -1   1  -2  135.29    3.30
  -1   1  -2  132.39    3.40
  -1   1  -2  131.59    3.30
   1  -1   2  137.69    3.60
  -2   1  -2  232.08    5.70
  -2   1  -2  228.78    6.00
  -2   1  -2  230.28    6.10
  -2   1  -2  239.58    6.10
   2  -1   2  242.98    6.00
   2  -1   2  231.48    5.70
   2  -1   2  247.68    5.90
   2  -1   2  248.58    6.20
  -3   1  -2    5.50    0.70
  -3   1  -2    4.90    0.60
  -3   1  -2    4.40    0.60
   3  -1   2    4.60    0.60
   3  -1   2    5.10    0.70
   3  -1   2    6.40    0.50
  -4   1  -2  154.08    4.60
  -4   1  -2  153.38    4.80
   4  -1   2  155.18    4.70
  -5   1  -2   22.90    1.70
  -5   1  -2   25.50    1.20
  -5   1  -2   26.00    1.60
   5  -1   2   26.30    1.70
  -6   1  -2  157.48    4.50
  -6   1  -2  157.48    5.20
  -6   1  -2  148.89    5.50
   6  -1   2  157.18    5.30
  -7   1  -2  514.25   12.90
  -7   1  -2  495.15   13.60
  -7   1  -2  504.55   14.40
   7  -1   2  492.05   13.80
  -8   1  -2  129.39    4.60
  -8   1  -2  114.89    5.10
  -8   1  -2  117.79    4.00
  -8   1  -2  114.49    4.10
  -8   1  -2  127.19    4.10
   8  -1   2  114.39    4.80
  -9   1  -2   25.80    1.50
  -9   1  -2   29.20    2.10
  -9   1  -2   29.40    1.90
 -10   1  -2   10.60    1.30
 -10   1  -2   10.00    1.30
 -11   1  -2   11.60    1.30
 -12   1  -2  119.09    3.60
 -12   0   2   63.99    2.50
 -11   0   2   52.29    2.50
 -10   0   2   10.50    1.40
  -9   0   2   33.30    2.10
   8   0  -2  188.98    6.60
  -8   0   2  189.38    6.60
  -8   0   2  188.88    5.80
   7   0  -2   20.70    2.00
  -7   0   2   20.70    2.00
   6   0  -2    5.90    1.10
  -6   0   2    1.60    0.80
   5   0  -2 1347.17   31.90
  -5   0   2 1308.07   32.20
  -5   0   2 1302.97   32.30
  -5   0   2 1289.57   31.70
   4   0  -2  102.49    3.90
   4   0  -2  111.89    3.50
   4   0  -2  110.49    3.40
  -4   0   2  106.69    3.70
  -4   0   2  106.59    3.50
  -4   0   2  110.79    3.50
  -4   0   2  117.19    3.80
   3   0  -2 3785.72   85.99
  -3   0   2 3578.94   87.59
  -3   0   2 3564.14   85.09
  -3   0   2 3506.35   87.49
  -3   0   2 3603.24   84.99
   2   0  -2  136.39    3.80
   2   0  -2  134.69    3.70
   2   0  -2  139.69    4.00
  -2   0   2  140.69    4.00
  -2   0   2  133.69    3.80
  -2   0   2  137.59    3.70
  -2   0   2  139.39    4.00
   1   0  -2   94.99    2.70
   1   0  -2  104.09    2.80
   1   0  -2   99.99    2.60
  -1   0   2  104.99    2.70
  -1   0   2  107.59    2.90
  -1   0   2   95.69    2.80
  -1   0   2   97.19    2.80
  -1   0   2   96.69    2.70
   0   0  -2 1429.26   34.00
   0   0  -2 1478.55   34.20
   0   0   2 1383.96   33.90
   0   0   2 1411.16   34.00
  -1   0  -2    6.50    0.50
  -1   0  -2    4.20    0.50
  -1   0  -2    4.50    0.40
  -1   0  -2    5.20    0.30
   1   0   2    3.90    0.50
   1   0   2    4.10    0.40
  -2   0  -2   50.19    1.90
  -2   0  -2   50.09    1.70
  -2   0  -2   54.79    2.00
   2   0   2   54.69    1.90
   2   0   2   51.29    1.90
   2   0   2   53.59    1.80
  -3   0  -2  167.28    5.00
  -3   0  -2  167.18    4.70
   3   0   2  172.68    4.80
   3   0   2  152.38    4.80
   3   0   2  161.08    4.50
  -4   0  -2    7.60    0.70
  -4   0  -2    6.80    1.00
  -4   0  -2    6.50    0.90
   4   0   2    6.50    0.70
   4   0   2    7.10    1.00
  -5   0  -2  828.02   21.00
  -5   0  -2  811.32   20.40
  -5   0  -2  808.12   19.80
   5   0   2  815.52   20.60
  -6   0  -2  162.68    5.90
  -6   0  -2  168.58    4.90
  -6   0  -2  169.78    5.50
   6   0   2  168.78    5.60
  -7   0  -2    1.80    0.90
  -7   0  -2    2.80    0.70
   7   0   2    1.70    1.00
  -8   0  -2  439.36   11.50
  -8   0  -2  429.16   10.90
  -8   0  -2  440.26   11.60
  -9   0  -2  601.44   14.60
  -9   0  -2  593.74   15.40
 -10   0  -2    2.90    1.00
 -11   0  -2    1.80    0.80
 -12   0  -2  154.08    4.30
 -12   1   2  265.57    7.30
 -11   1   2   12.80    1.40
 -10   1   2   37.10    2.30
  -9   1   2    5.70    1.10
  -9   1   2    5.30    1.10
   8  -1  -2   12.20    1.80
  -8   1   2   13.90    1.90
   7  -1  -2  133.59    4.80
  -7   1   2  119.29    4.00
  -7   1   2  127.29    4.80
   6  -1  -2   64.69    2.80
  -6   1   2   56.49    2.10
  -6   1   2   57.79    2.80
  -6   1   2   54.79    2.80
   5  -1  -2  596.84   14.90
  -5   1   2  566.84   14.30
  -5   1   2  598.94   14.90
  -5   1   2  608.74   15.30
  -5   1   2  574.84   15.30
   4  -1  -2 1027.30   25.80
   4  -1  -2 1055.89   25.20
  -4   1   2 1018.50   24.90
  -4   1   2 1069.69   25.50
  -4   1   2 1012.50   25.20
  -4   1   2 1070.09   25.60
  -4   1   2 1052.99   25.40
   3  -1  -2  842.72   19.60
   3  -1  -2  794.32   20.00
  -3   1   2  789.02   19.50
  -3   1   2  812.52   19.60
  -3   1   2  806.52   19.90
  -3   1   2  847.32   19.80
  -3   1   2  806.02   19.90
   2  -1  -2 2240.38   55.09
  -2   1   2 2394.36   55.19
  -2   1   2 2117.39   53.69
  -2   1   2 2342.27   53.99
  -2   1   2 2333.87   54.89
   1  -1  -2 1409.96   35.20
   1  -1  -2 1579.14   36.30
  -1   1   2 1549.05   35.00
  -1   1   2 1277.57   35.00
  -1   1   2 1639.94   36.30
  -1   1   2 1451.95   35.00
   0  -1  -2  158.28    4.00
   0  -1  -2  162.58    4.10
   0  -1  -2  160.48    4.20
   0   1   2  159.88    4.30
   0   1   2  161.88    4.10
   0   1   2  156.38    4.00
  -1  -1  -2  820.32   19.40
  -1  -1  -2  802.72   18.80
  -1  -1  -2  789.62   19.10
  -1  -1  -2  795.42   19.00
   1   1   2  813.12   19.20
   1   1   2  845.72   19.30
   1   1   2  799.52   18.80
   1   1   2  719.13   19.10
  -2  -1  -2 3740.83   95.59
  -2  -1  -2 3941.41   97.19
  -2  -1  -2 3720.23   98.49
   2   1   2 4654.73   97.59
   2   1   2 4559.84   97.69
   2   1   2 3839.72   96.99
  -3  -1  -2   10.00    1.10
  -3  -1  -2   10.50    1.00
   3   1   2    9.50    0.80
   3   1   2    9.90    0.90
  -4  -1  -2  667.73   16.30
  -4  -1  -2  669.73   17.30
  -4  -1  -2  682.53   16.90
   4   1   2  681.03   17.00
   4   1   2  647.54   16.70
  -5  -1  -2  544.85   13.90
  -5  -1  -2  528.45   13.30
  -5  -1  -2  514.55   14.50
   5   1   2  539.25   14.00
  -6  -1  -2  418.26   10.80
  -6  -1  -2  413.26   11.40
   6   1   2  416.66   11.60
  -7  -1  -2  874.31   21.60
  -7  -1  -2  856.61   23.10
  -7  -1  -2  880.61   22.20
   7   1   2  882.71   22.60
  -8  -1  -2  536.75   13.20
  -8  -1  -2  534.45   13.90
  -9  -1  -2  219.18    6.50
  -9  -1  -2  219.18    5.80
 -10  -1  -2    0.50    0.80
 -11  -1  -2   15.20    1.30
 -13   2   2   13.10    1.10
 -12   2   2  202.18    5.90
  11  -2  -2    0.70    0.70
 -11   2   2    1.90    1.00
 -10   2   2    2.60    1.10
 -10   2   2    1.60    1.00
  -9   2   2    0.50    1.00
  -9   2   2    3.80    1.10
   8  -2  -2  318.97    9.60
  -8   2   2  307.87    8.90
  -8   2   2  337.87    9.90
   7  -2  -2  151.98    5.20
  -7   2   2  150.28    5.40
  -7   2   2  145.49    4.40
   6  -2  -2    9.90    1.20
  -6   2   2   10.80    1.10
  -6   2   2    9.50    1.30
  -6   2   2   10.20    0.90
  -6   2   2   11.60    1.40
   5  -2  -2  244.38    6.50
  -5   2   2  228.38    6.60
  -5   2   2  234.38    6.10
  -5   2   2  231.08    6.80
  -5   2   2  229.98    6.90
   4  -2  -2   37.50    1.90
   4  -2  -2   42.60    1.70
  -4   2   2   41.00    1.30
  -4   2   2   42.80    1.90
  -4   2   2   41.60    1.90
  -4   2   2   43.20    1.90
   3  -2  -2  346.07    8.50
   3  -2  -2  322.97    8.90
  -3   2   2  339.77    8.80
  -3   2   2  341.87    8.50
  -3   2   2  336.77    8.50
  -3   2   2  348.17    8.70
  -3   2   2  342.27    8.70
   2  -2  -2  104.69    3.20
   2  -2  -2  101.79    2.70
  -2   2   2  105.09    3.10
  -2   2   2  101.89    2.90
  -2   2   2  108.89    3.00
  -2   2   2  106.49    2.90
   1  -2  -2  260.47    6.40
   1  -2  -2  256.77    6.80
   1  -2  -2  275.67    6.80
  -1   2   2  268.27    6.70
  -1   2   2  269.17    7.00
  -1   2   2  262.17    6.50
  -1   2   2  267.77    6.70
   0  -2  -2  642.74   15.50
   0  -2  -2  624.64   15.10
   0  -2  -2  616.74   15.30
   0   2   2  636.54   15.10
   0   2   2  620.94   15.30
   0   2   2  644.24   15.60
  -1  -2  -2  530.55   13.10
  -1  -2  -2  525.35   12.80
   1   2   2  501.55   12.60
   1   2   2  513.75   12.80
   1   2   2  520.25   12.40
   1   2   2  496.05   13.00
  -2  -2  -2 1415.66   33.30
  -2  -2  -2 1420.16   32.90
  -2  -2  -2 1409.96   32.90
   2   2   2 1367.66   32.80
   2   2   2 1368.96   33.20
   2   2   2 1210.88   33.00
   2   2   2 1413.36   32.30
  -3  -2  -2   10.10    1.20
  -3  -2  -2   11.60    1.10
   3   2   2   13.10    1.10
   3   2   2    9.80    1.00
  -4  -2  -2   10.60    1.30
  -4  -2  -2   10.40    1.20
  -4  -2  -2    8.20    0.80
   4   2   2   11.30    1.20
   4   2   2    9.10    1.00
  -5  -2  -2  223.08    6.80
  -5  -2  -2  225.38    6.20
   5   2   2  231.78    6.90
  -6  -2  -2  183.18    6.00
   6   2   2  186.98    6.10
  -7  -2  -2  468.15   12.30
   7   2   2  469.15   13.20
  -8  -2  -2   89.59    3.40
  -8  -2  -2   84.59    2.70
  -9  -2  -2   15.30    1.60
 -10  -2  -2    9.20    1.20
 -11  -2  -2   22.10    1.40
 -13   3   2   10.70    1.10
  12  -3  -2   31.30    1.70
 -12   3   2   36.40    2.10
 -11   3   2   41.30    2.40
 -11   3   2   34.60    2.30
 -10   3   2   32.80    2.20
 -10   3   2   35.50    2.40
   9  -3  -2  155.48    6.20
  -9   3   2  175.18    5.40
  -9   3   2  178.58    5.40
   8  -3  -2   14.90    1.70
  -8   3   2   15.50    1.90
  -8   3   2   13.30    1.30
   7  -3  -2  405.16   11.00
  -7   3   2  385.46   11.50
  -7   3   2  404.46   11.40
  -7   3   2  396.66   10.30
   6  -3  -2  116.19    3.90
  -6   3   2  118.89    3.40
  -6   3   2  113.79    4.30
  -6   3   2  112.89    3.90
  -6   3   2  111.99    4.30
   5  -3  -2    2.40    0.60
  -5   3   2    2.80    0.70
  -5   3   2    3.90    0.80
  -5   3   2    2.50    0.70
  -5   3   2    6.40    0.60
   4  -3  -2  303.97    7.70
  -4   3   2  306.77    8.20
  -4   3   2  292.67    7.50
  -4   3   2  300.07    8.10
  -4   3   2  302.27    8.10
   3  -3  -2 1561.34   40.00
   3  -3  -2 1649.44   39.40
  -3   3   2 1660.73   39.60
  -3   3   2 1695.13   39.90
  -3   3   2 1703.43   40.00
  -3   3   2 1692.43   39.80
  -3   3   2 1763.42   39.80
   2  -3  -2   26.00    1.20
   2  -3  -2   25.10    0.80
   2  -3  -2   24.40    1.20
  -2   3   2   24.70    1.20
  -2   3   2   25.60    1.10
  -2   3   2   26.10    1.30
  -2   3   2   26.40    1.00
  -2   3   2   25.50    1.20
   1  -3  -2 5042.60  124.79
   1  -3  -2 5492.15  122.09
   1  -3  -2 5135.49  125.29
  -1   3   2 5434.16  123.49
  -1   3   2 5455.45  123.99
  -1   3   2 4668.03  124.59
   0  -3  -2  452.95   10.90
   0  -3  -2  439.56   11.10
   0  -3  -2  418.26   10.50
   0   3   2  426.46   11.10
   0   3   2  407.86   10.40
   0   3   2  438.76   10.60
   0   3   2  432.76   10.80
  -1  -3  -2  497.15   12.70
  -1  -3  -2  507.15   12.40
  -1  -3  -2  487.65   12.00
   1   3   2  438.56   12.60
   1   3   2  482.75   12.00
   1   3   2  500.25   12.40
   1   3   2  507.45   12.00
  -2  -3  -2  291.87    7.80
  -2  -3  -2  302.87    8.40
  -2  -3  -2  299.67    8.00
   2   3   2  285.77    8.20
   2   3   2  306.97    8.30
   2   3   2  284.07    7.70
   2   3   2  292.27    7.40
  -3  -3  -2   70.49    2.80
  -3  -3  -2   69.19    3.10
   3   3   2   69.09    2.70
   3   3   2   74.19    3.00
  -4  -3  -2   33.00    2.00
   4   3   2   35.00    2.00
   4   3   2   34.40    1.90
  -5  -3  -2  687.63   17.90
   5   3   2  691.93   17.90
   6   3   2  427.56   12.00
  -7  -3  -2  332.97    9.20
  -7  -3  -2  338.97    8.50
  -8  -3  -2    0.40    0.80
  -9  -3  -2   10.90    1.30
 -10  -3  -2   24.60    1.60
 -11  -3  -2   16.00    1.10
  13  -4  -2   33.70    1.50
 -13   4   2   36.50    1.80
  12  -4  -2   86.89    3.10
 -12   4   2   92.39    3.40
 -11   4   2    0.10    0.90
 -11   4   2    0.90    1.10
 -10   4   2    7.90    1.30
 -10   4   2    9.50    1.40
  -9   4   2  167.88    5.50
  -9   4   2  173.88    5.30
  -9   4   2  174.68    5.50
   8  -4  -2  960.70   24.80
  -8   4   2  957.00   25.40
  -8   4   2 1029.10   24.10
   7  -4  -2   87.29    3.40
  -7   4   2   93.19    4.00
  -7   4   2   92.39    3.00
  -7   4   2   83.59    3.80
   6  -4  -2  137.19    4.40
  -6   4   2  148.19    5.00
  -6   4   2  144.69    4.10
  -6   4   2  140.29    4.90
  -6   4   2  143.99    4.80
   5  -4  -2  384.96   10.10
  -5   4   2  393.76    9.90
  -5   4   2  393.26   10.60
  -5   4   2  413.16   10.70
  -5   4   2  409.46   10.70
   4  -4  -2  619.84   15.40
  -4   4   2  649.24   16.20
  -4   4   2  642.64   16.00
  -4   4   2  644.44   15.90
  -4   4   2  630.24   15.60
  -4   4   2  635.24   15.30
   3  -4  -2    8.30    0.80
   3  -4  -2    7.50    0.50
  -3   4   2    8.30    0.90
  -3   4   2    8.90    0.90
  -3   4   2    7.60    0.70
  -3   4   2    8.00    0.80
   2  -4  -2  209.38    5.70
   2  -4  -2  186.78    5.70
  -2   4   2  197.48    5.30
  -2   4   2  209.18    5.70
  -2   4   2  203.78    5.40
  -2   4   2  207.18    5.60
  -2   4   2  216.18    5.90
   1  -4  -2 2641.04   62.39
   1  -4  -2 2489.45   62.49
  -1   4   2 2840.52   62.99
  -1   4   2 2593.84   62.49
  -1   4   2 2570.44   62.79
  -1   4   2 2680.63   62.79
   0  -4  -2  120.99    3.40
   0  -4  -2  113.69    4.00
   0  -4  -2  122.29    3.90
   0   4   2  123.29    4.10
   0   4   2  118.89    3.70
   0   4   2  114.69    3.20
   0   4   2  125.39    3.60
  -1  -4  -2  316.77    8.20
  -1  -4  -2  303.77    8.80
  -1  -4  -2  330.47    8.60
   1   4   2  320.17    8.90
   1   4   2  298.97    8.10
   1   4   2  330.27    8.60
   1   4   2  310.07    8.10
  -2  -4  -2  528.55   13.50
  -2  -4  -2  511.35   13.70
   2   4   2  532.25   14.00
   2   4   2  511.75   13.10
   2   4   2  569.04   14.10
   2   4   2  534.45   13.40
  -3  -4  -2   86.29    3.30
   3   4   2   86.39    3.20
   3   4   2   90.69    3.60
  -4  -4  -2   11.30    1.40
   4   4   2   10.60    1.30
  -5  -4  -2  634.94   16.90
   5   4   2  653.33   16.90
  -6  -4  -2    5.70    0.70
  -6  -4  -2    4.50    1.00
   6   4   2    4.50    1.20
  -7  -4  -2   85.39    3.30
  -8  -4  -2    8.90    1.20
  -9  -4  -2   69.49    2.80
 -10  -4  -2   84.79    2.90
  13  -5  -2   23.00    1.30
 -13   5   2   21.10    1.40
  12  -5  -2   11.30    1.20
 -12   5   2   10.20    1.30
 -11   5   2    4.70    1.30
 -11   5   2    2.90    1.10
 -10   5   2    1.40    1.10
 -10   5   2    1.10    1.00
  -9   5   2   53.89    2.70
  -9   5   2   55.59    2.50
  -9   5   2   53.09    2.70
  -8   5   2   29.50    1.70
  -8   5   2   26.40    2.30
  -8   5   2   29.60    2.50
  -7   5   2   11.00    1.60
  -7   5   2   12.20    1.50
  -7   5   2   12.90    1.10
  -6   5   2  422.76   11.40
  -6   5   2  404.16   11.20
  -6   5   2  406.06   10.30
  -6   5   2  404.26   11.20
  -5   5   2  121.89    4.20
  -5   5   2  124.49    4.40
  -5   5   2  129.39    3.60
  -5   5   2  126.89    4.20
  -4   5   2  240.98    7.50
  -4   5   2  225.68    6.40
  -4   5   2  228.58    6.80
  -4   5   2  229.38    6.50
  -4   5   2  227.08    5.90
   3  -5  -2  151.38    4.50
  -3   5   2  146.29    4.40
  -3   5   2  146.69    4.30
  -3   5   2  144.99    4.60
  -3   5   2  148.39    4.60
   2  -5  -2 5538.65  114.59
  -2   5   2 4569.04  112.19
  -2   5   2 4639.54  111.69
  -2   5   2 4245.68  112.39
   1  -5  -2 1092.89   27.10
  -1   5   2 1156.08   27.50
  -1   5   2 1080.99   26.60
  -1   5   2 1109.59   27.00
   0  -5  -2   98.79    3.20
   0  -5  -2  109.39    3.70
   0   5   2   96.79    3.40
   0   5   2  101.89    3.30
   0   5   2  105.29    3.90
  -1  -5  -2  235.48    6.50
  -1  -5  -2  233.88    7.00
   1   5   2  238.48    6.50
   1   5   2  240.78    7.30
   1   5   2  235.78    7.00
   1   5   2  247.78    6.70
  -2  -5  -2   41.10    2.00
   2   5   2   42.90    2.20
   2   5   2   46.00    2.50
   2   5   2   40.00    1.90
  -3  -5  -2  350.36    9.80
   3   5   2  357.46   10.30
   3   5   2  347.87    9.50
  -4  -5  -2    5.40    1.10
   4   5   2    3.80    1.00
   4   5   2    5.40    1.00
   5   5   2  174.58    6.80
  -6  -5  -2  279.67    7.90
  -7  -5  -2   52.69    2.60
  -8  -5  -2   16.00    1.60
  -9  -5  -2    6.70    1.00
 -10  -5  -2    9.80    0.90
  13  -6  -2   59.89    2.20
 -13   6   2   61.39    2.30
  12  -6  -2  102.09    3.50
 -12   6   2  103.29    3.70
 -11   6   2    3.20    1.10
 -11   6   2    4.20    1.30
 -10   6   2    8.20    1.50
 -10   6   2   11.20    1.30
 -10   6   2   10.60    1.50
  -9   6   2  853.61   21.50
  -9   6   2  860.81   21.60
  -9   6   2  856.21   21.30
  -8   6   2   53.79    3.30
  -8   6   2   63.89    2.90
  -8   6   2   56.49    2.60
  -8   6   2   56.09    2.60
  -8   6   2   53.09    2.40
  -7   6   2   40.90    2.50
  -7   6   2   39.10    1.80
  -7   6   2   37.50    2.60
  -6   6   2  323.77    8.20
  -6   6   2  314.97    9.20
  -6   6   2  323.77    9.30
  -6   6   2  318.07    9.40
  -5   6   2   32.80    2.10
  -5   6   2   34.70    1.90
  -5   6   2   31.90    1.90
   4  -6  -2  246.28    7.10
  -4   6   2  241.98    7.00
  -4   6   2  250.47    6.90
  -4   6   2  250.17    7.40
   3  -6  -2  124.49    4.20
  -3   6   2  132.09    4.10
  -3   6   2  122.99    3.40
  -3   6   2  116.59    4.20
  -3   6   2  134.59    4.40
  -3   6   2  124.69    3.90
   2  -6  -2   33.50    1.90
  -2   6   2   33.10    1.60
  -2   6   2   33.10    1.20
  -2   6   2   35.20    1.90
  -2   6   2   33.00    1.70
  -2   6   2   35.90    2.10
   1  -6  -2  393.96   10.60
  -1   6   2  402.06   10.40
  -1   6   2  383.76    9.60
  -1   6   2  393.66   11.00
  -1   6   2  386.86   10.40
  -1   6   2  385.36   10.10
   0  -6  -2  513.85   13.40
   0  -6  -2  502.35   12.80
   0   6   2  504.55   12.40
   0   6   2  492.25   13.90
   0   6   2  507.35   13.00
   0   6   2  506.45   13.30
  -1  -6  -2  351.26    9.80
  -1  -6  -2  340.37    9.30
   1   6   2  359.66   10.30
   1   6   2  345.37    9.80
   1   6   2  337.77    9.20
   1   6   2  336.37    8.70
  -2  -6  -2  510.05   13.60
   2   6   2  524.85   14.40
  -3  -6  -2   57.09    2.80
   3   6   2   56.69    3.10
  -5  -6  -2  594.04   15.30
  -6  -6  -2    3.20    0.90
  -7  -6  -2  102.29    3.70
  -8  -6  -2   14.80    1.40
  -9  -6  -2  104.39    3.30
  13  -7  -2   10.80    1.00
 -13   7   2    9.70    1.00
  12  -7  -2   55.79    2.40
 -12   7   2   52.89    2.60
 -11   7   2  283.97    8.10
 -11   7   2  279.07    8.10
 -10   7   2    6.40    1.30
 -10   7   2    3.10    1.20
  -9   7   2  149.99    4.70
  -9   7   2  143.09    4.90
  -9   7   2  138.49    5.40
  -9   7   2  139.69    4.90
  -8   7   2   26.60    2.30
  -8   7   2   25.80    1.60
  -8   7   2   24.40    1.90
  -8   7   2   28.60    1.90
  -8   7   2   24.80    2.50
  -7   7   2  241.48    7.70
  -7   7   2  225.18    7.60
  -7   7   2  231.48    7.60
  -7   7   2  243.88    7.40
  -7   7   2  228.78    7.20
  -7   7   2  240.58    6.50
  -6   7   2  122.69    4.70
  -6   7   2  133.79    3.90
  -6   7   2  135.89    4.80
  -6   7   2  130.09    5.00
  -5   7   2   78.79    3.50
  -5   7   2   77.79    3.20
  -5   7   2   77.99    3.20
   4  -7  -2   14.40    1.40
  -4   7   2   13.90    1.30
  -4   7   2   13.90    1.30
  -4   7   2   13.80    0.90
  -4   7   2   12.80    1.50
   3  -7  -2 1183.68   29.80
  -3   7   2 1201.08   29.50
  -3   7   2 1197.98   28.70
  -3   7   2 1213.88   29.40
  -3   7   2 1179.48   29.90
  -3   7   2 1259.17   30.10
   2  -7  -2 4281.57  106.09
  -2   7   2 4654.03  106.59
  -2   7   2 4463.05  105.79
  -2   7   2 4525.55  105.49
  -2   7   2 4507.45  105.99
  -2   7   2 4440.16  105.29
   1  -7  -2  942.31   23.80
   1  -7  -2  977.90   23.10
  -1   7   2  845.92   24.10
  -1   7   2  927.71   23.40
  -1   7   2  955.80   22.50
  -1   7   2  980.10   23.50
   0  -7  -2  394.86   10.50
   0  -7  -2  383.06   11.00
   0   7   2  408.96   11.60
   0   7   2  390.06   10.60
   0   7   2  393.86   11.00
   0   7   2  388.06    9.90
  -1  -7  -2   84.89    3.30
   1   7   2   80.19    2.70
   1   7   2   80.19    3.90
   1   7   2   88.19    4.30
   1   7   2   75.89    3.10
  -2  -7  -2  120.39    4.40
   2   7   2  120.59    5.10
  -4  -7  -2   25.90    1.90
   4   7   2   26.80    1.50
  -5  -7  -2   73.39    3.10
  -6  -7  -2  189.18    5.80
  -7  -7  -2   13.90    1.40
  -8  -7  -2   25.40    1.60
  -9  -7  -2    0.50    0.50
  13  -8  -2    7.60    0.90
 -13   8   2    7.10    0.90
  12  -8  -2  178.28    5.20
 -12   8   2  178.58    5.40
  11  -8  -2    0.00    0.90
 -11   8   2    0.50    1.00
 -10   8   2  103.89    3.80
 -10   8   2  112.29    4.20
 -10   8   2  102.59    4.00
 -10   8   2  104.19    4.70
  -9   8   2  599.14   15.30
  -9   8   2  585.64   16.20
  -9   8   2  589.64   15.40
  -8   8   2   27.10    2.00
  -8   8   2   30.80    2.00
  -8   8   2   26.10    2.30
  -8   8   2   24.00    1.80
  -7   8   2    1.70    0.90
  -7   8   2    1.40    1.00
  -7   8   2    1.70    1.00
  -6   8   2   92.79    2.90
  -6   8   2   88.89    3.70
  -6   8   2   86.29    4.00
  -6   8   2   81.19    3.70
  -6   8   2   92.19    4.20
  -6   8   2   86.79    3.80
   5  -8  -2  242.18    7.70
  -5   8   2  247.08    7.50
  -5   8   2  235.18    7.30
  -5   8   2  246.18    8.00
  -5   8   2  247.18    6.50
   4  -8  -2  242.88    7.80
  -4   8   2  255.67    7.70
  -4   8   2  273.27    6.80
  -4   8   2  261.67    8.20
  -4   8   2  266.07    7.60
   3  -8  -2  637.74   17.30
  -3   8   2  673.93   16.00
  -3   8   2  641.64   17.20
  -3   8   2  660.63   16.70
  -3   8   2  637.34   17.40
  -3   8   2  666.93   17.00
   2  -8  -2   64.19    3.20
  -2   8   2   71.49    2.30
  -2   8   2   70.59    3.00
  -2   8   2   64.99    3.40
  -2   8   2   64.69    3.10
  -2   8   2   66.19    2.80
   1  -8  -2    7.90    1.10
   1  -8  -2    5.30    1.00
  -1   8   2    6.50    1.30
  -1   8   2    5.40    1.10
  -1   8   2    6.70    1.10
  -1   8   2    7.40    0.80
   0  -8  -2  110.09    4.40
   0  -8  -2  110.29    4.00
   0   8   2  109.99    3.40
   0   8   2  102.69    4.30
   0   8   2  107.49    4.80
   0   8   2  106.39    4.00
  -1  -8  -2    2.80    0.90
   1   8   2    2.10    0.60
   1   8   2    3.20    1.10
   3   8   2    5.20    1.10
   3   8   2    3.40    0.80
  -4  -8  -2  217.88    6.60
   4   8   2  215.88    6.10
  -5  -8  -2   37.30    2.20
   5   8   2   38.10    1.90
  -6  -8  -2  149.39    4.80
  -7  -8  -2   39.40    2.00
  -8  -8  -2    6.60    0.80
  13  -9  -2   29.30    1.40
 -13   9   2   28.30    1.50
  12  -9  -2   36.40    1.90
 -12   9   2   33.30    2.00
  11  -9  -2  281.67    7.60
 -11   9   2  268.07    8.60
 -11   9   2  276.17    7.90
  10  -9  -2    8.70    1.30
 -10   9   2    7.00    1.60
 -10   9   2    6.90    1.30
 -10   9   2    5.60    1.00
  -9   9   2    0.40    1.20
  -9   9   2    0.50    1.00
  -9   9   2    0.30    0.70
  -9   9   2    1.50    0.90
  -8   9   2  361.56   10.00
  -8   9   2  367.26   10.20
  -8   9   2  368.36    9.70
  -8   9   2  368.16   10.90
  -8   9   2  359.46    9.80
  -7   9   2   20.00    1.90
  -7   9   2   18.40    2.10
  -7   9   2   20.60    1.40
  -7   9   2   16.90    2.00
  -7   9   2   17.70    1.50
  -6   9   2   80.19    3.70
  -6   9   2   82.99    3.40
  -6   9   2   85.79    2.90
  -6   9   2   80.49    3.70
   5  -9  -2   38.80    2.50
  -5   9   2   39.50    2.10
  -5   9   2   38.80    1.70
  -5   9   2   42.20    2.50
  -5   9   2   36.90    2.30
  -5   9   2   38.50    2.40
   4  -9  -2   17.90    1.70
  -4   9   2   14.00    1.10
  -4   9   2   14.30    1.50
  -4   9   2   14.20    1.80
  -4   9   2   14.10    1.50
   3  -9  -2 1378.96   34.90
  -3   9   2 1367.26   35.10
  -3   9   2 1359.66   34.70
  -3   9   2 1463.95   33.20
  -3   9   2 1361.66   34.10
  -3   9   2 1402.56   34.50
   2  -9  -2  371.96   10.20
   2  -9  -2  353.56   10.80
  -2   9   2  368.16   11.30
  -2   9   2  371.46    9.40
  -2   9   2  358.86   10.50
  -2   9   2  368.86   10.60
   1  -9  -2    4.40    1.00
   1  -9  -2    4.10    1.10
  -1   9   2    4.30    0.70
  -1   9   2    3.90    1.10
  -1   9   2    3.10    1.20
  -1   9   2    3.70    1.00
   0  -9  -2   22.20    1.90
   0  -9  -2   33.40    1.80
   0   9   2   22.50    1.40
   0   9   2   21.60    1.90
   1   9   2   26.30    1.60
   1   9   2   23.90    1.50
   2   9   2  159.88    4.90
   2   9   2  164.88    5.40
   3   9   2   21.00    2.00
   3   9   2   15.30    1.40
  -4  -9  -2   33.50    2.30
   4   9   2   34.60    1.90
  -5  -9  -2   19.90    1.70
   5   9   2   19.60    1.50
  -6  -9  -2   17.40    1.50
  -7  -9  -2    3.10    0.80
  12 -10  -2    6.40    0.90
 -12  10   2    6.10    1.00
  11 -10  -2    5.90    1.00
 -11  10   2    6.30    1.40
 -11  10   2    5.50    1.10
 -10  10   2   51.49    2.40
 -10  10   2   59.49    3.50
 -10  10   2   54.59    2.80
   9 -10  -2   50.29    2.40
  -9  10   2   51.69    2.40
  -9  10   2   49.00    2.60
  -9  10   2   50.29    2.70
  -9  10   2   48.40    3.30
  -8  10   2  267.27    8.70
  -8  10   2  270.67    7.50
  -8  10   2  261.17    7.80
  -8  10   2  279.37    8.10
  -7  10   2   20.90    2.00
  -7  10   2   22.50    1.50
  -7  10   2   20.30    1.70
  -7  10   2   23.00    2.40
  -6  10   2   19.50    1.60
  -6  10   2   17.90    2.00
  -6  10   2   15.50    1.30
  -6  10   2   18.80    2.00
  -6  10   2   13.40    1.50
  -5  10   2   45.50    2.80
  -5  10   2   46.20    2.20
  -5  10   2   49.40    2.10
  -5  10   2   44.80    2.40
  -5  10   2   46.60    2.90
  -4  10   2   10.10    1.50
  -4  10   2   11.80    1.40
  -4  10   2   16.90    2.10
  -4  10   2    9.80    1.10
   3 -10  -2  502.15   14.00
  -3  10   2  520.55   13.40
  -3  10   2  532.75   13.00
  -3  10   2  501.85   14.00
   2 -10  -2    0.30    1.80
   2 -10  -2    7.60    1.30
  -2  10   2    9.30    1.20
  -2  10   2   10.60    1.10
   1 -10  -2   57.19    3.00
   1 -10  -2   62.89    3.40
  -1  10   2   63.69    2.50
  -1  10   2   60.69    2.40
  -1  10   2   56.79    2.50
   0 -10  -2  201.88    6.30
   0  10   2  184.98    6.00
   0  10   2  200.18    5.80
   0  10   2  199.28    5.80
   1  10   2    1.50    0.70
   1  10   2    1.00    0.90
   2  10   2   66.19    3.20
   2  10   2   64.99    2.70
  -3 -10  -2   34.40    2.30
   3  10   2   37.30    2.00
  -4 -10  -2    1.70    0.90
   4  10   2    2.00    0.80
  -5 -10  -2   18.50    1.60
   5  10   2   15.70    1.30
  -6 -10  -2   23.80    1.50
  12 -11  -2   55.99    2.10
 -12  11   2   58.29    2.30
  11 -11  -2   84.99    3.00
 -11  11   2   85.99    3.30
 -11  11   2   86.49    3.90
  10 -11  -2   12.60    1.30
 -10  11   2   14.40    1.60
 -10  11   2   12.00    1.90
  -9  11   2    0.50    1.30
  -9  11   2    1.20    0.90
  -9  11   2    1.50    1.00
  -9  11   2    1.20    0.70
  -8  11   2    7.70    1.10
  -8  11   2    9.70    1.90
  -8  11   2    8.20    1.40
  -8  11   2    8.20    1.30
  -7  11   2  235.08    7.90
  -7  11   2  244.28    7.40
  -7  11   2  228.18    7.00
  -7  11   2  233.88    6.70
  -6  11   2   20.10    2.00
  -6  11   2   19.80    1.50
  -6  11   2   21.20    2.50
  -6  11   2   17.50    1.60
  -5  11   2   76.49    3.10
  -5  11   2   76.09    3.90
  -5  11   2   79.99    2.90
  -4  11   2    9.70    1.10
  -4  11   2    8.00    1.10
  -4  11   2    7.80    1.70
  -4  11   2    8.10    1.70
  -4  11   2    6.20    1.20
   3 -11  -2  188.78    6.60
  -3  11   2  185.28    5.70
  -3  11   2  201.28    5.60
  -3  11   2  188.48    6.70
  -3  11   2  188.98    5.90
   2 -11  -2   -0.60    1.50
   2 -11  -2    1.40    0.90
  -2  11   2    3.10    0.80
  -2  11   2    3.80    0.90
  -2  11   2    2.90    0.90
  -2  11   2    2.70    0.80
   1 -11  -2   64.39    3.20
  -1  11   2   57.39    2.70
  -1  11   2   56.99    2.50
  -1  11   2   57.79    2.50
  -1  11   2   54.19    2.80
   0  11   2  141.49    4.70
   0  11   2  146.59    4.70
   0  11   2  149.39    5.00
   1  11   2   36.70    2.30
   1  11   2   31.60    2.00
   2  11   2  247.18    7.60
   2  11   2  242.98    6.90
  -3 -11  -2   69.79    3.20
   3  11   2   76.59    2.90
  -4 -11  -2   -0.60    0.70
   4  11   2    0.00    0.70
  -5 -11  -2   21.80    1.50
   5  11   2   20.90    1.30
  -6 -11  -2  137.49    4.50
 -12  12   2   29.80    1.50
 -11  12   2    8.90    1.10
 -11  12   2    7.40    1.60
 -10  12   2  216.18    7.30
 -10  12   2  213.68    6.40
  -9  12   2   46.90    3.30
  -9  12   2   47.70    2.50
  -9  12   2   46.90    2.20
  -9  12   2   51.09    2.70
  -8  12   2   11.20    1.20
  -8  12   2   12.00    1.40
  -8  12   2   12.70    2.10
  -8  12   2   12.50    1.70
  -7  12   2   25.50    1.70
  -7  12   2   25.00    2.30
  -7  12   2   26.90    2.00
  -7  12   2   27.80    3.00
  -6  12   2   43.50    3.40
  -6  12   2   44.10    2.80
  -6  12   2   41.50    2.30
  -6  12   2   40.30    2.10
  -5  12   2   15.10    1.50
  -5  12   2   14.70    2.20
  -5  12   2   17.10    1.80
  -5  12   2   15.40    1.40
  -4  12   2  166.78    5.50
  -4  12   2  162.88    6.30
  -4  12   2  157.08    5.20
  -4  12   2  162.58    5.00
   3 -12  -2  127.29    6.20
  -3  12   2  136.59    4.40
  -3  12   2  139.69    4.70
  -3  12   2  136.89    4.70
   2 -12  -2   45.30    3.20
  -2  12   2   49.90    2.30
  -2  12   2   42.00    2.50
  -2  12   2   47.90    2.30
  -2  12   2   42.60    2.50
   1 -12  -2  448.46   12.70
  -1  12   2  452.05   12.10
  -1  12   2  458.65   12.00
  -1  12   2  452.95   12.30
  -1  12   2  457.25   11.90
   0  12   2   30.30    2.30
   0  12   2   31.80    2.00
   1  12   2   11.20    1.30
   1  12   2   11.30    1.50
   2  12   2   12.40    1.30
  -3 -12  -2   36.20    2.10
   3  12   2   35.40    1.90
  -4 -12  -2   45.90    2.00
   4  12   2   46.10    1.90
   5  12   2    5.70    0.80
 -11  13   2   45.90    2.00
 -11  13   2   46.10    2.80
 -10  13   2   93.99    4.30
 -10  13   2   90.79    3.60
 -10  13   2  100.19    3.50
  -9  13   2   49.30    2.60
  -9  13   2   46.20    2.40
  -9  13   2   51.49    3.50
  -8  13   2    1.50    1.60
  -8  13   2    0.80    0.80
  -8  13   2    1.10    1.00
  -8  13   2    2.00    0.70
  -7  13   2  137.99    5.10
  -7  13   2  134.89    4.40
  -7  13   2  142.59    4.80
  -7  13   2  143.89    5.90
  -6  13   2  401.86   11.90
  -6  13   2  397.56   11.10
  -6  13   2  387.46   10.40
  -6  13   2  391.06   10.70
  -5  13   2   18.90    1.80
  -5  13   2   13.30    1.70
  -5  13   2   16.60    2.40
  -5  13   2   16.10    1.50
   4 -13  -2   30.70    3.60
  -4  13   2   32.50    2.20
  -4  13   2   37.20    2.50
  -4  13   2   34.30    2.00
   3 -13  -2   11.60    2.20
  -3  13   2   13.20    1.60
  -3  13   2   12.20    1.50
  -3  13   2   10.50    1.30
   2 -13  -2  106.39    4.50
  -2  13   2  105.79    3.70
  -2  13   2  106.89    4.10
  -2  13   2  102.69    4.00
  -2  13   2  103.49    3.70
  -1  13   2   58.19    2.80
  -1  13   2   57.79    2.60
  -1  13   2   55.39    2.90
   0  13   2    2.10    0.90
   0  13   2    3.20    1.00
   1  13   2   56.39    2.90
   1  13   2   65.19    2.60
  -2 -13  -2   51.49    2.50
   2  13   2   56.79    2.30
  -3 -13  -2   23.60    1.50
   3  13   2   25.10    1.40
   4  13   2    7.10    0.70
 -10  14   2   73.89    3.60
 -10  14   2   67.59    2.60
  -9  14   2   34.00    1.90
  -9  14   2   32.70    2.00
  -9  14   2   36.30    3.00
  -8  14   2   23.10    2.00
  -8  14   2   29.00    3.00
  -8  14   2   22.70    1.80
  -7  14   2   14.80    2.30
  -7  14   2   14.50    1.60
  -7  14   2   13.60    1.70
   6 -14  -2    4.60    2.60
  -6  14   2   10.50    1.50
  -6  14   2   10.00    1.20
  -6  14   2   11.90    1.40
   5 -14  -2    3.80    2.40
  -5  14   2    3.80    1.00
  -5  14   2    3.90    1.20
  -5  14   2    3.40    0.90
   4 -14  -2   61.19    4.00
  -4  14   2   59.89    2.90
  -4  14   2   54.09    2.50
  -4  14   2   65.39    3.00
   3 -14  -2   89.69    4.00
  -3  14   2   82.99    3.40
  -3  14   2   75.49    3.10
  -3  14   2   84.09    3.60
  -2  14   2   19.70    1.90
  -2  14   2   22.40    1.90
  -2  14   2   24.70    1.70
  -1  14   2   34.10    2.00
  -1  14   2   29.80    2.10
   0  14   2   40.30    2.00
   0  14   2   36.40    2.30
  -1 -14  -2   16.10    1.50
   1  14   2   14.60    1.30
   2  14   2    4.90    0.80
   9 -15  -2   37.60    3.60
  -9  15   2   30.90    1.60
  -9  15   2   31.60    1.80
   8 -15  -2   20.30    2.90
  -8  15   2   15.20    1.40
  -8  15   2   12.50    1.40
   7 -15  -2   74.69    4.90
  -7  15   2   65.89    3.00
  -7  15   2   62.79    2.70
   6 -15  -2    5.80    2.10
  -6  15   2    4.40    1.00
  -6  15   2    3.80    1.10
   5 -15  -2   60.29    3.60
  -5  15   2   55.69    2.80
  -5  15   2   55.49    2.60
   4 -15  -2    5.90    1.30
  -4  15   2    3.70    1.10
  -4  15   2    3.40    1.10
   3 -15  -2   18.10    1.80
  -3  15   2   11.30    1.40
  -3  15   2   11.90    1.40
  -2  15   2   39.50    1.90
  -2  15   2   40.70    2.20
  -2  15   2   39.00    2.10
  -1  15   2    2.10    0.80
  -1  15   2    1.80    0.70
   0 -15  -2    3.30    0.80
   0  15   2    2.80    0.70
   1  15   2   10.60    0.90
   7 -16  -2    8.00    1.50
  -7  16   2    5.40    1.00
  -7  16   2    5.40    0.90
   6 -16  -2    1.80    1.00
  -6  16   2    1.10    0.80
  -6  16   2    1.10    0.80
   5 -16  -2   30.00    2.00
  -5  16   2   24.40    1.70
  -5  16   2   26.10    1.80
   4 -16  -2   13.30    1.30
  -4  16   2    3.50    0.90
  -4  16   2    3.00    0.90
  -3  16   2   74.99    2.80
  -3  16   2   73.99    2.80
  -2  16   2    3.90    0.70
  -2  16   2    5.90    0.90
  -1  16   2   79.49    2.60
   0  16  -3    4.50    0.70
   0  16  -3    6.60    1.00
  -1  16  -3   48.00    2.30
  -1  16  -3   48.30    1.90
  -1  16  -3   44.70    2.20
  -2  16  -3   55.19    2.60
  -2  16  -3   57.69    2.50
  -3  16  -3   14.60    1.50
  -3  16  -3   18.40    1.80
  -4  16  -3   32.10    2.10
  -4  16  -3   35.10    2.20
  -5  16  -3   13.10    1.50
  -5  16  -3   12.80    1.40
  -6  16  -3   74.39    3.00
  -6  16  -3   74.49    3.00
  -7  16  -3    4.70    0.90
   2  15  -3   94.89    2.90
  -2 -15   3   94.99    3.10
   1  15  -3   27.30    1.60
   0  15  -3   40.00    2.40
   0  15  -3   41.30    2.20
   0  15  -3   38.90    2.00
  -1  15  -3   18.70    1.90
  -1  15  -3   21.60    1.70
  -1  15  -3   21.00    2.10
  -2  15  -3    2.50    1.10
  -2  15  -3    2.00    0.80
  -2  15  -3    1.70    1.20
  -3  15  -3    1.00    1.20
  -3  15  -3    1.20    1.10
  -4  15  -3   62.79    3.00
  -4  15  -3   59.69    3.10
  -5  15  -3    4.50    1.30
  -5  15  -3    2.30    1.00
  -6  15  -3   69.59    3.20
  -6  15  -3   73.79    3.10
  -7  15  -3   14.70    2.00
  -7  15  -3   13.80    1.40
  -7  15  -3   15.10    1.50
  -8  15  -3   71.59    3.60
  -8  15  -3   73.89    2.90
  -9  15  -3   81.89    2.90
   3  14  -3    1.80    0.70
  -3 -14   3    1.60    0.70
  -2 -14   3   14.30    1.50
   1  14  -3   80.69    3.10
   1  14  -3   80.29    3.50
   1  14  -3   74.09    3.10
   0  14  -3  197.18    6.40
   0  14  -3  208.88    6.10
   0  14  -3  207.78    6.60
  -1  14  -3    1.60    0.90
  -1  14  -3   -1.20    1.00
  -1  14  -3    0.50    0.70
  -1  14  -3    0.90    1.20
  -2  14  -3   29.90    2.00
  -2  14  -3   32.00    2.70
  -2  14  -3   30.10    2.50
  -2  14  -3   29.20    1.80
  -3  14  -3  193.98    6.20
  -3  14  -3  192.48    6.40
  -3  14  -3  182.28    5.50
  -4  14  -3    6.40    1.00
  -4  14  -3    7.20    1.30
  -4  14  -3    6.40    1.50
  -5  14  -3   20.40    2.10
  -5  14  -3   19.10    1.90
  -5  14  -3   17.20    1.40
  -6  14  -3  208.28    6.30
  -6  14  -3  196.58    6.40
  -6  14  -3  198.38    7.00
  -7  14  -3    1.80    1.10
  -7  14  -3    3.60    1.60
  -8  14  -3   27.20    2.70
  -8  14  -3   28.90    2.00
  -9  14  -3   51.49    3.10
  -9  14  -3   54.19    2.50
 -10  14  -3    1.30    0.70
   4  13  -3   59.99    2.30
  -4 -13   3   62.49    2.50
   3  13  -3  160.48    4.90
  -3 -13   3  164.58    5.20
   2  13  -3   53.49    2.70
   2  13  -3   57.99    2.60
   2  13  -3   57.79    3.10
   1  13  -3   40.60    2.30
   1  13  -3   33.60    2.60
   1  13  -3   35.80    2.10
   1  13  -3   31.90    2.40
   0  13  -3  166.68    5.30
   0  13  -3  159.88    5.20
   0  13  -3  168.38    5.80
   0  13  -3  170.68    5.70
  -1  13  -3   12.00    1.40
  -1  13  -3   10.70    1.70
  -1  13  -3   11.50    1.70
  -1  13  -3   10.30    1.20
  -2  13  -3    7.00    1.00
  -2  13  -3    1.50    1.20
  -2  13  -3    5.80    1.10
  -2  13  -3    6.00    1.30
  -3  13  -3   77.99    2.90
  -3  13  -3   78.09    3.70
  -3  13  -3   76.99    3.40
  -4  13  -3   26.70    2.50
  -4  13  -3   26.60    2.00
  -4  13  -3   25.80    1.60
  -5  13  -3  209.28    6.30
  -5  13  -3  194.78    5.60
  -5  13  -3  186.68    6.90
  -5  13  -3  201.08    6.50
  -6  13  -3  303.07    8.40
  -6  13  -3  330.07    9.30
  -6  13  -3  308.27    9.80
  -6  13  -3  336.87    9.20
  -7  13  -3    3.10    1.20
  -7  13  -3    3.10    1.10
  -7  13  -3    1.90    0.70
  -7  13  -3    1.60    1.30
  -8  13  -3  109.89    4.90
  -8  13  -3  116.89    4.20
  -9  13  -3  102.49    3.80
  -9  13  -3  102.89    4.50
 -10  13  -3    3.10    0.90
 -10  13  -3    2.20    1.20
   5  12  -3    2.40    0.40
   5  12  -3    4.10    0.70
  -5 -12   3    1.70    0.70
   4  12  -3    0.20    0.80
  -4 -12   3    0.80    0.90
   3  12  -3   62.39    2.80
   2  12  -3   24.80    2.10
   2  12  -3   30.20    2.50
   2  12  -3   26.50    1.80
   2  12  -3   28.30    2.00
   1  12  -3    1.70    1.00
   1  12  -3    1.20    1.20
   1  12  -3    2.00    0.80
   0  12  -3   34.50    2.00
   0  12  -3   34.50    2.10
   0  12  -3   35.90    2.70
   0  12  -3   37.30    2.60
  -1  12  -3    2.50    1.10
  -1  12  -3    2.90    0.80
  -1  12  -3    2.40    1.20
  -1  12  -3    3.20    0.90
  -2  12  -3   16.40    1.90
  -2  12  -3   15.80    1.50
  -2  12  -3   16.70    1.40
  -2  12  -3   13.60    1.50
  -3  12  -3   90.39    3.90
  -3  12  -3   90.09    3.10
  -3  12  -3   93.79    3.70
  -4  12  -3   55.09    3.00
  -4  12  -3   49.70    2.60
  -4  12  -3   51.19    2.10
  -4  12  -3   47.00    3.80
  -5  12  -3   62.89    3.60
  -5  12  -3   64.79    3.00
  -5  12  -3   64.69    2.40
  -5  12  -3   68.89    3.30
  -6  12  -3   42.30    2.70
  -6  12  -3   40.40    1.80
  -6  12  -3   43.30    3.00
  -6  12  -3   41.70    2.50
  -7  12  -3    6.90    0.90
  -7  12  -3    6.30    1.60
  -7  12  -3    6.80    1.30
  -7  12  -3    6.00    1.30
  -8  12  -3    9.10    1.80
  -8  12  -3   10.90    1.50
  -8  12  -3   11.40    1.10
  -9  12  -3    1.90    1.00
  -9  12  -3    0.60    1.30
 -10  12  -3   34.50    2.10
 -10  12  -3   35.00    2.70
 -11  12  -3   21.50    1.50
 -11  12  -3   19.50    1.80
  -6 -11   3    9.90    1.10
   5  11  -3    0.20    0.70
  -5 -11   3    1.00    0.90
   4  11  -3   26.90    1.90
  -4 -11   3   28.10    2.30
   3  11  -3  268.27    7.60
   3  11  -3  284.97    8.40
   3  11  -3  259.97    8.00
   2  11  -3    1.30    0.80
   2  11  -3    1.70    1.00
   2  11  -3    0.50    1.00
   2  11  -3    0.00    1.00
   1  11  -3  168.68    5.70
   1  11  -3  161.18    5.60
   1  11  -3  171.78    5.30
   1  11  -3  172.18    5.30
   0  11  -3  322.77    9.20
   0  11  -3  308.87    9.10
   0  11  -3  312.07    8.70
   0  11  -3  321.17    8.60
  -1  11  -3  140.49    4.80
  -1  11  -3  142.59    5.10
  -1  11  -3  147.49    4.40
  -1  11  -3  146.69    4.60
  -2  11  -3   34.90    2.30
  -2  11  -3   37.90    2.10
  -2  11  -3   40.80    1.80
  -2  11  -3   42.10    2.00
  -3  11  -3    9.90    1.40
  -3  11  -3   10.20    1.00
  -3  11  -3    9.20    1.20
  -4  11  -3   57.19    2.10
  -4  11  -3   55.19    2.60
  -4  11  -3   54.09    3.00
  -4  11  -3   53.49    2.90
  -5  11  -3   49.40    3.00
  -5  11  -3   47.80    1.90
  -5  11  -3   45.90    2.40
  -5  11  -3   47.80    2.70
  -6  11  -3  157.38    5.90
  -6  11  -3  160.68    5.30
  -6  11  -3  156.98    5.20
  -6  11  -3  157.58    4.50
  -7  11  -3    2.60    1.00
  -7  11  -3    3.50    1.40
  -8  11  -3   95.79    3.90
  -8  11  -3   96.89    4.70
  -9  11  -3   10.00    1.50
 -10  11  -3    1.00    0.90
 -10  11  -3    0.70    1.30
 -11  11  -3   10.30    1.20
 -11  11  -3    9.70    1.60
  -7 -10   3    7.40    1.00
   6  10  -3    8.70    0.70
  -6 -10   3   10.40    1.20
   5  10  -3  180.98    5.30
  -5 -10   3  176.58    5.80
   4  10  -3   26.60    1.90
  -4 -10   3   26.90    2.30
   3  10  -3    5.80    1.10
   3  10  -3    6.40    1.30
   3  10  -3    5.90    1.10
   2  10  -3  314.07    8.70
   2  10  -3  330.67    9.30
   2  10  -3  320.87    8.80
   2  10  -3  305.47    9.00
   1  10  -3  599.84   15.90
   1  10  -3  614.04   15.50
   1  10  -3  602.64   15.90
   1  10  -3  635.14   15.50
  -1 -10   3  599.74   17.20
   0  10  -3   17.20    1.40
   0  10  -3   21.90    1.70
   0  10  -3   23.80    1.40
   0  10  -3   23.60    2.00
   0 -10   3   17.50    2.00
  -1  10  -3   17.30    1.80
  -1  10  -3   16.30    1.50
  -1  10  -3   16.40    1.10
   1 -10   3   15.60    1.80
  -2  10  -3    6.90    0.80
  -2  10  -3    7.10    1.20
   2 -10   3    9.30    1.50
  -3  10  -3   10.40    1.30
  -3  10  -3    8.50    0.80
   3 -10   3   10.50    1.60
  -4  10  -3  280.67    7.90
  -4  10  -3  282.37    7.00
  -4  10  -3  267.37    8.20
  -4  10  -3  267.57    8.60
  -4  10  -3  270.67    7.70
  -5  10  -3  303.77    9.40
  -5  10  -3  307.47    7.70
  -5  10  -3  294.77    9.00
  -5  10  -3  295.67    8.40
  -5  10  -3  294.97    8.50
  -6  10  -3    6.00    0.80
  -6  10  -3    6.20    1.20
  -6  10  -3    5.60    1.10
  -6  10  -3    5.00    1.30
  -7  10  -3   11.00    1.80
  -7  10  -3    9.90    1.10
  -7  10  -3   11.20    1.40
  -8  10  -3  143.59    4.50
  -8  10  -3  151.68    5.20
  -8  10  -3  149.09    6.00
  -9  10  -3   38.60    2.40
  -9  10  -3   39.70    2.00
  -9  10  -3   44.80    2.70
  -9  10  -3   41.40    3.30
 -10  10  -3    5.30    1.20
 -10  10  -3    2.00    1.40
 -10  10  -3    5.50    1.30
 -11  10  -3  107.99    4.50
 -11  10  -3  104.69    3.60
 -11  10  -3  107.89    3.80
 -12  10  -3   77.39    2.70
 -12  10  -3   76.79    3.80
  12 -10   3   73.39    2.40
  -8  -9   3   98.19    3.20
  -7  -9   3    4.40    1.00
   6   9  -3    2.80    0.60
  -6  -9   3    3.20    1.10
   5   9  -3    4.50    1.00
  -5  -9   3    2.10    1.10
   4   9  -3  150.48    4.80
   4   9  -3  152.88    5.50
   3   9  -3   18.80    1.90
   3   9  -3   15.80    1.50
   3   9  -3   17.90    1.80
   3   9  -3   18.30    1.50
   2   9  -3   47.20    2.60
   2   9  -3   54.79    2.30
   2   9  -3   48.60    2.60
   2   9  -3   49.99    2.30
  -2  -9   3   50.29    3.20
   1   9  -3   64.09    2.40
   1   9  -3   59.39    2.80
  -1  -9   3   58.09    3.20
   0   9  -3   32.40    2.20
   0   9  -3   33.80    1.50
   0   9  -3   34.10    2.10
   0  -9   3   33.00    2.30
   0  -9   3   30.00    2.10
  -1   9  -3  185.88    6.10
  -1   9  -3  193.48    5.00
  -1   9  -3  184.58    6.60
  -1   9  -3  189.68    7.00
   1  -9   3  184.38    6.10
   1  -9   3  193.78    6.30
  -2   9  -3   49.40    2.30
  -2   9  -3   51.19    1.60
  -2   9  -3   46.10    3.00
  -2   9  -3   51.89    3.10
   2  -9   3   45.90    2.40
   2  -9   3   51.09    2.70
  -3   9  -3   54.39    3.20
  -3   9  -3   53.79    1.70
  -3   9  -3   54.79    2.40
  -3   9  -3   55.99    2.90
   3  -9   3   51.99    2.40
  -4   9  -3  208.18    6.60
  -4   9  -3  195.08    6.80
  -4   9  -3  195.88    5.80
   4  -9   3  188.68    5.80
  -5   9  -3  165.88    5.80
  -5   9  -3  158.58    5.00
  -5   9  -3  162.18    4.60
  -5   9  -3  158.18    5.50
  -6   9  -3  822.82   22.00
  -6   9  -3  844.72   20.10
  -6   9  -3  839.82   21.70
  -6   9  -3  828.72   20.90
  -7   9  -3  104.69    4.60
  -7   9  -3  107.59    3.40
  -7   9  -3  104.89    4.00
  -8   9  -3   41.90    2.50
  -8   9  -3   42.20    2.00
  -8   9  -3   45.30    2.50
  -8   9  -3   45.20    3.30
  -9   9  -3   19.70    2.00
  -9   9  -3   18.00    2.40
  -9   9  -3   20.80    1.50
 -10   9  -3   49.10    2.30
 -10   9  -3   48.10    3.40
 -10   9  -3   48.20    2.70
 -10   9  -3   52.49    2.80
 -11   9  -3    2.60    1.00
 -11   9  -3    2.50    1.00
 -11   9  -3    1.30    1.20
 -12   9  -3    4.00    0.90
 -12   9  -3    4.10    1.10
 -12   9  -3    3.50    0.80
  -9  -8   3   64.09    2.30
  -8  -8   3   44.10    2.20
  -7  -8   3   13.70    1.50
  -6  -8   3  129.79    4.70
   5   8  -3  197.88    5.80
  -5  -8   3  199.58    6.40
   4   8  -3    0.90    0.80
   4   8  -3    2.70    0.80
   4   8  -3    3.50    1.10
   3   8  -3    5.90    1.10
   3   8  -3    7.20    1.20
   3   8  -3    4.70    0.90
   3   8  -3    4.30    0.90
  -3  -8   3    5.80    1.40
   2   8  -3   13.30    1.70
   2   8  -3   14.50    1.20
  -2  -8   3   11.70    1.70
  -2  -8   3   10.20    1.50
  -2  -8   3   13.10    1.50
   1   8  -3  942.61   24.40
   1   8  -3  978.80   22.80
   1   8  -3  938.01   24.30
   1   8  -3  935.31   24.90
  -1  -8   3  951.60   24.00
  -1  -8   3  928.21   24.20
  -1  -8   3  907.31   23.80
   0   8  -3    1.30    0.60
   0   8  -3    1.80    0.90
   0   8  -3    2.70    1.00
   0   8  -3    1.40    0.40
   0  -8   3    1.10    0.70
   0  -8   3    0.80    0.60
  -1   8  -3   89.19    3.90
  -1   8  -3   90.59    3.40
  -1   8  -3   88.39    4.00
  -1   8  -3   88.69    2.50
   1  -8   3   87.19    3.30
   1  -8   3   94.69    3.60
  -2   8  -3  363.46   10.60
  -2   8  -3  368.66   10.10
  -2   8  -3  359.06   10.60
  -2   8  -3  365.66    9.60
   2  -8   3  353.16    9.60
  -3   8  -3 1529.55   37.20
  -3   8  -3 1488.05   40.00
  -3   8  -3 1525.45   36.50
  -3   8  -3 1553.34   37.70
   3  -8   3 1517.75   36.60
  -4   8  -3    0.90    0.40
  -4   8  -3    0.80    0.80
  -4   8  -3    1.60    0.80
   4  -8   3    0.70    0.40
  -5   8  -3   18.40    1.80
  -5   8  -3   18.30    1.20
   5  -8   3   17.20    1.20
  -6   8  -3  224.48    6.00
  -6   8  -3  231.08    7.30
  -6   8  -3  231.88    7.50
  -7   8  -3    4.80    1.30
  -7   8  -3    5.40    1.00
  -7   8  -3    3.40    0.60
  -7   8  -3    3.40    1.00
  -7   8  -3    5.00    1.30
  -8   8  -3  146.29    5.80
  -8   8  -3  148.99    5.00
  -8   8  -3  145.69    4.80
  -8   8  -3  142.49    4.40
  -9   8  -3  138.29    4.80
  -9   8  -3  135.29    4.90
  -9   8  -3  134.69    4.40
  -9   8  -3  143.09    5.80
 -10   8  -3    1.50    1.10
 -10   8  -3    0.70    1.00
 -10   8  -3    0.50    1.40
 -10   8  -3    0.50    0.70
 -11   8  -3   55.29    2.60
 -11   8  -3   51.29    3.20
 -11   8  -3   55.59    2.70
 -12   8  -3  267.07    7.20
 -12   8  -3  259.87    7.70
 -12   8  -3  269.97    7.20
  -9  -7   3    2.60    0.80
  -8  -7   3   59.39    2.70
   7   7  -3   43.40    1.50
  -7  -7   3   42.00    2.40
  -6  -7   3    2.10    1.00
   5   7  -3   19.50    1.50
  -5  -7   3   20.10    1.90
   4   7  -3  663.03   17.40
   4   7  -3  669.43   16.90
  -4  -7   3  671.43   18.30
   3   7  -3    4.40    1.30
   3   7  -3    5.50    1.20
   3   7  -3    7.30    0.90
  -3  -7   3    5.70    1.10
  -3  -7   3    4.10    1.10
  -3  -7   3    6.00    1.20
   2   7  -3   28.40    1.40
   2   7  -3   28.50    2.40
   2   7  -3   25.50    2.00
  -2  -7   3   28.70    1.90
  -2  -7   3   26.70    2.10
  -2  -7   3   24.40    2.00
   1   7  -3 1388.76   32.20
   1   7  -3 1376.06   34.10
   1   7  -3 1333.77   33.60
   1   7  -3 1330.97   33.50
  -1  -7   3 1326.47   33.50
  -1  -7   3 1336.77   33.00
  -1  -7   3 1376.56   33.30
   0   7  -3   77.39    2.30
   0   7  -3   82.39    3.70
   0   7  -3   77.79    3.50
   0   7  -3   83.89    3.20
   0  -7   3   81.79    3.20
   0  -7   3   79.19    2.90
  -1   7  -3  544.65   13.60
  -1   7  -3  588.54   14.30
  -1   7  -3  549.95   15.10
  -1   7  -3  560.44   15.10
   1  -7   3  567.54   14.60
   1  -7   3  585.74   14.20
  -2   7  -3   39.30    2.00
  -2   7  -3   39.20    2.30
  -2   7  -3   38.80    2.20
  -2   7  -3   40.10    1.60
   2  -7   3   37.10    1.50
  -3   7  -3  293.97    8.30
  -3   7  -3  272.87    8.10
  -3   7  -3  284.87    7.30
  -3   7  -3  282.87    8.00
   3  -7   3  278.77    7.20
  -4   7  -3  512.05   13.10
  -4   7  -3  493.15   12.30
  -4   7  -3  480.35   13.10
   4  -7   3  478.95   12.20
  -5   7  -3  559.14   14.70
  -5   7  -3  559.04   14.00
   5  -7   3  536.15   13.80
  -6   7  -3  117.99    4.10
  -6   7  -3  118.29    4.50
  -6   7  -3  118.49    4.60
  -6   7  -3  113.39    3.30
  -7   7  -3   29.10    1.90
  -7   7  -3   32.10    2.40
  -7   7  -3   30.00    2.50
  -7   7  -3   26.60    1.40
  -7   7  -3   29.50    2.40
  -8   7  -3  214.28    6.40
  -8   7  -3  215.18    7.40
  -8   7  -3  210.18    6.00
  -8   7  -3  212.58    6.50
  -9   7  -3   27.70    1.80
  -9   7  -3   27.90    2.10
  -9   7  -3   27.30    2.80
  -9   7  -3   27.30    2.20
 -10   7  -3   17.50    1.60
 -10   7  -3   18.10    1.80
 -10   7  -3   17.60    2.30
 -10   7  -3   16.70    1.80
 -11   7  -3   20.20    1.80
 -11   7  -3   19.80    1.90
 -11   7  -3   19.10    2.40
 -12   7  -3    9.50    1.10
 -12   7  -3    8.80    1.30
 -12   7  -3    8.00    1.10
 -10  -6   3   21.40    1.40
  -9  -6   3  349.07    9.40
  -8  -6   3   20.30    1.90
   7   6  -3   83.99    2.50
  -7  -6   3   86.89    3.50
  -6  -6   3  375.86   10.40
  -5  -6   3   13.00    2.00
  -5  -6   3   13.00    1.50
   4   6  -3   49.90    2.20
   4   6  -3   44.50    2.40
   4   6  -3   39.00    2.90
  -4  -6   3   43.70    2.90
   3   6  -3   80.89    2.80
   3   6  -3   78.99    3.90
   3   6  -3   80.49    3.70
   3   6  -3   79.49    3.10
  -3  -6   3   80.99    3.50
  -3  -6   3   75.09    3.30
  -3  -6   3   76.69    3.40
   2   6  -3   88.89    2.80
   2   6  -3   90.39    3.20
   2   6  -3   86.89    3.90
   2   6  -3   88.59    3.70
  -2  -6   3   86.79    3.40
  -2  -6   3   85.39    3.50
  -2  -6   3   90.09    3.60
   1   6  -3  127.09    4.60
   1   6  -3  134.09    4.80
   1   6  -3  128.89    4.50
   1   6  -3  127.29    3.50
  -1  -6   3  125.89    4.50
  -1  -6   3  128.79    4.10
  -1  -6   3  129.39    4.30
   0   6  -3  131.39    3.50
   0   6  -3  139.39    4.70
   0   6  -3  138.79    4.30
   0   6  -3  138.99    4.80
   0  -6   3  141.99    4.50
   0  -6   3  142.69    4.10
  -1   6  -3  221.48    6.30
  -1   6  -3  219.98    5.90
  -1   6  -3  212.88    6.60
  -1   6  -3  222.08    6.70
   1  -6   3  221.48    5.70
  -2   6  -3    1.50    0.70
  -2   6  -3    1.50    0.30
  -2   6  -3    1.50    0.60
  -2   6  -3    1.90    0.60
  -3   6  -3  328.47    9.10
  -3   6  -3  325.17    9.00
  -3   6  -3  339.17    8.30
  -3   6  -3  334.57    9.00
  -4   6  -3   36.20    1.90
  -4   6  -3   37.10    1.50
  -4   6  -3   35.60    1.90
  -5   6  -3   16.00    1.50
  -5   6  -3   16.40    1.20
  -6   6  -3   19.40    1.80
  -6   6  -3   19.90    1.50
  -6   6  -3   21.10    1.10
  -7   6  -3   73.39    2.60
  -7   6  -3   78.59    3.70
  -7   6  -3   74.89    3.60
  -8   6  -3  194.18    6.90
  -8   6  -3  193.78    7.00
  -8   6  -3  203.78    5.80
  -8   6  -3  203.18    6.10
  -8   6  -3  198.98    6.20
  -9   6  -3   61.39    2.70
  -9   6  -3   60.39    3.00
  -9   6  -3   61.79    3.00
  -9   6  -3   59.59    3.60
 -10   6  -3   11.50    1.60
 -10   6  -3   11.80    1.90
 -10   6  -3   10.00    1.50
 -10   6  -3   10.90    1.30
 -11   6  -3   57.39    2.70
 -11   6  -3   54.99    2.70
 -11   6  -3   55.09    3.30
 -12   6  -3  192.48    5.50
 -12   6  -3  183.98    5.90
 -12   6  -3  191.48    5.50
 -10  -5   3    1.30    0.80
  -9  -5   3   85.69    3.40
  -8  -5   3  139.29    4.80
   7   5  -3  184.88    4.80
   6   5  -3   -0.40    0.80
  -6  -5   3    2.70    1.20
  -6  -5   3    1.40    0.80
   5   5  -3    1.40    0.80
  -5  -5   3    1.20    0.90
   4   5  -3  539.65   13.80
   4   5  -3  508.95   14.50
   4   5  -3  527.85   13.20
   4   5  -3  513.95   14.60
  -4  -5   3  517.15   14.10
  -4  -5   3  528.15   14.40
  -4  -5   3  503.35   13.90
   3   5  -3   75.59    3.50
   3   5  -3   76.99    3.40
   3   5  -3   76.59    2.60
   3   5  -3   76.69    2.90
  -3  -5   3   70.99    3.10
  -3  -5   3   71.49    3.00
  -3  -5   3   71.39    3.20
   2   5  -3  338.57    8.90
   2   5  -3  332.47    8.40
   2   5  -3  341.47    9.60
   2   5  -3  338.37    9.70
  -2  -5   3  331.17    9.00
  -2  -5   3  339.27    9.30
  -2  -5   3  331.47    9.30
   1   5  -3  292.77    7.40
   1   5  -3  303.27    8.70
   1   5  -3  309.47    8.40
   1   5  -3  314.37    8.60
   1   5  -3  289.77    7.80
  -1  -5   3  303.97    8.50
  -1  -5   3  310.37    8.00
  -1  -5   3  300.17    8.20
   0   5  -3  704.43   17.90
   0   5  -3  701.53   17.70
   0   5  -3  710.63   17.30
   0   5  -3  687.43   17.00
   0  -5   3  703.73   16.90
   0  -5   3  711.03   17.40
  -1   5  -3   25.50    1.30
  -1   5  -3   25.10    1.50
  -1   5  -3   26.10    1.60
  -1   5  -3   23.00    1.10
  -1   5  -3   25.80    1.00
  -1   5  -3   24.40    1.10
  -2   5  -3   46.80    2.10
  -2   5  -3   46.90    1.50
  -2   5  -3   45.00    1.90
  -2   5  -3   44.90    1.80
  -2   5  -3   47.30    1.40
  -2   5  -3   47.70    2.10
  -3   5  -3   60.59    2.40
  -3   5  -3   60.49    2.40
  -3   5  -3   64.79    1.90
  -3   5  -3   61.19    2.30
  -3   5  -3   58.99    1.90
   3  -5   3   60.19    2.30
  -4   5  -3  586.94   14.90
  -4   5  -3  600.14   14.50
  -4   5  -3  580.54   14.80
   4  -5   3  588.64   14.20
   4  -5   3  582.94   14.90
  -5   5  -3 2946.41   70.29
  -5   5  -3 3030.90   69.89
   5  -5   3 2864.01   70.09
  -6   5  -3    1.40    0.80
  -6   5  -3    3.70    0.80
  -6   5  -3    2.10    0.50
   6  -5   3    2.40    0.80
  -7   5  -3   21.10    2.00
  -7   5  -3   22.70    1.30
  -7   5  -3   21.00    2.00
   7  -5   3   20.10    1.90
  -8   5  -3   33.00    2.60
  -8   5  -3   33.80    1.80
  -8   5  -3   33.10    2.10
  -8   5  -3   33.30    2.10
  -8   5  -3   32.60    2.60
  -9   5  -3   79.89    3.40
  -9   5  -3   82.79    3.10
  -9   5  -3   82.59    4.10
  -9   5  -3   76.69    3.40
 -10   5  -3  150.58    5.00
 -10   5  -3  150.18    5.10
 -10   5  -3  150.38    5.80
 -10   5  -3  148.39    4.80
 -11   5  -3   13.00    1.80
 -11   5  -3   14.90    1.50
 -11   5  -3   10.00    1.40
 -12   5  -3   31.20    1.70
 -12   5  -3   26.10    2.00
 -12   5  -3   29.00    1.80
 -11  -4   3    0.90    0.60
 -10  -4   3   44.70    2.30
  -9  -4   3   83.09    3.40
  -8  -4   3   15.50    1.60
   7   4  -3  131.39    3.60
  -7  -4   3  138.69    4.60
   6   4  -3    4.90    1.20
  -6  -4   3    2.60    1.10
   5   4  -3   21.10    1.80
  -5  -4   3   19.60    2.00
   4   4  -3   14.10    1.50
   4   4  -3   16.40    1.70
   4   4  -3   17.50    1.20
   4   4  -3   14.50    1.40
  -4  -4   3   16.30    1.40
  -4  -4   3   16.40    1.40
  -4  -4   3   15.30    1.70
   3   4  -3  144.89    4.50
   3   4  -3  145.59    5.00
   3   4  -3  143.79    4.10
   3   4  -3  141.69    5.00
  -3  -4   3  145.69    4.60
  -3  -4   3  143.99    4.80
  -3  -4   3  139.19    4.70
   2   4  -3 1381.96   32.90
   2   4  -3 1326.57   31.70
   2   4  -3 1365.16   32.10
   2   4  -3 1373.86   32.80
  -2  -4   3 1334.57   32.50
  -2  -4   3 1304.47   32.40
  -2  -4   3 1284.87   32.20
   1   4  -3  220.68    6.00
   1   4  -3  226.68    6.60
   1   4  -3  226.48    6.30
   1   4  -3  229.98    6.50
  -1  -4   3  227.28    6.50
  -1  -4   3  223.58    5.90
  -1  -4   3  225.48    6.20
   0   4  -3 2615.14   59.49
   0   4  -3 2471.95   58.99
   0   4  -3 2589.54   59.69
   0   4  -3 2291.47   58.89
   0  -4   3 2569.74   59.29
  -1   4  -3   31.80    1.00
  -1   4  -3   33.60    1.60
  -1   4  -3   34.60    1.60
  -1   4  -3   32.20    1.30
  -1   4  -3   31.50    1.40
  -2   4  -3  498.55   12.60
  -2   4  -3  505.55   12.80
  -2   4  -3  516.25   12.60
  -2   4  -3  512.25   12.80
  -3   4  -3 1196.18   28.90
  -3   4  -3 1176.08   28.40
  -3   4  -3 1232.48   28.50
  -3   4  -3 1196.38   28.80
  -3   4  -3 1226.18   28.90
   3  -4   3 1200.98   28.80
   3  -4   3 1178.28   28.90
  -4   4  -3   84.29    2.80
  -4   4  -3   89.39    3.10
  -4   4  -3   91.79    2.90
   4  -4   3   89.09    3.10
  -5   4  -3   19.20    0.90
  -5   4  -3   19.00    1.30
  -5   4  -3   21.50    1.50
   5  -4   3   19.50    1.50
  -6   4  -3  101.59    3.90
  -6   4  -3  100.19    3.10
  -6   4  -3  104.49    3.90
   6  -4   3  105.09    4.00
  -7   4  -3  168.48    5.80
  -7   4  -3  164.48    5.80
  -7   4  -3  175.78    4.90
  -7   4  -3  166.08    5.90
   7  -4   3  166.68    5.80
  -8   4  -3  170.28    5.30
  -8   4  -3  166.58    6.10
  -8   4  -3  181.18    5.20
  -8   4  -3  166.38    5.40
  -8   4  -3  165.28    6.00
   8  -4   3  165.48    6.00
  -9   4  -3    4.00    1.40
  -9   4  -3    2.70    1.00
  -9   4  -3    5.90    1.20
  -9   4  -3    3.20    0.90
 -10   4  -3    3.50    0.90
 -10   4  -3    0.80    0.90
 -10   4  -3    1.50    1.30
 -10   4  -3    3.20    1.20
 -10   4  -3    2.20    0.70
 -11   4  -3   35.10    2.10
 -11   4  -3   33.70    2.20
 -11   4  -3   32.70    2.50
 -12   4  -3    2.00    0.70
 -12   4  -3    2.30    0.80
 -11  -3   3   58.89    2.40
 -10  -3   3    1.20    0.90
  -9  -3   3  206.18    6.30
  -8  -3   3    6.10    1.20
   7   3  -3    2.10    1.00
  -7  -3   3    3.00    1.10
  -7  -3   3    2.40    0.80
   6   3  -3    1.00    0.80
  -6  -3   3    1.30    0.90
   5   3  -3    3.50    0.90
  -5  -3   3    3.20    0.90
  -5  -3   3    3.90    1.00
   4   3  -3 1367.86   32.60
   4   3  -3 1331.27   33.00
   4   3  -3 1346.77   33.30
   4   3  -3 1333.67   32.10
  -4  -3   3 1338.67   33.10
  -4  -3   3 1344.97   32.70
  -4  -3   3 1305.37   32.70
   3   3  -3  105.29    3.50
   3   3  -3  106.89    3.80
   3   3  -3  104.39    3.20
   3   3  -3  110.69    4.00
  -3  -3   3  112.49    3.90
  -3  -3   3  106.09    3.50
  -3  -3   3  105.69    3.70
   2   3  -3   39.10    1.80
   2   3  -3   33.50    1.80
   2   3  -3   35.50    1.50
  -2  -3   3   34.50    1.50
  -2  -3   3   32.00    1.60
  -2  -3   3   33.40    1.70
   1   3  -3  107.09    3.30
   1   3  -3  108.59    3.10
   1   3  -3   97.69    3.10
   1   3  -3  108.29    3.50
  -1  -3   3  108.39    3.30
  -1  -3   3  111.39    3.00
  -1  -3   3  106.69    3.40
   0   3  -3   11.10    0.60
   0   3  -3   12.10    0.70
   0   3  -3   12.40    1.00
   0   3  -3   13.50    0.70
   0   3  -3   12.00    1.00
   0  -3   3   11.70    0.80
  -1   3  -3 1032.40   24.30
  -1   3  -3 1025.20   24.60
  -1   3  -3  993.80   24.30
  -1   3  -3 1020.90   24.50
  -2   3  -3   58.89    2.00
  -2   3  -3   59.49    2.10
  -2   3  -3   56.29    2.10
  -2   3  -3   59.79    1.90
  -3   3  -3  157.78    4.50
  -3   3  -3  163.98    4.30
  -3   3  -3  156.28    4.20
  -3   3  -3  156.78    4.30
   3  -3   3  157.28    4.40
   3  -3   3  159.68    4.60
  -4   3  -3  240.38    6.70
  -4   3  -3  245.08    6.70
   4  -3   3  250.17    6.90
  -5   3  -3  421.66   10.50
  -5   3  -3  424.06   11.30
  -5   3  -3  432.26   11.40
   5  -3   3  437.16   11.50
  -6   3  -3    1.60    0.70
  -6   3  -3    2.10    0.50
  -6   3  -3    0.10    0.70
   6  -3   3    1.90    0.80
  -7   3  -3   30.40    2.30
  -7   3  -3   32.80    2.20
  -7   3  -3   30.80    1.60
  -7   3  -3   34.50    2.30
   7  -3   3   31.00    2.30
  -8   3  -3    7.40    1.20
  -8   3  -3    7.10    1.00
  -8   3  -3    5.40    1.40
  -8   3  -3    5.50    1.00
   8  -3   3    5.70    1.30
  -9   3  -3   77.39    3.30
  -9   3  -3   82.89    3.20
  -9   3  -3   77.99    3.30
  -9   3  -3   80.29    3.90
 -10   3  -3   61.09    2.70
 -10   3  -3   67.49    3.50
 -10   3  -3   60.49    2.30
 -10   3  -3   66.59    3.00
 -10   3  -3   63.89    3.00
 -11   3  -3   -0.20    0.80
 -11   3  -3    0.50    0.90
 -12   3  -3   23.50    1.50
 -12   3  -3   22.10    1.50
 -12  -2   3   11.30    1.10
 -11  -2   3   76.39    2.90
 -10  -2   3  151.28    4.90
  -9  -2   3   24.00    2.00
  -8  -2   3   54.29    2.70
   7   2  -3  118.19    4.80
  -7  -2   3  119.49    4.90
   6   2  -3  254.07    7.80
  -6  -2   3  263.17    8.10
   5   2  -3   17.10    1.50
  -5  -2   3   15.80    1.40
  -5  -2   3   14.50    1.60
   4   2  -3    4.70    0.80
   4   2  -3    4.20    0.90
   4   2  -3    4.20    0.60
   4   2  -3    4.30    0.80
  -4  -2   3    3.80    0.80
  -4  -2   3    4.80    0.80
  -4  -2   3    5.90    1.10
   3   2  -3    3.30    0.60
   3   2  -3    2.80    0.60
   3   2  -3    3.00    0.70
  -3  -2   3    3.10    0.70
  -3  -2   3    3.20    0.60
  -3  -2   3    7.10    1.00
   2   2  -3   67.99    2.20
   2   2  -3   67.19    2.50
   2   2  -3   66.39    2.50
  -2  -2   3   69.49    2.40
  -2  -2   3   68.19    2.20
  -2  -2   3   67.99    2.50
  -2  -2   3   63.39    2.20
   1   2  -3 1044.30   26.20
   1   2  -3 1131.89   26.70
   1   2  -3 1076.69   26.20
   1   2  -3 1119.19   26.40
  -1  -2   3 1092.89   26.50
  -1  -2   3 1117.69   26.40
  -1  -2   3 1144.69   26.50
   0   2  -3   69.99    2.10
   0   2  -3   70.39    1.80
   0   2  -3   69.79    1.90
   0   2  -3   71.39    2.40
   0  -2   3   69.79    2.10
   0  -2   3   72.29    2.30
  -1   2  -3    3.50    0.60
  -1   2  -3    3.30    0.50
  -1   2  -3    3.70    0.50
  -1   2  -3    3.50    0.40
  -2   2  -3 1408.06   32.70
  -2   2  -3 1385.96   32.60
  -2   2  -3 1396.86   32.80
  -2   2  -3 1373.66   32.80
  -2   2  -3 1382.16   33.20
   2  -2   3 1374.06   33.00
  -3   2  -3    6.20    0.70
  -3   2  -3    5.90    0.60
  -3   2  -3    5.90    0.60
  -3   2  -3    5.30    0.40
   3  -2   3    6.20    0.60
   3  -2   3    6.10    0.80
  -4   2  -3  201.18    5.70
  -4   2  -3  204.48    5.90
   4  -2   3  203.58    5.90
  -5   2  -3    4.70    0.60
  -5   2  -3    5.90    0.90
  -5   2  -3    5.40    0.90
   5  -2   3    4.70    0.90
  -6   2  -3  235.78    7.60
  -6   2  -3  248.68    7.30
  -6   2  -3  245.78    6.60
   6  -2   3  257.27    7.60
  -7   2  -3   25.70    1.90
  -7   2  -3   21.10    1.40
  -7   2  -3   18.30    2.00
  -7   2  -3   17.20    1.80
   7  -2   3   20.20    1.90
  -8   2  -3    8.50    1.10
  -8   2  -3    7.80    1.20
  -8   2  -3    6.80    1.10
  -8   2  -3    8.30    1.50
   8  -2   3    7.40    1.40
  -9   2  -3  119.39    4.20
  -9   2  -3  120.79    4.10
  -9   2  -3  118.29    3.60
  -9   2  -3  121.09    4.20
  -9   2  -3  123.69    4.90
 -10   2  -3   20.10    1.30
 -10   2  -3   19.60    1.90
 -10   2  -3   19.40    1.80
 -11   2  -3  169.58    5.10
 -11   2  -3  175.38    5.20
 -12   2  -3    8.00    0.90
 -12  -1   3    2.30    0.70
 -11  -1   3    2.40    0.90
 -10  -1   3    7.60    1.30
  -9  -1   3   22.80    1.90
   8   1  -3    1.50    1.10
  -8  -1   3    2.80    0.90
  -8  -1   3    1.50    1.00
   7   1  -3   20.10    1.90
  -7  -1   3   20.70    2.00
   6   1  -3   99.99    3.90
  -6  -1   3   97.79    4.00
   5   1  -3  282.87    7.70
  -5  -1   3  261.07    7.60
  -5  -1   3  267.17    8.00
   4   1  -3 2536.75   60.39
   4   1  -3 2636.64   60.29
   4   1  -3 2546.65   60.99
  -4  -1   3 2519.25   60.49
  -4  -1   3 2416.16   60.69
  -4  -1   3 2586.94   60.39
   3   1  -3  446.96   11.30
   3   1  -3  423.66   10.90
   3   1  -3  412.46   10.70
  -3  -1   3  419.56   11.00
  -3  -1   3  407.56   10.80
  -3  -1   3  427.66   10.70
  -3  -1   3  424.36   11.10
   2   1  -3    8.10    0.80
   2   1  -3    7.40    0.80
   2   1  -3    7.20    0.60
  -2  -1   3    8.20    0.60
  -2  -1   3    8.20    0.90
  -2  -1   3    8.00    0.80
  -2  -1   3    7.70    0.60
   1   1  -3   46.20    1.60
   1   1  -3   42.40    1.50
   1   1  -3   42.00    1.70
   1   1  -3   43.60    1.40
  -1  -1   3   43.60    1.50
  -1  -1   3   49.10    1.40
  -1  -1   3   44.60    1.70
   0   1  -3  228.98    5.90
   0   1  -3  239.78    5.80
   0   1  -3  229.18    5.70
   0  -1   3  247.88    6.10
   0  -1   3  238.88    6.20
   0  -1   3  228.18    5.80
  -1   1  -3 3819.52   90.29
  -1   1  -3 3494.25   90.59
  -1   1  -3 4399.76   91.69
  -1   1  -3 3592.04   90.59
   1  -1   3 4127.09   92.59
   1  -1   3 3588.14   90.49
  -2   1  -3    2.10    0.30
  -2   1  -3    2.80    0.50
  -2   1  -3    2.80    0.40
   2  -1   3    2.20    0.40
   2  -1   3    2.10    0.50
   2  -1   3    2.20    0.30
  -3   1  -3   41.40    1.80
  -3   1  -3   39.20    1.50
   3  -1   3   38.30    1.80
   3  -1   3   39.10    1.50
  -4   1  -3  343.67    9.10
  -4   1  -3  335.87    8.70
  -4   1  -3  358.36    9.60
   4  -1   3  362.06    9.50
  -5   1  -3  176.98    4.90
  -5   1  -3  170.58    5.30
  -5   1  -3  179.48    5.80
   5  -1   3  184.28    5.70
  -6   1  -3   67.79    3.30
  -6   1  -3   66.29    2.40
  -6   1  -3   62.59    2.80
   6  -1   3   63.69    3.00
  -7   1  -3  272.07    7.50
  -7   1  -3  266.27    8.80
  -7   1  -3  274.87    8.20
   7  -1   3  272.07    8.40
  -8   1  -3  105.19    3.70
  -8   1  -3  104.99    4.40
  -8   1  -3  106.99    3.90
  -8   1  -3  111.09    3.80
  -9   1  -3  155.68    4.50
  -9   1  -3  156.48    5.00
  -9   1  -3  155.18    4.90
  -9   1  -3  158.28    5.80
  -9   1  -3  159.78    5.10
 -10   1  -3    2.70    0.90
 -10   1  -3    3.40    0.70
 -10   1  -3    3.20    1.00
 -11   1  -3    5.00    0.90
 -12   1  -3    4.80    0.70
 -12   0   3   38.00    1.90
 -11   0   3   60.99    2.70
 -10   0   3  193.98    6.00
  -9   0   3   80.89    3.30
   8   0  -3   -0.80    0.80
  -8   0   3    1.80    1.00
  -8   0   3    4.50    1.00
   7   0  -3  505.35   13.80
  -7   0   3  504.25   13.90
   6   0  -3  607.94   15.70
  -6   0   3  590.94   15.90
   5   0  -3  130.19    4.20
  -5   0   3  125.39    4.20
  -5   0   3  122.69    4.40
   4   0  -3 1045.70   25.60
   4   0  -3 1008.80   24.90
  -4   0   3 1022.00   25.20
  -4   0   3 1040.70   25.30
  -4   0   3 1025.00   24.90
  -4   0   3 1050.59   25.20
  -4   0   3  992.80   24.90
   3   0  -3  271.67    7.50
   3   0  -3  274.47    7.10
  -3   0   3  267.67    7.20
  -3   0   3  271.67    7.40
  -3   0   3  265.07    7.40
  -3   0   3  276.27    7.10
   2   0  -3 2656.63   66.59
   2   0  -3 2741.03   65.49
  -2   0   3 2889.81   66.69
  -2   0   3 2732.53   67.69
  -2   0   3 3013.60   67.09
  -2   0   3 2735.63   65.49
  -2   0   3 2669.13   65.59
   1   0  -3    4.40    0.50
   1   0  -3    4.30    0.40
  -1   0   3    1.90    0.30
  -1   0   3    1.60    0.30
  -1   0   3    2.10    0.40
  -1   0   3    2.50    0.50
   0   0  -3  222.08    5.80
   0   0  -3  221.68    5.80
   0   0  -3  240.48    5.90
   0   0   3  238.78    6.00
   0   0   3  240.88    6.20
  -1   0  -3  522.45   12.30
  -1   0  -3  493.65   11.90
  -1   0  -3  459.35   12.30
  -1   0  -3  512.55   12.30
   1   0   3  512.95   12.00
   1   0   3  486.25   12.10
   1   0   3  524.85   12.50
  -2   0  -3 3725.53  104.79
  -2   0  -3 4230.28  103.79
  -2   0  -3 4536.95  105.89
   2   0   3 4779.62  105.19
   2   0   3 4339.77  105.39
   2   0   3 4872.11  104.69
  -3   0  -3   49.99    2.20
   3   0   3   46.20    1.80
   3   0   3   49.10    2.00
  -4   0  -3  337.67    8.90
  -4   0  -3  337.57    9.40
  -4   0  -3  333.77    8.50
   4   0   3  342.07    9.20
  -5   0  -3   12.80    1.50
  -5   0  -3   13.80    1.00
  -5   0  -3   12.80    1.20
   5   0   3   13.20    1.40
  -6   0  -3  206.88    7.10
  -6   0  -3  202.68    6.30
  -6   0  -3  208.98    5.80
   6   0   3  202.58    6.60
  -7   0  -3  248.08    7.60
  -7   0  -3  249.08    6.90
   7   0   3  243.38    7.90
  -8   0  -3   17.70    1.30
  -8   0  -3   18.80    1.50
  -8   0  -3   13.10    1.40
  -8   0  -3   12.80    1.70
  -9   0  -3  157.68    4.40
  -9   0  -3  153.98    5.00
 -10   0  -3   10.90    1.30
 -11   0  -3   30.40    1.70
 -13   1   3   92.69    2.90
 -12   1   3   20.00    1.60
 -11   1   3   23.40    2.00
 -10   1   3  310.77    8.80
  -9   1   3  178.18    5.70
  -9   1   3  199.98    5.90
   8  -1  -3   14.80    1.80
  -8   1   3    9.70    1.60
   7  -1  -3   89.89    3.80
  -7   1   3   97.29    4.00
   6  -1  -3   48.80    2.40
  -6   1   3   52.19    2.70
  -6   1   3   46.60    2.30
   5  -1  -3 1938.61   46.60
  -5   1   3 1925.61   47.00
  -5   1   3 1969.70   47.00
  -5   1   3 1963.50   46.80
   4  -1  -3  199.08    5.50
   4  -1  -3  201.18    6.10
  -4   1   3  194.08    5.40
  -4   1   3  186.78    5.80
  -4   1   3  198.98    5.50
  -4   1   3  201.98    5.80
  -4   1   3  196.58    5.80
   3  -1  -3   42.50    1.60
   3  -1  -3   43.30    1.90
  -3   1   3   42.00    1.70
  -3   1   3   44.10    1.70
  -3   1   3   42.60    1.90
  -3   1   3   44.50    1.80
  -3   1   3   43.90    1.80
   2  -1  -3   49.00    1.60
  -2   1   3   49.10    1.70
  -2   1   3   50.19    2.00
  -2   1   3   45.90    1.60
  -2   1   3   47.20    1.70
  -2   1   3   49.90    1.90
   1  -1  -3  900.61   21.50
   1  -1  -3  937.81   21.80
  -1   1   3  887.51   21.60
  -1   1   3  896.21   21.30
  -1   1   3  908.41   21.80
  -1   1   3  910.21   21.90
   0  -1  -3 1364.56   31.90
   0  -1  -3 1375.66   32.10
   0   1   3 1258.87   31.90
   0   1   3 1398.56   32.40
   0   1   3 1358.86   32.00
  -1  -1  -3  364.36    9.20
  -1  -1  -3  357.76    9.30
  -1  -1  -3  359.66    8.80
  -1  -1  -3  360.16    9.00
   1   1   3  370.76    8.70
   1   1   3  358.66    9.10
   1   1   3  358.26    9.40
  -2  -1  -3 1529.45   37.00
  -2  -1  -3 1609.34   37.70
  -2  -1  -3 1544.35   37.10
   2   1   3 1604.44   37.40
   2   1   3 1508.45   37.40
   2   1   3 1587.04   37.30
  -3  -1  -3   69.99    2.90
   3   1   3   67.49    2.50
   3   1   3   68.59    2.60
  -4  -1  -3  834.22   20.60
  -4  -1  -3  844.72   20.20
  -4  -1  -3  859.11   21.30
   4   1   3  807.32   20.60
   4   1   3  822.42   20.80
  -5  -1  -3  325.17    9.70
  -5  -1  -3  325.27    8.50
  -5  -1  -3  324.27    9.00
   5   1   3  324.97    9.20
  -6  -1  -3   47.40    2.10
   6   1   3   50.49    2.70
  -7  -1  -3   38.50    2.00
  -7  -1  -3   54.09    2.50
  -7  -1  -3   36.40    2.10
   7   1   3   35.20    2.60
  -8  -1  -3  469.35   12.40
  -8  -1  -3  474.85   11.70
  -9  -1  -3   74.09    2.50
  -9  -1  -3   74.49    3.00
 -10  -1  -3   13.80    1.40
 -11  -1  -3    1.30    0.60
 -13   2   3   11.70    1.00
 -12   2   3    7.20    1.10
  11  -2  -3  121.89    3.90
 -11   2   3  126.59    4.30
 -10   2   3  198.98    6.20
 -10   2   3  201.18    6.10
  -9   2   3  150.38    4.90
  -9   2   3  142.59    4.80
   8  -2  -3    4.00    1.10
  -8   2   3    6.00    1.30
   7  -2  -3  305.77    8.80
  -7   2   3  296.07    8.00
  -7   2   3  310.97    9.20
   6  -2  -3   67.29    2.80
  -6   2   3   65.99    3.10
  -6   2   3   65.29    2.80
  -6   2   3   65.99    2.30
  -6   2   3   68.49    3.10
   5  -2  -3  131.59    3.90
  -5   2   3  117.99    4.10
  -5   2   3  112.59    3.40
  -5   2   3  120.59    4.20
  -5   2   3  115.69    4.10
   4  -2  -3   45.70    2.20
   4  -2  -3   45.70    1.80
  -4   2   3   47.20    2.00
  -4   2   3   46.50    1.80
  -4   2   3   46.30    2.00
  -4   2   3   48.70    2.20
  -4   2   3   44.60    1.80
   3  -2  -3  426.16   11.50
   3  -2  -3  455.35   10.90
  -3   2   3  431.06   11.10
  -3   2   3  460.95   11.50
  -3   2   3  456.05   11.30
  -3   2   3  429.46   11.30
  -3   2   3  452.35   11.10
   2  -2  -3  272.17    7.30
   2  -2  -3  270.67    6.80
  -2   2   3  267.27    7.30
  -2   2   3  276.07    7.30
  -2   2   3  278.07    7.00
  -2   2   3  277.87    6.90
  -2   2   3  279.77    7.10
   1  -2  -3   14.20    0.70
   1  -2  -3   15.80    0.90
   1  -2  -3   14.60    0.90
  -1   2   3   14.60    0.80
  -1   2   3   14.00    1.10
  -1   2   3   15.90    0.90
  -1   2   3   17.30    0.60
   0  -2  -3  695.03   16.50
   0  -2  -3  701.53   17.20
   0  -2  -3  709.73   17.00
   0  -2  -3  615.34   16.70
   0   2   3  716.83   16.70
   0   2   3  704.73   16.90
   0   2   3  734.73   17.30
  -1  -2  -3  950.30   21.80
  -1  -2  -3  904.61   21.50
   1   2   3  889.31   21.90
   1   2   3  911.11   21.40
   1   2   3  891.31   21.70
   1   2   3  857.51   22.10
  -2  -2  -3   63.69    2.30
  -2  -2  -3   62.79    2.60
   2   2   3   61.39    1.70
   2   2   3   64.19    2.50
   2   2   3   61.09    2.50
   2   2   3   64.79    2.30
  -3  -2  -3    2.90    0.60
  -3  -2  -3    2.80    0.80
  -3  -2  -3    2.90    0.50
   3   2   3    2.40    0.60
   3   2   3    3.40    0.70
  -4  -2  -3   17.50    1.10
  -4  -2  -3   19.50    1.40
  -4  -2  -3   17.90    1.70
   4   2   3   18.10    1.40
   4   2   3   20.00    1.40
  -5  -2  -3  146.59    4.40
   5   2   3  144.39    5.00
  -6  -2  -3  149.39    4.90
  -6  -2  -3  127.29    4.20
   6   2   3  125.39    4.90
  -7  -2  -3   10.10    1.30
  -7  -2  -3   10.30    0.90
   7   2   3    9.60    1.60
  -8  -2  -3  244.38    6.40
  -8  -2  -3  245.38    7.10
  -9  -2  -3   21.80    1.80
 -10  -2  -3   55.89    2.40
 -11  -2  -3  143.09    4.00
 -13   3   3    1.90    0.70
  12  -3  -3    2.40    0.80
 -12   3   3    3.50    0.90
  11  -3  -3   13.40    1.30
 -11   3   3   12.70    1.50
 -10   3   3   10.10    1.50
 -10   3   3   13.60    1.50
   9  -3  -3   46.70    3.10
  -9   3   3   55.39    2.60
  -9   3   3   52.29    2.60
   8  -3  -3   68.59    3.30
  -8   3   3   68.49    2.70
  -8   3   3   70.79    3.60
   7  -3  -3 1025.30   26.00
  -7   3   3 1069.09   26.70
  -7   3   3 1049.49   25.40
   6  -3  -3  222.08    6.60
  -6   3   3  239.78    7.20
  -6   3   3  235.38    6.20
  -6   3   3  227.68    7.10
  -6   3   3  231.78    7.00
   5  -3  -3   14.50    1.00
  -5   3   3   13.30    1.20
  -5   3   3   13.10    1.20
  -5   3   3   13.30    1.30
  -5   3   3   13.60    0.80
   4  -3  -3  273.57    7.00
  -4   3   3  273.77    7.40
  -4   3   3  272.47    7.60
  -4   3   3  275.27    7.50
  -4   3   3  263.97    7.10
   3  -3  -3  707.83   17.20
   3  -3  -3  702.63   17.90
  -3   3   3  692.03   17.40
  -3   3   3  758.52   17.70
  -3   3   3  725.73   17.40
  -3   3   3  715.63   17.80
   2  -3  -3  162.08    4.70
   2  -3  -3  163.78    4.80
   2  -3  -3  157.98    4.10
  -2   3   3  170.68    4.70
  -2   3   3  162.58    4.30
  -2   3   3  163.88    4.60
  -2   3   3  155.98    4.80
  -2   3   3  163.68    4.50
   1  -3  -3  175.68    4.90
   1  -3  -3  161.38    4.40
   1  -3  -3  162.48    5.00
  -1   3   3  170.58    4.80
  -1   3   3  177.48    5.20
  -1   3   3  174.38    4.70
  -1   3   3  185.28    4.40
   0  -3  -3   47.80    1.90
   0  -3  -3   47.10    1.50
   0  -3  -3   49.50    2.10
   0   3   3   51.19    1.70
   0   3   3   45.50    1.80
   0   3   3   49.30    2.20
   0   3   3   48.00    1.60
  -1  -3  -3   94.59    3.40
  -1  -3  -3   87.59    2.70
  -1  -3  -3   96.29    3.10
   1   3   3   89.29    2.60
   1   3   3   90.29    3.10
   1   3   3   92.09    3.30
   1   3   3   86.39    2.80
  -2  -3  -3  653.53   16.70
   2   3   3  635.74   16.00
   2   3   3  639.24   15.50
  -3  -3  -3   60.19    3.00
  -3  -3  -3   63.59    2.20
  -3  -3  -3   62.89    2.60
   3   3   3   64.29    2.60
   3   3   3   63.39    2.80
  -4  -3  -3  411.06   11.00
  -4  -3  -3  401.26   10.50
   4   3   3  405.26   11.10
   4   3   3  419.06   11.30
   5   3   3   64.99    3.00
  -6  -3  -3  289.87    8.20
   6   3   3  264.87    8.40
  -7  -3  -3  738.33   17.50
  -7  -3  -3  710.13   18.30
  -8  -3  -3  505.75   13.10
  -8  -3  -3  502.25   12.30
  -9  -3  -3   26.50    1.80
 -10  -3  -3    2.80    0.70
  13  -4  -3   -0.30    0.50
 -13   4   3    0.10    0.60
  12  -4  -3   20.40    1.60
 -12   4   3   22.30    1.80
  11  -4  -3   86.79    3.30
 -11   4   3   91.09    3.60
 -10   4   3  313.67    9.00
 -10   4   3  322.87    9.00
  -9   4   3   19.00    1.80
  -9   4   3   19.80    1.90
   8  -4  -3    9.20    1.70
  -8   4   3    8.30    1.50
  -8   4   3   10.30    1.20
   7  -4  -3  118.99    4.20
  -7   4   3  119.09    4.80
  -7   4   3  131.69    4.90
  -7   4   3  131.29    3.90
  -7   4   3  128.09    5.20
   6  -4  -3    7.40    0.90
  -6   4   3    9.10    0.80
  -6   4   3    8.30    1.20
  -6   4   3    8.70    1.20
  -6   4   3    7.90    1.20
   5  -4  -3  140.79    4.20
  -5   4   3  144.49    4.80
  -5   4   3  147.19    4.70
  -5   4   3  141.99    4.00
  -5   4   3  143.99    4.70
   4  -4  -3    8.60    0.70
  -4   4   3    9.80    0.70
  -4   4   3    8.30    0.90
  -4   4   3    9.70    1.00
  -4   4   3    8.20    0.80
  -4   4   3    9.00    1.10
   3  -4  -3    6.70    0.80
   3  -4  -3    6.30    0.50
  -3   4   3    6.10    0.90
  -3   4   3    6.50    0.80
  -3   4   3    7.00    0.90
   2  -4  -3  294.27    7.40
   2  -4  -3  307.47    8.20
   2  -4  -3  293.17    8.30
  -2   4   3  297.47    7.80
  -2   4   3  309.67    8.10
  -2   4   3  324.37    8.20
  -2   4   3  304.47    7.70
  -2   4   3  313.07    8.50
   1  -4  -3 1296.97   33.20
   1  -4  -3 1355.16   33.00
  -1   4   3 1440.86   33.50
  -1   4   3 1347.57   32.40
  -1   4   3 1385.16   32.80
  -1   4   3 1385.76   32.90
   0  -4  -3   85.19    3.00
   0  -4  -3   78.59    3.20
   0   4   3   87.69    3.30
   0   4   3   88.59    3.00
   0   4   3   79.29    2.50
   0   4   3   88.99    2.70
  -1  -4  -3    3.90    0.70
  -1  -4  -3    3.60    0.80
  -1  -4  -3    3.90    0.60
   1   4   3    4.50    0.60
   1   4   3    3.70    0.70
   1   4   3    3.70    0.60
   1   4   3    6.20    1.10
  -2  -4  -3  231.38    6.50
   2   4   3  237.28    7.20
   2   4   3  232.58    6.50
  -3  -4  -3  184.78    5.80
   3   4   3  190.48    6.20
   3   4   3  192.98    5.70
   4   4   3   65.79    3.10
   4   4   3   65.39    2.90
  -5  -4  -3  280.47    8.30
   5   4   3  249.88    7.90
  -6  -4  -3   92.19    2.70
  -6  -4  -3   87.49    3.30
   6   4   3   87.99    4.00
  -7  -4  -3  805.22   19.00
  -7  -4  -3  779.82   19.80
  -8  -4  -3   38.00    2.20
  -9  -4  -3    8.80    1.10
 -10  -4  -3   14.40    1.10
  13  -5  -3  111.59    3.40
 -13   5   3  117.29    3.60
  12  -5  -3   63.99    2.60
 -12   5   3   63.39    2.80
  11  -5  -3   -0.20    0.80
 -11   5   3    0.00    0.90
 -10   5   3   54.79    2.80
 -10   5   3   55.79    2.90
  -9   5   3   46.00    2.30
  -9   5   3   45.20    2.50
  -9   5   3   46.90    2.60
  -8   5   3   62.79    3.50
  -8   5   3   70.89    2.70
  -7   5   3  133.89    5.00
  -7   5   3  140.39    5.30
  -7   5   3  136.29    5.20
  -7   5   3  155.38    4.30
  -6   5   3   12.00    0.90
  -6   5   3   13.90    1.50
  -6   5   3   16.00    1.60
  -6   5   3   13.60    1.40
  -5   5   3  773.82   19.60
  -5   5   3  753.72   18.40
  -5   5   3  761.32   19.20
  -5   5   3  763.52   19.40
  -4   5   3  483.15   12.00
  -4   5   3  486.65   12.20
  -4   5   3  468.35   11.50
  -4   5   3  468.55   12.50
  -4   5   3  436.46   12.20
   3  -5  -3  550.74   13.80
  -3   5   3  524.15   13.50
  -3   5   3  479.95   13.70
  -3   5   3  535.15   13.70
  -3   5   3  544.85   12.90
  -3   5   3  545.95   13.30
   2  -5  -3  433.46   11.50
  -2   5   3  415.96   11.20
  -2   5   3  432.36   11.30
  -2   5   3  466.15   11.90
  -2   5   3  424.86   10.90
   1  -5  -3 1977.30   47.00
  -1   5   3 2020.90   46.70
  -1   5   3 2000.40   46.80
  -1   5   3 1973.70   46.30
  -1   5   3 1813.32   47.40
   0  -5  -3  261.67    7.60
   0  -5  -3  255.47    6.90
   0   5   3  269.07    8.00
   0   5   3  263.77    7.10
   0   5   3  266.27    7.50
  -1  -5  -3   10.10    1.10
  -1  -5  -3   10.80    1.00
   1   5   3   11.40    1.20
   1   5   3   10.50    1.30
   1   5   3   10.00    0.90
  -2  -5  -3  186.38    5.50
   2   5   3  184.48    6.20
   3   5   3   23.70    2.00
   4   5   3  137.49    6.70
  -5  -5  -3  200.18    6.00
  -6  -5  -3   75.79    2.20
  -6  -5  -3   72.99    3.00
  -7  -5  -3  475.15   12.40
  -8  -5  -3   55.99    2.50
  -9  -5  -3    7.10    0.90
  13  -6  -3    0.90    0.70
 -13   6   3    0.20    0.60
  12  -6  -3    2.60    0.90
 -12   6   3    3.10    0.90
  11  -6  -3   15.90    1.50
 -11   6   3   17.30    1.80
 -10   6   3  132.39    4.70
 -10   6   3  134.69    4.70
  -9   6   3    3.20    1.10
  -9   6   3    2.70    1.00
  -8   6   3  231.58    6.70
  -8   6   3  197.98    7.30
  -8   6   3  198.28    6.20
  -8   6   3  211.88    6.30
  -8   6   3  212.28    6.30
  -8   6   3  217.28    6.10
  -7   6   3   94.49    4.10
  -7   6   3   95.49    4.20
  -7   6   3  102.29    3.30
  -7   6   3   98.29    4.20
  -6   6   3  170.88    5.90
  -6   6   3  174.48    5.80
  -6   6   3  172.68    4.90
  -6   6   3  175.08    5.70
  -5   6   3   60.19    2.00
  -5   6   3   56.09    2.60
  -5   6   3   58.89    2.90
  -5   6   3   61.39    2.60
   4  -6  -3   85.19    3.50
  -4   6   3   90.49    2.70
  -4   6   3   89.69    3.30
  -4   6   3   87.19    3.50
  -4   6   3   90.79    3.20
   3  -6  -3  446.56   12.00
  -3   6   3  444.16   11.50
  -3   6   3  451.25   12.20
  -3   6   3  451.05   12.10
  -3   6   3  449.16   11.10
  -3   6   3  455.75   11.80
   2  -6  -3 1263.77   32.00
  -2   6   3 1334.07   31.80
  -2   6   3 1294.97   31.30
  -2   6   3 1287.97   31.80
  -2   6   3 1332.57   30.90
   1  -6  -3 2240.38   53.79
  -1   6   3 2175.48   52.59
  -1   6   3 2204.38   53.49
  -1   6   3 2211.08   53.29
  -1   6   3 2335.97   54.29
   0  -6  -3  641.14   16.00
   0  -6  -3  664.73   16.80
   0   6   3  667.13   16.60
   0   6   3  649.64   15.60
   0   6   3  564.94   16.90
   0   6   3  649.14   16.10
  -1  -6  -3   87.09    3.10
   1   6   3   87.69    3.90
   1   6   3   80.79    2.70
   1   6   3   79.19    2.90
   2   6   3   81.69    3.90
   3   6   3    7.80    1.40
  -5  -6  -3  212.88    6.30
  -6  -6  -3  333.37    9.10
  -7  -6  -3  151.18    4.80
  -8  -6  -3   29.60    1.70
  13  -7  -3   65.09    2.30
 -13   7   3   67.69    2.50
  12  -7  -3   97.29    3.30
 -12   7   3   93.59    3.50
  11  -7  -3   17.00    1.60
 -11   7   3   19.20    1.90
 -10   7   3    6.60    1.20
 -10   7   3    7.80    1.10
 -10   7   3    4.40    1.30
  -9   7   3   15.10    1.40
  -9   7   3   18.30    1.80
  -9   7   3   14.70    1.60
  -8   7   3  347.37    9.30
  -8   7   3  329.27    9.20
  -8   7   3  334.97   10.50
  -8   7   3  337.77    9.40
  -8   7   3  339.87    9.90
  -7   7   3    1.80    0.80
  -7   7   3    1.30    0.80
  -7   7   3    1.50    0.90
  -7   7   3    1.20    0.60
  -6   7   3  234.78    7.70
  -6   7   3  237.98    7.30
  -6   7   3  218.48    7.20
  -6   7   3  233.18    6.30
  -5   7   3  265.17    8.10
  -5   7   3  248.98    6.60
  -5   7   3  240.18    7.50
  -5   7   3  249.48    7.40
   4  -7  -3    7.80    1.20
  -4   7   3    7.20    1.00
  -4   7   3    7.30    0.70
  -4   7   3    6.70    1.20
  -4   7   3    7.20    1.10
   3  -7  -3   16.80    1.50
  -3   7   3   18.20    1.70
  -3   7   3   18.10    1.50
  -3   7   3   17.80    1.30
  -3   7   3   17.30    1.00
  -3   7   3   16.60    1.60
   2  -7  -3  501.15   14.20
  -2   7   3  530.15   13.90
  -2   7   3  570.64   14.70
  -2   7   3  527.75   12.90
  -2   7   3  505.15   13.40
   1  -7  -3  198.38    6.40
   1  -7  -3  195.88    5.70
  -1   7   3  194.18    6.00
  -1   7   3  201.78    6.90
  -1   7   3  193.08    5.20
  -1   7   3  183.68    6.10
   0  -7  -3   18.80    1.40
   0  -7  -3   19.80    1.70
   0   7   3   21.30    1.70
   0   7   3   17.80    1.40
   0   7   3   17.90    1.10
   0   7   3   21.80    2.10
  -1  -7  -3  279.17    8.30
   1   7   3  289.77    9.20
   2   7   3   41.10    2.80
  -3  -7  -3  148.59    4.90
  -4  -7  -3  380.56   10.50
   4   7   3  394.46   10.00
  -5  -7  -3  144.69    4.70
  -6  -7  -3   18.20    1.70
  -7  -7  -3   32.30    1.90
  -8  -7  -3   38.80    1.80
  13  -8  -3    0.10    0.60
 -13   8   3    0.60    0.60
  12  -8  -3   16.40    1.50
 -12   8   3   16.40    1.60
  11  -8  -3    1.70    1.00
 -11   8   3    2.30    1.00
  10  -8  -3  303.27    8.20
 -10   8   3  284.57    8.20
 -10   8   3  298.27    8.50
  -9   8   3  112.29    4.70
  -9   8   3  114.39    4.20
  -9   8   3  114.69    3.90
  -9   8   3  110.99    4.10
  -8   8   3   92.19    3.50
  -8   8   3   93.39    3.70
  -8   8   3   95.39    3.30
  -8   8   3   88.39    4.10
  -8   8   3   93.59    3.50
  -7   8   3   60.89    2.40
  -7   8   3   57.49    2.70
  -7   8   3   59.59    3.10
  -7   8   3   58.29    3.20
  -6   8   3   56.59    3.00
  -6   8   3   61.49    2.30
  -6   8   3   54.99    2.90
  -6   8   3   54.99    2.90
  -6   8   3   57.99    2.60
  -5   8   3   51.99    2.80
  -5   8   3   57.09    3.20
  -5   8   3   56.89    2.10
  -5   8   3   53.69    2.70
   4  -8  -3   15.40    1.60
  -4   8   3   13.80    1.40
  -4   8   3   15.20    1.00
  -4   8   3   16.30    1.80
  -4   8   3   20.90    1.60
   3  -8  -3 1056.49   27.30
  -3   8   3 1124.79   27.70
  -3   8   3 1074.59   26.40
  -3   8   3 1107.69   27.00
  -3   8   3 1105.29   25.80
  -3   8   3  961.20   26.90
   2  -8  -3 1593.94   39.30
  -2   8   3 1648.34   38.40
  -2   8   3 1565.84   38.90
  -2   8   3 1419.36   39.50
  -2   8   3 1643.84   38.90
  -2   8   3 1621.44   37.70
   1  -8  -3    6.40    1.20
   1  -8  -3    6.70    1.10
  -1   8   3    5.60    1.10
  -1   8   3    6.40    1.10
  -1   8   3    7.40    1.50
  -1   8   3    5.50    0.70
   0  -8  -3    6.00    1.00
   0   8   3    4.90    0.80
   0   8   3    5.60    1.40
   0   8   3    4.80    1.00
   2   8   3   38.70    1.90
   3   8   3   63.29    2.50
  -4  -8  -3  108.19    4.10
   4   8   3  115.29    3.70
  -5  -8  -3   35.90    2.10
   5   8   3   36.10    2.20
  -6  -8  -3    1.50    0.80
  -7  -8  -3   14.30    1.30
  13  -9  -3   29.20    1.40
 -13   9   3   29.80    1.50
  12  -9  -3    3.80    0.90
 -12   9   3    3.50    0.90
  11  -9  -3   35.40    2.10
 -11   9   3   33.10    2.20
  10  -9  -3    4.70    1.10
 -10   9   3    4.00    1.10
 -10   9   3    2.90    1.40
 -10   9   3    3.30    0.90
   9  -9  -3   49.00    2.40
  -9   9   3   47.00    2.70
  -9   9   3   50.39    3.20
  -9   9   3   49.30    2.40
  -9   9   3   48.80    2.60
   8  -9  -3   27.90    1.80
  -8   9   3   30.20    2.60
  -8   9   3   29.10    2.00
  -8   9   3   31.30    2.20
  -8   9   3   28.70    1.80
  -7   9   3   50.69    2.20
  -7   9   3   46.70    2.90
  -7   9   3   49.50    2.30
  -7   9   3   47.20    3.00
  -7   9   3   50.69    2.70
  -6   9   3   22.30    2.10
  -6   9   3   21.20    1.40
  -6   9   3   25.80    1.90
  -6   9   3   19.90    1.90
  -5   9   3   11.20    1.50
  -5   9   3   10.30    1.30
  -5   9   3   13.60    1.10
  -5   9   3   10.70    1.40
  -5   9   3   10.80    1.60
   4  -9  -3  433.06   13.20
  -4   9   3  487.85   11.80
  -4   9   3  460.55   12.60
  -4   9   3  478.25   12.80
  -4   9   3  457.05   13.00
  -4   9   3  463.45   12.20
   3  -9  -3   47.90    2.90
  -3   9   3   52.09    2.00
  -3   9   3   50.79    3.20
  -3   9   3   49.70    2.80
  -3   9   3   47.20    2.90
  -3   9   3   49.10    2.50
   2  -9  -3    3.70    0.90
   2  -9  -3    3.50    1.10
  -2   9   3    3.50    1.20
  -2   9   3    2.90    0.70
  -2   9   3    2.70    0.90
  -2   9   3    3.30    1.00
   1  -9  -3   79.09    3.90
   1  -9  -3   84.49    3.50
  -1   9   3   90.09    3.00
  -1   9   3   86.79    3.70
   0  -9  -3   58.49    2.60
   0   9   3   44.40    2.10
   1   9   3   30.50    1.70
   1   9   3   30.10    2.00
   2   9   3    1.40    0.70
   2   9   3    3.90    1.00
  -3  -9  -3   10.90    1.40
   3   9   3   10.40    1.10
  -4  -9  -3  167.98    5.40
   4   9   3  174.88    5.10
  -5  -9  -3   13.20    1.30
   5   9   3   14.40    1.30
  -6  -9  -3   41.10    2.00
  12 -10  -3    8.10    1.00
 -12  10   3   10.20    1.10
  11 -10  -3  290.87    7.70
 -11  10   3  271.77    8.60
 -11  10   3  289.07    8.00
  10 -10  -3  131.69    4.20
 -10  10   3  122.49    5.10
 -10  10   3  126.09    4.40
 -10  10   3  116.89    4.10
   9 -10  -3   18.20    1.50
  -9  10   3   13.40    1.90
  -9  10   3   14.90    1.70
  -9  10   3   16.20    1.60
  -9  10   3   14.00    1.40
  -8  10   3  177.78    5.30
  -8  10   3  172.88    5.50
  -8  10   3  171.88    6.40
  -8  10   3  173.88    5.80
  -7  10   3    2.10    0.90
  -7  10   3    1.90    1.00
  -7  10   3    1.20    0.70
  -7  10   3    2.00    1.30
  -6  10   3    6.30    1.20
  -6  10   3    4.40    1.20
  -6  10   3    6.10    1.10
  -6  10   3   21.00    2.20
  -5  10   3   16.10    1.30
  -5  10   3   13.10    1.80
  -5  10   3   16.10    1.80
  -5  10   3   13.30    1.30
  -5  10   3   15.70    1.60
  -4  10   3   99.49    4.20
  -4  10   3  109.99    3.50
  -4  10   3  110.89    4.60
   3 -10  -3  388.06   11.20
  -3  10   3  397.76   11.40
  -3  10   3  402.56   10.70
  -3  10   3  406.16   10.30
   2 -10  -3  120.49    5.60
   2 -10  -3  108.89    5.20
  -2  10   3  128.79    3.90
  -2  10   3  118.99    4.10
  -2  10   3  133.09    5.20
   1 -10  -3   87.89    3.90
  -1  10   3   86.79    3.10
  -1  10   3   82.59    3.30
  -1  10   3   84.09    3.10
  -1  10   3   89.69    3.20
   0  10   3    2.70    0.80
   0  10   3    2.90    1.00
  -1 -10  -3   92.49    4.00
   1  10   3   82.99    3.20
   1  10   3   83.19    3.50
   2  10   3  111.09    3.80
   2  10   3  108.59    4.20
  -3 -10  -3   11.40    1.40
   3  10   3    8.60    1.10
  -4 -10  -3    1.40    0.80
   4  10   3    0.70    0.70
  -5 -10  -3    0.40    0.70
   5  10   3    0.00    0.60
  12 -11  -3    0.20    0.60
 -12  11   3    4.40    0.80
  11 -11  -3   86.69    2.90
 -11  11   3   79.99    3.10
 -11  11   3   80.19    3.80
  10 -11  -3    6.00    1.00
 -10  11   3    4.10    1.50
 -10  11   3    5.60    1.10
 -10  11   3    5.90    1.20
  -9  11   3   36.20    2.00
  -9  11   3   34.30    2.20
  -9  11   3   36.70    2.40
  -9  11   3   36.60    3.00
  -8  11   3    3.50    0.90
  -8  11   3    3.20    1.20
  -8  11   3    4.60    1.60
  -8  11   3    4.20    1.00
  -7  11   3    9.70    1.90
  -7  11   3    6.10    1.00
  -7  11   3    8.20    1.20
  -7  11   3    7.90    1.40
  -6  11   3   62.99    2.80
  -6  11   3   73.19    3.30
  -6  11   3   65.29    3.80
  -6  11   3   66.19    2.70
  -5  11   3  111.79    3.70
  -5  11   3  106.79    4.80
  -5  11   3  110.49    4.10
  -5  11   3  101.79    3.80
  -4  11   3  953.30   23.40
  -4  11   3  906.61   23.10
  -4  11   3  960.70   22.90
  -4  11   3  911.01   24.20
   3 -11  -3  121.49    6.20
  -3  11   3  146.89    4.40
  -3  11   3  135.29    4.50
  -3  11   3  144.99    4.70
   2 -11  -3   46.90    3.30
  -2  11   3   48.60    2.40
  -2  11   3   43.30    2.40
  -2  11   3   46.10    2.20
  -2  11   3   49.30    2.30
   1 -11  -3  223.18    7.20
  -1  11   3  211.48    6.40
  -1  11   3  219.58    6.40
  -1  11   3  214.58    6.60
  -1  11   3  228.78    6.40
   0 -11  -3  155.78    5.60
   0  11   3  150.28    4.80
   0  11   3  146.49    5.10
   1  11   3    2.70    0.90
   1  11   3    4.40    1.10
   2  11   3    8.90    1.20
   2  11   3   12.90    1.60
  -3 -11  -3    1.20    0.90
   3  11   3    0.00    0.70
   4  11   3  114.29    3.60
   5  11   3  119.99    3.50
 -12  12   3   65.39    2.70
 -11  12   3  239.48    6.60
 -11  12   3  232.88    7.30
 -10  12   3   87.29    4.20
 -10  12   3   83.99    3.40
 -10  12   3   91.09    3.30
  -9  12   3    1.30    0.70
  -9  12   3    3.00    1.10
  -9  12   3    2.10    1.50
  -9  12   3    0.50    0.80
  -8  12   3    0.30    0.80
  -8  12   3    0.90    1.00
  -8  12   3    1.40    0.70
  -8  12   3    2.10    1.60
  -7  12   3   64.79    2.90
  -7  12   3   72.69    4.10
  -7  12   3   69.99    3.40
  -7  12   3   67.59    2.80
  -6  12   3   86.69    4.50
  -6  12   3   79.39    3.60
  -6  12   3   80.09    3.10
  -6  12   3   79.69    3.30
  -5  12   3    2.30    1.60
  -5  12   3    1.40    1.00
  -5  12   3    1.00    0.70
  -5  12   3    1.00    0.80
   4 -12  -3    3.40    2.40
  -4  12   3    8.00    1.10
  -4  12   3    9.40    1.20
  -4  12   3    9.30    1.40
   3 -12  -3  147.49    6.50
  -3  12   3  159.78    5.00
  -3  12   3  160.58    5.20
  -3  12   3  158.98    5.10
   2 -12  -3  270.37    8.50
  -2  12   3  260.27    7.50
  -2  12   3  261.67    7.60
  -2  12   3  270.67    7.50
  -2  12   3  260.27    7.70
   1 -12  -3   33.00    2.40
  -1  12   3   24.60    2.10
  -1  12   3   28.60    1.90
   0 -12  -3    2.30    1.60
   0  12   3    0.60    0.80
   0  12   3    1.50    0.90
   1  12   3   34.10    2.30
   1  12   3   31.50    1.90
  -2 -12  -3  307.07    8.70
   2  12   3  321.67    8.50
   3  12   3    2.50    0.80
   4  12   3    4.80    0.70
 -11  13   3    6.30    0.80
 -11  13   3    5.20    1.50
 -10  13   3    6.30    1.60
 -10  13   3    6.40    1.10
 -10  13   3    6.60    1.00
  -9  13   3    5.20    1.20
  -9  13   3    5.70    1.80
  -9  13   3    4.90    1.00
  -8  13   3  144.59    5.10
  -8  13   3  147.59    4.80
  -8  13   3  149.09    5.90
  -7  13   3   32.60    2.10
  -7  13   3   43.20    3.50
  -7  13   3   34.10    1.90
  -7  13   3   35.00    2.50
  -6  13   3    1.80    1.10
  -6  13   3    1.80    0.80
  -6  13   3    2.30    0.90
  -6  13   3    1.50    1.70
   5 -13  -3  176.38    7.80
  -5  13   3  181.18    5.60
  -5  13   3  184.98    5.90
  -5  13   3  169.48    5.30
   4 -13  -3  549.74   15.90
  -4  13   3  529.35   14.00
  -4  13   3  540.95   14.20
  -4  13   3  567.44   14.50
   3 -13  -3    3.10    1.50
  -3  13   3    0.20    0.70
  -3  13   3    0.60    0.90
  -3  13   3   -1.80    0.80
   2 -13  -3   75.99    3.70
  -2  13   3   72.79    3.20
  -2  13   3   67.69    3.20
  -2  13   3   76.79    3.00
   1 -13  -3   42.40    2.90
  -1  13   3   38.90    2.40
  -1  13   3   37.80    2.10
   0  13   3  279.97    7.80
   0  13   3  287.47    8.20
   1  13   3    1.70    0.80
   2  13   3   22.10    1.50
   3  13   3    2.50    0.60
 -10  14   3    3.40    1.10
 -10  14   3    3.90    1.40
 -10  14   3    2.70    0.70
  -9  14   3   22.40    1.60
  -9  14   3   22.30    1.80
  -9  14   3   26.40    2.60
  -8  14   3    4.20    0.90
  -8  14   3    7.40    1.80
  -8  14   3    5.10    1.20
   7 -14  -3   35.90    4.30
  -7  14   3   29.60    1.90
  -7  14   3   32.50    2.30
   6 -14  -3   42.40    4.50
  -6  14   3   30.00    2.00
  -6  14   3   31.40    2.30
   5 -14  -3   30.00    3.70
  -5  14   3   24.60    1.90
  -5  14   3   26.90    2.10
  -5  14   3   25.10    2.50
   4 -14  -3   22.50    2.80
  -4  14   3   17.40    1.80
  -4  14   3   16.30    1.60
   3 -14  -3   93.69    4.10
  -3  14   3   88.49    3.60
  -3  14   3   84.69    3.50
   2 -14  -3   73.99    3.60
  -2  14   3   69.89    2.80
  -2  14   3   68.39    3.00
  -2  14   3   73.49    3.00
  -1  14   3   60.49    2.60
  -1  14   3   58.29    2.70
   0  14   3    0.80    0.70
   1  14   3   74.79    2.70
   2  14   3    1.60    0.60
   9 -15  -3    6.00    2.10
  -9  15   3    2.70    0.90
   8 -15  -3   36.80    3.60
  -8  15   3   28.50    1.60
  -8  15   3   28.50    1.90
   7 -15  -3    1.40    2.00
  -7  15   3    0.50    0.90
  -7  15   3    1.10    0.70
   6 -15  -3    8.80    2.00
  -6  15   3    5.60    1.00
  -6  15   3    5.30    1.10
   5 -15  -3   53.19    3.20
  -5  15   3   45.20    2.40
  -5  15   3   48.60    2.50
   4 -15  -3   22.70    2.20
  -4  15   3   15.40    1.70
  -4  15   3   19.90    1.70
   3 -15  -3   28.20    2.30
  -3  15   3   27.70    1.80
  -3  15   3   25.60    1.80
  -2  15   3    0.60    0.60
  -1  15   3    1.30    0.60
   0  15   3   22.10    1.30
   1  15   3   45.50    1.70
   7 -16  -3   22.70    2.00
  -7  16   3   23.70    1.60
   6 -16  -3    1.10    0.90
  -6  16   3    1.10    0.70
   5 -16  -3   89.59    3.50
  -5  16   3   85.39    3.10
   4 -16  -3   82.49    3.30
  -4  16   3   78.89    2.90
  -2  16   3   40.10    2.00
  -1  16  -4   24.30    1.30
  -1  16  -4   21.20    1.70
  -1  16  -4   24.40    1.80
  -2  16  -4    1.30    0.90
  -2  16  -4    2.30    1.00
  -3  16  -4    1.10    0.90
  -3  16  -4    0.20    0.90
  -4  16  -4    9.00    1.30
  -4  16  -4    5.20    1.10
  -5  16  -4  109.09    3.80
  -5  16  -4  101.59    3.70
  -6  16  -4    3.60    1.00
  -6  16  -4    2.10    1.00
  -7  16  -4   -0.10    0.70
   2  15  -4   83.09    2.70
  -2 -15   4   81.69    2.80
   1  15  -4  127.39    3.90
   1  15  -4  122.69    4.10
   0  15  -4    0.30    0.90
   0  15  -4    1.50    0.90
   0  15  -4    0.70    0.70
  -1  15  -4    3.00    1.20
  -1  15  -4    4.90    1.20
  -1  15  -4    4.60    0.90
  -2  15  -4   48.30    2.80
  -2  15  -4   44.40    2.60
  -3  15  -4    8.00    1.50
  -3  15  -4    4.80    1.30
  -4  15  -4   20.30    2.00
  -4  15  -4   16.00    1.80
  -5  15  -4   32.20    2.40
  -5  15  -4   36.70    2.30
  -6  15  -4   19.70    1.70
  -6  15  -4   20.00    1.90
  -7  15  -4   52.19    2.90
  -7  15  -4   57.19    2.50
  -8  15  -4   33.50    1.80
   3  14  -4   30.80    1.60
  -3 -14   4   36.50    1.80
   2  14  -4   41.70    2.00
   2  14  -4   42.60    2.30
  -2 -14   4   42.40    2.20
   1  14  -4  146.89    4.60
   1  14  -4  150.98    5.10
   1  14  -4  139.69    4.80
   0  14  -4   23.80    2.20
   0  14  -4   21.40    2.30
   0  14  -4   22.50    1.80
  -1  14  -4   54.09    2.60
  -1  14  -4   53.69    2.90
  -1  14  -4   54.79    3.10
  -1  14  -4   52.99    3.00
  -2  14  -4   38.80    2.70
  -2  14  -4   40.20    2.20
  -2  14  -4   45.20    2.90
  -2  14  -4   35.00    1.90
  -3  14  -4   67.39    2.70
  -3  14  -4   73.59    3.40
  -3  14  -4   72.69    3.50
  -4  14  -4   92.59    3.20
  -4  14  -4   96.69    3.80
  -4  14  -4   90.69    4.10
  -5  14  -4  686.33   17.20
  -5  14  -4  658.53   16.80
  -5  14  -4  617.94   16.20
  -6  14  -4   13.90    1.60
  -6  14  -4   14.00    1.70
  -7  14  -4    5.90    1.20
  -7  14  -4    8.20    1.80
  -8  14  -4    7.10    1.20
  -8  14  -4    7.20    1.60
  -9  14  -4  225.88    7.20
  -9  14  -4  244.88    6.70
   4  13  -4   31.80    1.60
  -4 -13   4   34.70    1.90
   3  13  -4   17.30    1.50
  -3 -13   4   15.70    1.60
   2  13  -4   51.09    2.90
   2  13  -4   52.89    2.50
   2  13  -4   50.19    2.60
   1  13  -4  101.99    3.80
   1  13  -4  112.99    3.90
   1  13  -4  106.29    4.30
   1  13  -4  106.89    4.20
   0  13  -4   21.60    1.60
   0  13  -4   24.70    2.30
   0  13  -4   20.40    1.90
   0  13  -4   24.80    2.30
  -1  13  -4   79.29    3.20
  -1  13  -4   79.59    3.70
  -1  13  -4   73.69    3.00
  -1  13  -4   82.89    3.80
  -2  13  -4   12.70    1.40
  -2  13  -4   14.60    1.40
  -2  13  -4   11.30    1.60
  -2  13  -4   12.50    1.80
  -3  13  -4    4.80    0.90
  -3  13  -4    4.20    1.40
  -3  13  -4    4.10    1.20
  -4  13  -4   51.39    2.20
  -4  13  -4   53.09    2.80
  -4  13  -4   54.69    3.20
  -5  13  -4   41.20    1.90
  -5  13  -4   49.00    2.60
  -5  13  -4   47.10    2.90
  -6  13  -4  139.99    4.30
  -6  13  -4  148.49    5.00
  -6  13  -4  151.58    5.10
  -6  13  -4  141.99    5.60
  -7  13  -4    3.70    0.70
  -7  13  -4    3.80    1.40
  -7  13  -4    5.40    1.20
  -8  13  -4   10.60    1.80
  -8  13  -4   15.20    1.60
  -9  13  -4    2.30    1.30
  -9  13  -4    1.20    0.90
 -10  13  -4    5.10    0.90
 -10  13  -4    4.30    1.20
   5  12  -4   23.60    1.40
   5  12  -4   25.60    1.00
  -5 -12   4   24.70    1.60
   4  12  -4  181.28    5.40
  -4 -12   4  184.88    5.70
   3  12  -4    2.40    1.00
   3  12  -4    3.60    1.10
   2  12  -4   12.60    1.40
   2  12  -4   15.80    1.60
   2  12  -4   13.20    1.80
   2  12  -4   12.80    1.60
   1  12  -4    0.10    1.10
   1  12  -4    0.00    0.70
   1  12  -4    1.00    1.20
   1  12  -4    1.00    0.90
   0  12  -4   34.90    2.60
   0  12  -4   32.60    2.10
   0  12  -4   37.40    2.70
   0  12  -4   35.50    2.00
  -1  12  -4  114.99    4.00
  -1  12  -4  113.29    3.80
  -1  12  -4  114.99    4.40
  -1  12  -4  123.39    4.70
  -2  12  -4   80.99    3.10
  -2  12  -4   79.09    2.90
  -2  12  -4   84.99    3.80
  -2  12  -4   78.49    3.40
  -3  12  -4    9.40    1.30
  -3  12  -4   12.00    1.70
  -3  12  -4   11.20    1.10
  -4  12  -4  119.29    3.60
  -4  12  -4  123.19    4.70
  -4  12  -4  120.49    4.30
  -5  12  -4   99.99    4.10
  -5  12  -4  106.39    4.00
  -5  12  -4   96.69    3.10
  -5  12  -4  101.09    4.40
  -6  12  -4  112.59    4.80
  -6  12  -4  119.09    4.30
  -6  12  -4  111.59    3.50
  -6  12  -4  114.09    4.30
  -7  12  -4   36.00    2.90
  -7  12  -4   31.30    1.60
  -7  12  -4   36.70    2.40
  -8  12  -4    1.00    0.90
  -8  12  -4    1.90    1.40
  -8  12  -4    2.00    0.60
  -9  12  -4   46.10    2.50
  -9  12  -4   46.10    3.20
 -10  12  -4    7.10    1.50
 -10  12  -4    6.30    1.10
 -11  12  -4   54.09    2.20
 -11  12  -4   56.19    2.90
  -6 -11   4    3.20    0.80
   5  11  -4   16.60    1.50
  -5 -11   4   18.50    1.80
   4  11  -4   65.79    2.80
  -4 -11   4   64.39    3.20
   3  11  -4   39.10    2.50
   3  11  -4   41.60    2.80
   3  11  -4   40.20    2.30
   3  11  -4   34.50    2.10
   2  11  -4  301.37    8.50
   2  11  -4  304.77    9.00
   2  11  -4  301.27    8.90
   2  11  -4  307.37    8.50
   1  11  -4    4.70    1.30
   1  11  -4    4.20    1.30
   1  11  -4    6.40    1.10
   1  11  -4    6.90    1.10
   0  11  -4   38.30    1.90
   0  11  -4   39.00    2.10
   0  11  -4   34.70    2.40
   0  11  -4   36.60    2.50
  -1  11  -4    1.80    0.80
  -1  11  -4    1.80    0.70
  -1  11  -4    2.80    1.00
  -1  11  -4    2.20    1.10
  -2  11  -4   43.10    1.80
  -2  11  -4   41.40    2.30
  -2  11  -4   41.60    2.10
  -2  11  -4   41.90    2.60
  -3  11  -4  280.67    7.20
  -3  11  -4  267.57    7.90
  -3  11  -4  279.97    8.30
  -4  11  -4    7.20    1.30
  -4  11  -4    7.40    1.10
  -4  11  -4    6.70    0.80
  -5  11  -4  138.49    4.60
  -5  11  -4  125.09    5.10
  -5  11  -4  138.29    4.80
  -5  11  -4  135.79    3.90
  -6  11  -4    4.70    1.30
  -6  11  -4    5.60    1.40
  -6  11  -4    5.10    1.10
  -7  11  -4    4.20    1.10
  -7  11  -4    4.20    0.80
  -7  11  -4    3.90    1.40
  -8  11  -4  118.39    3.80
  -8  11  -4  121.99    4.50
  -8  11  -4  125.79    5.40
  -9  11  -4   41.80    3.20
  -9  11  -4   40.00    2.00
  -9  11  -4   42.80    2.50
 -10  11  -4   35.90    2.20
 -10  11  -4   35.20    2.80
 -11  11  -4  104.89    3.90
 -11  11  -4  110.89    4.30
 -11  11  -4  115.29    3.60
  -7 -10   4   49.00    2.10
   6  10  -4   69.79    2.10
  -6 -10   4   70.59    2.90
   5  10  -4   47.50    2.30
  -5 -10   4   52.09    2.80
   4  10  -4   24.50    1.90
  -4 -10   4   24.90    2.30
   3  10  -4    3.50    1.20
   3  10  -4    3.30    1.00
   3  10  -4    2.80    0.90
   3  10  -4    3.70    1.20
   2  10  -4  187.38    6.20
   2  10  -4  199.08    5.80
   2  10  -4  186.78    5.70
   2  10  -4  182.18    6.20
   1  10  -4   13.60    1.60
   1  10  -4   14.90    1.70
   1  10  -4   14.40    1.30
   1  10  -4   14.60    1.40
   0  10  -4    4.90    1.10
   0  10  -4    4.20    0.80
   0  10  -4    4.40    0.90
   0  10  -4    3.30    1.10
   0 -10   4    8.00    1.60
  -1  10  -4  118.29    4.10
  -1  10  -4  122.99    3.60
  -1  10  -4  116.29    3.90
  -1  10  -4  120.29    4.40
   1 -10   4  120.39    4.90
  -2  10  -4  326.67    8.30
  -2  10  -4  315.77    9.00
  -2  10  -4  330.07    9.30
   2 -10   4  347.67   10.10
  -3  10  -4   40.20    1.40
  -3  10  -4   37.30    2.30
  -3  10  -4   38.00    2.00
   3 -10   4   39.50    2.70
  -4  10  -4  292.77    8.30
  -4  10  -4  294.87    8.20
  -4  10  -4  292.97    9.10
  -4  10  -4  283.97    8.70
  -5  10  -4  241.88    8.10
  -5  10  -4  240.28    7.10
  -5  10  -4  240.98    7.70
  -5  10  -4  245.18    7.10
  -6  10  -4   46.10    2.50
  -6  10  -4   43.70    2.90
  -6  10  -4   47.40    1.80
  -7  10  -4   20.40    1.30
  -7  10  -4   23.80    1.90
  -7  10  -4   24.40    2.60
  -8  10  -4   31.40    3.00
  -8  10  -4   30.30    2.30
  -8  10  -4   33.60    1.80
  -9  10  -4   41.60    3.30
  -9  10  -4   37.30    1.90
  -9  10  -4   37.40    2.30
  -9  10  -4   39.90    2.50
 -10  10  -4   86.79    3.40
 -10  10  -4   89.89    3.50
 -10  10  -4   90.59    4.30
 -11  10  -4  109.19    4.40
 -11  10  -4  108.69    3.60
 -11  10  -4  109.29    3.70
  -8  -9   4   38.60    1.80
  -7  -9   4   18.80    1.70
  -6  -9   4  118.49    4.30
   5   9  -4  222.78    6.50
  -5  -9   4  226.68    7.00
   4   9  -4   92.89    4.00
   4   9  -4   89.19    3.30
   4   9  -4   83.79    3.50
   4   9  -4   87.49    3.70
   3   9  -4   15.30    1.70
   3   9  -4   19.00    2.00
   3   9  -4   20.70    1.60
   3   9  -4   19.50    1.60
   2   9  -4   96.59    3.40
   2   9  -4  102.39    3.50
   2   9  -4   91.59    3.80
   2   9  -4   93.09    3.80
  -2  -9   4   98.59    4.60
   1   9  -4  425.46   11.50
   1   9  -4  425.26   10.80
  -1  -9   4  413.36   12.20
   0   9  -4  154.18    4.30
   0   9  -4  155.38    6.10
   0   9  -4  143.89    5.00
   0  -9   4  150.98    5.50
  -1   9  -4  192.68    6.20
  -1   9  -4  189.28    5.00
  -1   9  -4  185.68    7.10
  -1   9  -4  193.78    6.00
   1  -9   4  191.08    6.10
   1  -9   4  202.48    6.50
  -2   9  -4   27.30    1.70
  -2   9  -4   26.30    2.30
  -2   9  -4   22.90    2.20
   2  -9   4   23.60    1.60
   2  -9   4   28.90    2.10
  -3   9  -4   67.59    3.30
  -3   9  -4   66.79    2.60
  -3   9  -4   62.59    3.50
   3  -9   4   61.59    2.60
  -4   9  -4 1006.90   25.40
  -4   9  -4 1005.30   25.40
  -4   9  -4  986.10   24.60
   4  -9   4  982.60   24.30
  -5   9  -4    8.60    1.40
  -5   9  -4   10.20    1.60
  -6   9  -4   79.89    4.00
  -6   9  -4   83.59    3.30
  -6   9  -4   85.49    3.90
  -7   9  -4  181.98    6.60
  -7   9  -4  176.28    5.00
  -7   9  -4  175.68    5.70
  -8   9  -4   17.70    1.70
  -8   9  -4   20.20    2.00
  -8   9  -4   16.50    2.30
  -8   9  -4   16.60    1.30
  -9   9  -4   57.99    2.50
  -9   9  -4   66.19    3.90
  -9   9  -4   59.49    3.00
  -9   9  -4   62.29    3.00
 -10   9  -4  240.38    7.10
 -10   9  -4  228.88    6.70
 -10   9  -4  242.48    7.00
 -10   9  -4  246.48    8.10
 -11   9  -4   71.09    2.90
 -11   9  -4   72.29    3.60
 -11   9  -4   72.49    2.90
 -12   9  -4    2.40    0.70
 -12   9  -4    2.00    0.70
 -12   9  -4    1.10    1.00
  -9  -8   4    6.50    0.80
  -8  -8   4   44.00    2.20
   7   8  -4   42.60    1.50
  -7  -8   4   44.70    2.40
  -6  -8   4    5.30    1.20
   5   8  -4  491.75   12.70
  -5  -8   4  488.45   13.20
   4   8  -4    4.90    1.20
   4   8  -4    4.20    1.00
   4   8  -4    5.60    1.20
   4   8  -4    6.00    1.00
   3   8  -4  159.48    4.90
   3   8  -4  154.68    5.20
   3   8  -4  156.18    5.30
   3   8  -4  154.38    4.80
  -3  -8   4  150.08    5.90
   2   8  -4   19.40    1.30
   2   8  -4   16.20    1.80
   2   8  -4   16.60    1.70
  -2  -8   4   14.60    1.80
  -2  -8   4   17.20    1.70
   1   8  -4    3.00    1.10
   1   8  -4    1.20    0.70
   1   8  -4    1.80    0.50
  -1  -8   4    1.40    0.70
  -1  -8   4    1.00    0.80
  -1  -8   4    2.00    0.90
   0   8  -4    9.80    1.60
   0   8  -4    9.90    1.20
   0   8  -4    9.80    0.70
   0   8  -4   10.10    1.70
   0  -8   4   11.10    1.50
   0  -8   4    9.60    1.10
   0  -8   4    9.50    1.50
  -1   8  -4  124.59    3.30
  -1   8  -4  127.69    4.30
  -1   8  -4  123.39    5.00
  -1   8  -4  121.09    4.90
   1  -8   4  126.49    4.10
   1  -8   4  135.99    4.70
  -2   8  -4  826.92   21.60
  -2   8  -4  810.22   21.40
  -2   8  -4  825.62   20.30
   2  -8   4  846.52   21.00
   2  -8   4  815.72   20.20
  -3   8  -4  790.42   19.90
  -3   8  -4  787.72   20.30
   3  -8   4  752.02   18.90
  -4   8  -4  332.67    8.60
  -4   8  -4  335.27    9.60
  -4   8  -4  334.37    9.80
   4  -8   4  328.17    8.50
  -5   8  -4   89.49    3.80
  -5   8  -4   86.19    3.70
  -5   8  -4   82.09    2.90
   5  -8   4   83.69    2.90
  -6   8  -4  138.89    5.50
  -6   8  -4  168.48    5.80
  -6   8  -4  156.48    5.60
  -7   8  -4  197.68    6.00
  -7   8  -4  190.98    6.90
  -7   8  -4  200.08    5.50
  -7   8  -4  199.78    6.10
  -7   8  -4  199.58    7.00
  -8   8  -4    6.20    0.90
  -8   8  -4    5.40    1.60
  -8   8  -4    5.30    1.20
  -8   8  -4    5.50    1.20
  -9   8  -4   72.69    2.80
  -9   8  -4   73.89    3.30
  -9   8  -4   77.69    3.30
  -9   8  -4   69.59    4.10
 -10   8  -4  185.88    5.80
 -10   8  -4  178.88    5.40
 -10   8  -4  183.98    5.80
 -10   8  -4  186.28    6.80
 -11   8  -4   22.10    1.90
 -11   8  -4   24.00    1.80
 -11   8  -4   25.70    2.40
 -12   8  -4  161.38    4.70
 -12   8  -4  164.48    4.70
 -12   8  -4  160.38    5.20
  -9  -7   4    7.70    1.10
  -8  -7   4    1.90    0.90
   7   7  -4    8.20    0.80
  -7  -7   4   10.70    1.40
  -6  -7   4    1.20    1.00
   5   7  -4  598.24   15.50
  -5  -7   4  634.74   16.20
   4   7  -4   19.00    2.30
   4   7  -4   17.50    1.50
   4   7  -4   16.80    1.70
   4   7  -4   15.10    1.70
  -4  -7   4   18.10    2.20
   3   7  -4    1.40    0.90
   3   7  -4    1.30    0.60
   3   7  -4    1.40    1.30
  -3  -7   4    0.70    0.70
  -3  -7   4    2.40    1.00
  -3  -7   4    1.20    0.90
   2   7  -4  910.61   24.40
   2   7  -4  923.21   24.00
   2   7  -4  943.11   22.40
  -2  -7   4  940.91   23.60
  -2  -7   4  903.31   23.70
  -2  -7   4  918.71   23.40
   1   7  -4  312.77    9.50
   1   7  -4  292.37    8.80
   1   7  -4  291.37    7.50
  -1  -7   4  286.17    8.30
  -1  -7   4  299.07    9.00
  -1  -7   4  297.77    8.70
   0   7  -4   59.59    2.60
   0   7  -4   56.49    3.00
   0   7  -4   56.89    3.00
   0   7  -4   55.29    1.70
   0  -7   4   56.09    2.30
   0  -7   4   62.59    2.80
  -1   7  -4   34.30    2.30
  -1   7  -4   38.00    2.40
  -1   7  -4   38.00    1.80
   1  -7   4   36.30    2.00
   1  -7   4   36.30    1.60
  -2   7  -4  148.29    4.10
  -2   7  -4  142.59    4.70
  -2   7  -4  148.19    5.10
  -2   7  -4  140.09    5.10
  -3   7  -4    7.50    0.60
  -3   7  -4    4.50    1.00
  -3   7  -4    5.00    0.90
  -4   7  -4  257.97    7.50
  -4   7  -4  256.47    6.60
  -4   7  -4  244.98    7.50
  -5   7  -4   15.30    1.60
  -5   7  -4   14.50    1.10
  -6   7  -4   27.00    2.10
  -6   7  -4   23.10    2.00
  -7   7  -4  175.58    6.30
  -7   7  -4  176.68    4.90
  -7   7  -4  157.88    6.00
  -7   7  -4  171.48    5.30
  -7   7  -4  169.88    5.40
  -8   7  -4   33.00    2.80
  -8   7  -4   33.80    2.20
  -8   7  -4   35.00    2.30
  -8   7  -4   34.10    1.80
  -9   7  -4   27.90    2.20
  -9   7  -4   32.30    1.90
  -9   7  -4   28.40    2.90
  -9   7  -4   30.30    2.30
 -10   7  -4   74.49    3.30
 -10   7  -4   72.89    2.90
 -10   7  -4   72.59    3.20
 -10   7  -4   69.99    4.00
 -11   7  -4   75.89    3.10
 -11   7  -4   71.89    3.00
 -11   7  -4   72.59    3.70
 -12   7  -4   27.20    1.50
 -12   7  -4   28.80    1.60
 -12   7  -4   26.90    1.90
 -10  -6   4    4.40    0.80
  -9  -6   4   39.90    2.20
  -8  -6   4    9.40    1.30
   7   6  -4    4.70    0.70
  -7  -6   4    5.90    1.10
  -6  -6   4   24.60    1.90
   5   6  -4  212.68    6.30
   5   6  -4  201.58    6.90
  -5  -6   4  206.18    6.40
  -5  -6   4  211.28    7.50
   4   6  -4  351.06   11.20
   4   6  -4  374.96    9.60
   4   6  -4  373.66   10.30
   4   6  -4  355.66   11.10
  -4  -6   4  343.47   10.40
  -4  -6   4  336.27   10.40
  -4  -6   4  357.46   10.80
   3   6  -4   61.49    3.40
   3   6  -4   61.49    2.30
   3   6  -4   58.49    3.20
   3   6  -4   61.19    2.70
  -3  -6   4   53.89    2.70
  -3  -6   4   56.09    2.90
  -3  -6   4   60.49    3.10
   2   6  -4  126.49    4.10
   2   6  -4  125.69    3.60
   2   6  -4  119.49    4.90
   2   6  -4  126.29    4.70
  -2  -6   4  122.89    4.20
  -2  -6   4  127.09    4.70
  -2  -6   4  127.09    4.50
   1   6  -4    1.50    0.40
   1   6  -4    2.90    0.70
   1   6  -4    2.30    0.80
   1   6  -4    5.50    0.80
  -1  -6   4    2.30    0.70
  -1  -6   4    1.20    0.70
   0   6  -4   64.29    3.00
   0   6  -4   63.19    2.50
   0   6  -4   59.49    2.20
   0   6  -4   63.39    3.00
   0  -6   4   66.09    2.70
   0  -6   4   63.29    2.20
  -1   6  -4   63.19    2.90
  -1   6  -4   65.09    3.00
  -1   6  -4   68.29    2.30
   1  -6   4   64.49    2.60
  -2   6  -4    2.80    0.40
  -2   6  -4    2.50    0.80
  -2   6  -4    2.00    0.70
  -2   6  -4    3.00    0.70
  -3   6  -4  235.48    6.80
  -3   6  -4  234.18    7.00
  -3   6  -4  239.68    5.90
  -3   6  -4  232.48    6.90
  -4   6  -4  495.35   12.90
  -4   6  -4  512.85   12.20
  -4   6  -4  463.75   12.80
  -5   6  -4    8.00    1.20
  -5   6  -4    4.90    0.80
  -6   6  -4  292.47    7.50
  -6   6  -4  298.77   10.90
  -6   6  -4  295.47    8.40
  -6   6  -4  286.97    8.70
  -7   6  -4   75.79    3.70
  -7   6  -4   79.19    3.70
  -7   6  -4   80.99    3.10
  -7   6  -4   80.59    2.70
  -8   6  -4  343.77    9.00
  -8   6  -4  335.67    9.30
  -8   6  -4  329.47    9.30
  -8   6  -4  329.87   10.30
  -9   6  -4   70.89    3.30
  -9   6  -4   67.69    3.90
  -9   6  -4   75.99    3.20
  -9   6  -4   72.69    2.90
 -10   6  -4   27.20    1.80
 -10   6  -4   24.00    2.60
 -10   6  -4   25.50    2.20
 -10   6  -4   23.70    2.00
 -11   6  -4   84.89    3.30
 -11   6  -4   85.59    3.90
 -11   6  -4   84.89    3.30
 -12   6  -4   27.90    1.60
 -12   6  -4   27.40    1.90
 -12   6  -4   27.00    1.50
 -10  -5   4   33.10    1.80
  -9  -5   4   17.00    1.80
  -8  -5   4   68.39    3.10
   7   5  -4  569.14   13.90
  -7  -5   4  580.34   15.00
   6   5  -4  669.13   18.00
  -6  -5   4  669.53   17.30
  -6  -5   4  679.13   18.60
   5   5  -4   99.19    4.10
   5   5  -4   97.29    3.50
  -5  -5   4   99.09    4.50
   4   5  -4   16.90    1.90
   4   5  -4   17.40    1.30
   4   5  -4   20.00    1.60
   4   5  -4   16.90    1.80
  -4  -5   4   15.90    1.50
  -4  -5   4   19.10    1.90
  -4  -5   4   15.90    1.60
   3   5  -4  125.49    5.00
   3   5  -4  128.79    3.80
   3   5  -4  129.09    4.80
   3   5  -4  125.99    4.20
  -3  -5   4  123.69    4.60
  -3  -5   4  124.19    4.30
  -3  -5   4  129.49    4.60
   2   5  -4  304.57    8.20
   2   5  -4  293.77    7.70
   2   5  -4  315.97    9.10
   2   5  -4  302.77    8.80
  -2  -5   4  306.87    8.80
  -2  -5   4  306.77    8.60
  -2  -5   4  305.17    8.30
   1   5  -4  609.44   15.30
   1   5  -4  561.74   13.70
   1   5  -4  532.65   14.60
   1   5  -4  558.04   14.30
  -1  -5   4  595.14   14.30
  -1  -5   4  601.44   14.70
  -1  -5   4  565.94   15.00
   0   5  -4  655.53   17.00
   0   5  -4  651.93   16.20
   0   5  -4  664.83   16.90
   0   5  -4  670.33   16.30
   0  -5   4  644.44   16.50
   0  -5   4  671.93   15.90
  -1   5  -4   17.50    1.40
  -1   5  -4   19.70    1.40
  -1   5  -4   18.40    0.80
  -1   5  -4   16.00    0.80
  -1   5  -4   17.90    1.10
  -1   5  -4   16.10    1.20
  -2   5  -4    2.20    0.60
  -2   5  -4    3.70    0.80
  -2   5  -4    6.50    0.80
  -2   5  -4    2.90    0.60
  -3   5  -4  276.87    7.40
  -3   5  -4  271.57    7.50
   3  -5   4  266.67    7.40
  -4   5  -4  232.18    6.00
  -4   5  -4  225.78    6.50
   4  -5   4  216.88    6.50
  -5   5  -4    8.80    1.00
  -5   5  -4    8.70    1.20
   5  -5   4   10.10    1.30
  -6   5  -4   21.50    1.10
  -6   5  -4   22.70    1.60
  -6   5  -4   22.00    1.90
   6  -5   4   20.40    1.80
  -7   5  -4   83.39    2.80
  -7   5  -4   78.09    3.70
  -7   5  -4   82.69    3.80
   7  -5   4   76.59    3.60
  -8   5  -4    5.20    1.40
  -8   5  -4    3.30    1.10
  -8   5  -4    6.60    1.20
  -8   5  -4    6.00    1.00
  -9   5  -4   20.80    1.70
  -9   5  -4   21.90    2.60
  -9   5  -4   19.90    1.90
  -9   5  -4   24.30    2.10
 -10   5  -4   27.60    2.70
 -10   5  -4   28.10    1.80
 -10   5  -4   28.80    2.10
 -10   5  -4   32.70    2.30
 -11   5  -4  125.49    4.20
 -11   5  -4  130.69    4.30
 -11   5  -4  130.19    4.90
 -12   5  -4   24.80    1.50
 -12   5  -4   22.60    1.40
 -12   5  -4   24.10    1.80
 -11  -4   4   27.00    1.50
 -10  -4   4    2.10    0.90
  -9  -4   4   44.40    2.50
  -8  -4   4   44.30    2.50
   7   4  -4   47.80    1.70
  -7  -4   4   48.50    2.40
   6   4  -4   48.10    2.80
  -6  -4   4   45.00    3.00
   5   4  -4   56.09    2.40
   5   4  -4   57.79    2.80
  -5  -4   4   54.39    2.80
  -5  -4   4   55.99    3.20
   4   4  -4    4.70    0.70
   4   4  -4    4.30    1.10
   4   4  -4    3.00    0.80
   4   4  -4    4.20    1.00
  -4  -4   4    3.30    0.80
  -4  -4   4    4.30    1.10
   3   4  -4   56.29    2.30
   3   4  -4   52.09    2.70
   3   4  -4   53.49    2.00
   3   4  -4   56.09    2.80
  -3  -4   4   57.49    2.70
  -3  -4   4   54.39    2.60
  -3  -4   4   54.19    2.40
   2   4  -4  156.88    4.60
   2   4  -4  150.08    4.10
   2   4  -4  157.58    5.20
   2   4  -4  147.09    4.90
  -2  -4   4  152.88    4.80
  -2  -4   4  156.88    4.50
  -2  -4   4  160.68    5.10
   1   4  -4    7.40    1.00
   1   4  -4    6.70    0.80
   1   4  -4    7.80    0.70
  -1  -4   4    8.40    0.90
  -1  -4   4    8.10    1.00
  -1  -4   4    7.10    0.60
   0   4  -4   41.30    2.00
   0   4  -4   40.80    1.60
   0   4  -4   41.70    2.00
   0   4  -4   40.40    1.50
   0   4  -4   40.40    1.60
   0  -4   4   41.40    1.70
   0  -4   4   44.40    2.00
  -1   4  -4 1859.11   44.30
  -1   4  -4 1880.81   44.20
  -1   4  -4 1848.22   43.80
  -1   4  -4 1799.82   43.80
  -2   4  -4  106.59    3.40
  -2   4  -4  106.79    3.40
  -2   4  -4  110.19    3.30
  -2   4  -4  112.29    3.70
  -3   4  -4  177.68    5.00
  -3   4  -4  176.78    4.60
  -3   4  -4  176.08    4.50
   3  -4   4  174.18    5.10
   3  -4   4  174.48    5.10
  -4   4  -4 1010.50   25.10
  -4   4  -4 1035.50   24.90
   4  -4   4 1037.30   25.30
  -5   4  -4  558.14   14.60
  -5   4  -4  545.25   13.60
  -5   4  -4  582.64   14.50
   5  -4   4  578.64   14.80
  -6   4  -4  264.47    7.00
  -6   4  -4  258.97    7.90
  -6   4  -4  265.07    7.90
   6  -4   4  284.67    8.20
  -7   4  -4   29.20    2.40
  -7   4  -4   34.00    1.70
   7  -4   4   30.60    2.30
  -8   4  -4   18.50    2.20
  -8   4  -4   17.10    1.40
  -8   4  -4   18.50    1.70
  -8   4  -4   15.20    1.60
   8  -4   4   16.10    2.20
  -9   4  -4    0.90    1.00
  -9   4  -4    2.60    1.30
  -9   4  -4    3.70    1.00
  -9   4  -4    2.90    0.90
 -10   4  -4   98.89    3.70
 -10   4  -4  101.99    4.50
 -10   4  -4   99.59    3.80
 -10   4  -4   98.59    3.60
 -10   4  -4   93.09    3.10
 -11   4  -4    6.40    1.20
 -11   4  -4    9.10    1.50
 -11   4  -4    7.90    1.10
 -12   4  -4   35.90    1.70
 -12   4  -4   35.80    1.60
 -12   4  -4   33.10    2.30
 -11  -3   4   50.09    2.20
 -10  -3   4  165.58    5.20
  -9  -3   4   41.90    2.50
  -8  -3   4    6.10    1.10
   7   3  -4   61.39    3.30
   7   3  -4   61.69    2.00
  -7  -3   4   65.19    3.50
  -7  -3   4   63.29    2.80
   6   3  -4  935.31   23.80
  -6  -3   4  929.61   24.20
   5   3  -4   87.69    3.50
   5   3  -4   85.09    3.00
  -5  -3   4   90.19    4.00
  -5  -3   4   86.59    3.60
   4   3  -4    2.40    0.60
   4   3  -4    2.80    0.80
   4   3  -4    2.00    0.70
   4   3  -4    2.00    0.80
  -4  -3   4    2.10    0.90
  -4  -3   4    1.70    0.70
  -4  -3   4    2.10    0.60
   3   3  -4  287.07    7.50
   3   3  -4  290.27    8.40
   3   3  -4  288.47    7.90
   3   3  -4  295.47    8.40
  -3  -3   4  294.77    8.30
  -3  -3   4  286.47    7.90
  -3  -3   4  301.57    8.30
   2   3  -4   88.59    3.20
   2   3  -4   89.19    2.90
   2   3  -4   88.39    3.30
  -2  -3   4   89.19    3.10
  -2  -3   4   91.49    3.30
  -2  -3   4   88.19    2.80
   1   3  -4  109.09    3.30
   1   3  -4  104.99    3.60
   1   3  -4  105.29    3.20
   1   3  -4   96.39    3.10
  -1  -3   4  110.99    3.00
  -1  -3   4  105.39    3.50
  -1  -3   4  108.39    3.30
   0   3  -4  619.74   14.40
   0   3  -4  588.24   14.60
   0   3  -4  578.94   14.30
   0   3  -4  610.44   15.10
   0  -3   4  602.24   14.90
   0  -3   4  587.14   14.60
  -1   3  -4  347.67    9.20
  -1   3  -4  327.57    8.60
  -1   3  -4  352.56    8.80
  -1   3  -4  343.37    8.90
   1  -3   4  356.36    8.90
  -2   3  -4   22.90    1.30
  -2   3  -4   17.40    1.00
   2  -3   4   22.60    1.20
  -3   3  -4 2369.86   54.59
  -3   3  -4 2165.48   54.29
  -3   3  -4 2214.08   54.39
  -3   3  -4 2397.56   54.39
   3  -3   4 2310.07   54.79
   3  -3   4 2385.46   54.69
  -4   3  -4  232.18    6.60
  -4   3  -4  251.67    6.70
   4  -3   4  242.78    7.00
  -5   3  -4  192.98    5.30
  -5   3  -4  214.78    6.20
  -5   3  -4  197.98    6.00
   5  -3   4  206.88    6.30
  -6   3  -4    5.50    1.10
  -6   3  -4    3.80    0.60
  -6   3  -4    3.90    0.90
   6  -3   4    3.40    1.00
  -7   3  -4  405.86   11.90
  -7   3  -4  439.26   11.00
   7  -3   4  422.86   12.00
  -8   3  -4    2.70    1.20
  -8   3  -4    2.30    0.90
  -8   3  -4    3.70    1.10
  -8   3  -4    4.00    0.90
  -9   3  -4  213.98    7.30
  -9   3  -4  222.68    6.50
  -9   3  -4  224.28    6.60
  -9   3  -4  219.88    6.60
 -10   3  -4    1.00    0.70
 -10   3  -4    0.70    0.60
 -10   3  -4    1.50    1.20
 -10   3  -4    1.10    0.80
 -10   3  -4    0.50    1.00
 -11   3  -4   58.59    2.50
 -11   3  -4   57.99    2.50
 -11   3  -4   55.59    3.00
 -12   3  -4    5.00    0.80
 -12   3  -4    5.30    0.70
 -12  -2   4    1.90    0.60
 -11  -2   4   72.19    2.80
 -10  -2   4    0.90    0.90
  -9  -2   4   58.29    2.80
  -8  -2   4    7.90    1.20
   7   2  -4    1.20    0.90
  -7  -2   4    2.10    1.00
   6   2  -4   38.00    2.30
  -6  -2   4   37.50    2.50
   5   2  -4   50.39    2.40
   5   2  -4   47.70    2.00
  -5  -2   4   50.19    2.70
  -5  -2   4   48.60    2.50
   4   2  -4   54.29    2.30
   4   2  -4   51.49    2.50
   4   2  -4   51.89    2.70
  -4  -2   4   54.19    2.60
  -4  -2   4   52.69    2.30
  -4  -2   4   55.39    2.70
   3   2  -4    3.30    0.60
   3   2  -4    3.30    0.70
   3   2  -4    9.10    1.10
  -3  -2   4    3.20    0.80
  -3  -2   4    3.00    0.80
  -3  -2   4    4.00    0.70
   2   2  -4  279.27    7.20
   2   2  -4  276.27    7.40
   2   2  -4  270.27    7.60
  -2  -2   4  270.37    7.00
  -2  -2   4  269.27    7.30
  -2  -2   4  269.47    7.50
   1   2  -4    3.10    0.50
   1   2  -4    3.50    0.40
   1   2  -4    3.80    0.70
   1   2  -4    3.80    0.50
  -1  -2   4    3.80    0.70
  -1  -2   4    3.80    0.40
  -1  -2   4    5.30    0.60
   0   2  -4 2000.90   48.80
   0   2  -4 2091.89   48.70
   0   2  -4 2140.79   49.20
   0   2  -4 2009.70   48.90
   0  -2   4 1931.81   48.50
   0  -2   4 2210.38   49.00
  -1   2  -4  511.75   12.70
  -1   2  -4  515.45   12.20
  -1   2  -4  523.25   12.20
  -1   2  -4  488.95   12.40
   1  -2   4  528.55   12.70
   1  -2   4  520.55   12.90
  -2   2  -4  199.08    5.00
  -2   2  -4  189.08    5.00
  -2   2  -4  191.98    5.00
  -2   2  -4  190.08    5.50
   2  -2   4  195.58    5.00
   2  -2   4  197.88    5.40
  -3   2  -4   29.20    1.40
   3  -2   4   28.30    1.50
   3  -2   4   28.80    1.40
  -4   2  -4 1037.30   25.60
  -4   2  -4 1065.29   26.20
  -4   2  -4 1134.19   26.60
   4  -2   4 1093.79   26.60
  -5   2  -4  128.39    4.50
  -5   2  -4  129.49    4.20
  -5   2  -4  122.39    3.60
   5  -2   4  127.19    4.50
  -6   2  -4  123.39    3.80
  -6   2  -4  122.39    4.70
   6  -2   4  119.99    4.60
  -7   2  -4  267.87    7.10
  -7   2  -4  247.28    7.90
   7  -2   4  243.68    8.00
  -8   2  -4    5.50    1.10
  -8   2  -4    4.80    1.30
  -8   2  -4    6.40    1.00
  -8   2  -4    4.90    1.10
  -9   2  -4   25.50    1.50
  -9   2  -4   26.40    2.00
  -9   2  -4   26.90    2.50
  -9   2  -4   28.10    1.90
  -9   2  -4   28.20    1.90
 -10   2  -4   73.29    3.00
 -10   2  -4   66.89    2.40
 -10   2  -4   71.39    3.00
 -10   2  -4   69.49    3.50
 -11   2  -4    0.60    0.80
 -11   2  -4    0.20    0.70
 -12  -1   4    6.40    0.90
 -11  -1   4   12.40    1.30
 -10  -1   4  502.45   13.20
  -9  -1   4    9.60    1.30
   8   1  -4   41.30    2.80
  -8  -1   4   40.50    2.80
  -8  -1   4   39.80    2.30
   7   1  -4   72.99    3.50
  -7  -1   4   74.19    3.60
   6   1  -4  232.58    7.10
  -6  -1   4  225.38    7.00
  -6  -1   4  229.18    7.30
   5   1  -4 2467.55   58.19
  -5  -1   4 2455.95   58.69
  -5  -1   4 2383.86   58.29
   4   1  -4  161.48    4.80
   4   1  -4  157.88    5.10
   4   1  -4  161.48    5.40
  -4  -1   4  161.38    5.20
  -4  -1   4  165.08    5.30
  -4  -1   4  163.08    4.90
   3   1  -4   14.50    1.00
   3   1  -4   11.60    1.10
   3   1  -4   13.60    1.20
  -3  -1   4   12.80    1.20
  -3  -1   4   12.60    0.90
  -3  -1   4   16.00    1.30
   2   1  -4 4413.16   99.29
  -2  -1   4 4097.69   95.99
  -2  -1   4 3694.63   96.79
  -2  -1   4 3721.63   94.89
  -2  -1   4 4280.57   97.29
   1   1  -4  898.11   21.40
   1   1  -4  820.12   20.70
   1   1  -4  837.32   20.80
   1   1  -4  900.51   20.90
  -1  -1   4  848.72   20.80
  -1  -1   4  865.51   21.20
  -1  -1   4  905.41   21.20
   0   1  -4    6.00    0.40
   0   1  -4    3.80    0.50
   0   1  -4    5.60    0.50
   0  -1   4    4.20    0.70
   0  -1   4    4.90    0.60
   0  -1   4    4.00    0.40
  -1   1  -4 1357.26   31.30
  -1   1  -4 1338.37   31.60
  -1   1  -4 1324.17   31.00
  -1   1  -4 1385.06   31.50
   1  -1   4 1158.28   31.60
   1  -1   4 1368.06   31.30
  -2   1  -4  565.04   14.10
  -2   1  -4  538.75   13.70
  -2   1  -4  551.24   13.40
  -2   1  -4  592.04   13.80
   2  -1   4  541.55   13.40
   2  -1   4  547.55   13.30
   2  -1   4  574.44   14.00
  -3   1  -4 1170.18   27.70
  -3   1  -4 1078.09   27.20
   3  -1   4 1169.98   27.70
   3  -1   4 1140.19   27.50
  -4   1  -4   64.89    2.10
  -4   1  -4   65.19    2.80
   4  -1   4   69.79    2.80
  -5   1  -4   29.70    1.40
  -5   1  -4   29.90    2.00
   5  -1   4   33.30    2.00
  -6   1  -4  101.89    4.30
  -6   1  -4  106.69    3.40
   6  -1   4  105.69    4.20
  -7   1  -4  234.58    6.40
  -7   1  -4  211.58    7.10
   7  -1   4  218.68    7.30
  -8   1  -4    6.30    1.10
  -8   1  -4    5.00    1.10
  -8   1  -4    7.50    1.10
  -8   1  -4    5.10    0.80
  -8   1  -4    4.70    1.40
  -9   1  -4   73.69    3.70
  -9   1  -4   65.99    2.90
  -9   1  -4   67.39    2.50
  -9   1  -4   68.29    2.90
  -9   1  -4   73.69    3.00
 -10   1  -4   13.90    1.40
 -10   1  -4   13.60    1.20
 -10   1  -4   15.70    2.00
 -10   1  -4   13.50    1.40
 -11   1  -4   28.00    1.60
 -12   0   4   37.70    1.90
 -11   0   4    0.40    0.80
 -10   0   4  107.79    4.00
  -9   0   4  225.48    6.70
   8   0  -4   15.40    2.00
  -8   0   4   14.40    2.00
  -8   0   4   13.40    1.40
   7   0  -4   15.80    1.80
  -7   0   4   13.70    1.70
   6   0  -4   40.20    2.30
  -6   0   4   40.90    2.20
  -6   0   4   41.80    2.40
   5   0  -4  208.98    6.20
  -5   0   4  214.68    6.60
  -5   0   4  215.78    6.50
   4   0  -4 2194.28   51.49
   4   0  -4 2169.78   52.29
  -4   0   4 2121.89   51.89
  -4   0   4 2179.68   51.59
  -4   0   4 2169.28   51.89
   3   0  -4   60.59    2.40
   3   0  -4   59.79    2.10
  -3   0   4   55.89    2.10
  -3   0   4   56.99    2.10
  -3   0   4   55.29    2.40
  -3   0   4   56.09    2.30
  -3   0   4   59.49    2.30
   2   0  -4  425.06   10.90
   2   0  -4  427.26   10.60
  -2   0   4  429.46   10.60
  -2   0   4  442.76   11.10
  -2   0   4  422.66   10.80
  -2   0   4  428.46   10.90
  -2   0   4  407.66   10.60
   1   0  -4   45.50    1.60
   1   0  -4   47.40    1.70
   1   0  -4   43.60    1.60
  -1   0   4   46.90    1.50
  -1   0   4   46.30    1.90
  -1   0   4   52.89    2.00
  -1   0   4   44.20    1.50
   0   0  -4 1023.60   25.30
   0   0  -4 1086.09   25.40
   0   0  -4 1060.89   25.40
   0   0   4 1100.59   25.80
   0   0   4 1052.19   25.40
  -1   0  -4 1772.72   43.50
  -1   0  -4 1819.72   43.40
  -1   0  -4 1846.02   43.40
   1   0   4 1813.12   43.10
   1   0   4 1831.22   43.20
   1   0   4 1911.51   43.70
  -2   0  -4   73.89    2.20
  -2   0  -4   80.69    2.80
   2   0   4   81.29    2.70
   2   0   4   77.09    2.70
  -3   0  -4   75.39    2.50
  -3   0  -4   79.79    3.00
  -3   0  -4   76.09    2.30
   3   0   4   83.19    2.90
   3   0   4   78.79    2.80
  -4   0  -4  254.47    7.10
  -4   0  -4  268.27    7.80
  -4   0  -4  263.07    6.80
   4   0   4  257.37    7.50
  -5   0  -4  772.02   19.40
  -5   0  -4  817.02   20.70
   5   0   4  802.72   20.40
  -6   0  -4    6.00    1.30
  -6   0  -4    7.30    1.00
   6   0   4   11.50    1.60
  -7   0  -4    0.20    0.60
  -7   0  -4    0.60    0.80
  -7   0  -4   -0.30    0.80
  -7   0  -4    0.30    0.80
   7   0   4    0.80    0.90
  -8   0  -4    9.40    1.20
  -8   0  -4    8.60    1.60
  -8   0  -4    6.70    0.90
  -8   0  -4    8.40    1.20
  -8   0  -4    6.20    1.10
  -9   0  -4   38.20    2.20
  -9   0  -4   44.00    2.90
  -9   0  -4   42.60    1.80
 -10   0  -4    2.40    0.80
 -11   0  -4    6.80    1.00
 -13   1   4    0.70    0.50
 -12   1   4   14.60    1.40
 -11   1   4  288.17    8.10
 -10   1   4  122.39    4.40
   9  -1  -4   17.70    1.40
  -9   1   4   19.90    1.80
   8  -1  -4    0.30    0.90
  -8   1   4    0.20    0.90
   7  -1  -4   61.49    3.00
  -7   1   4   63.19    3.20
   6  -1  -4  285.17    8.20
  -6   1   4  275.57    8.30
  -6   1   4  303.27    8.60
   5  -1  -4   63.99    2.60
  -5   1   4   66.69    2.80
  -5   1   4   69.39    2.90
   4  -1  -4    1.80    0.60
   4  -1  -4    1.60    0.50
  -4   1   4    3.50    0.80
  -4   1   4    4.70    0.80
  -4   1   4    1.70    0.50
  -4   1   4    2.90    0.60
  -4   1   4    1.60    0.50
   3  -1  -4  490.55   12.70
   3  -1  -4  504.35   12.20
  -3   1   4  456.15   12.40
  -3   1   4  504.55   12.60
  -3   1   4  489.75   12.40
  -3   1   4  496.75   12.30
  -3   1   4  505.55   12.80
   2  -1  -4 1104.49   25.30
   2  -1  -4 1008.00   24.80
  -2   1   4  982.60   24.90
  -2   1   4 1038.50   24.80
  -2   1   4 1067.89   25.30
  -2   1   4 1077.39   25.00
  -2   1   4 1002.10   25.30
   1  -1  -4   21.30    1.00
   1  -1  -4   21.80    1.20
  -1   1   4   22.60    1.00
  -1   1   4   26.90    1.40
  -1   1   4   20.30    0.70
  -1   1   4   21.90    1.20
   0  -1  -4 1185.28   28.40
   0  -1  -4 1196.88   28.60
   0   1   4 1127.19   28.30
   0   1   4 1210.58   28.30
   0   1   4 1239.78   28.90
  -1  -1  -4  482.85   12.30
  -1  -1  -4  519.55   12.50
   1   1   4  468.35   11.80
   1   1   4  527.05   12.70
   1   1   4  466.95   12.20
  -2  -1  -4  223.28    5.90
  -2  -1  -4  239.98    6.80
   2   1   4  227.78    6.40
   2   1   4  238.98    6.60
  -3  -1  -4  934.41   23.10
  -3  -1  -4  956.10   22.90
  -3  -1  -4  966.00   23.90
   3   1   4  978.70   23.50
   3   1   4  936.11   23.50
  -4  -1  -4   27.40    1.90
  -4  -1  -4   27.70    1.40
   4   1   4   28.50    1.80
  -5  -1  -4   56.99    2.20
  -5  -1  -4   58.49    3.10
   5   1   4   58.49    2.80
  -6  -1  -4   60.29    2.50
  -6  -1  -4   61.29    4.70
  -6  -1  -4   64.69    2.90
   6   1   4   61.99    3.10
  -7  -1  -4  144.69    4.60
  -7  -1  -4  143.49    4.10
  -7  -1  -4  149.69    5.40
  -7  -1  -4  143.59    4.60
   7   1   4  138.19    5.40
  -8  -1  -4   42.80    2.20
  -8  -1  -4   42.30    2.80
  -8  -1  -4   42.60    1.80
  -9  -1  -4   42.90    2.30
  -9  -1  -4   42.90    1.80
 -10  -1  -4    0.40    0.70
 -13   2   4    4.60    0.70
 -12   2   4    5.70    1.00
  11  -2  -4   22.40    1.70
 -11   2   4   24.50    2.00
  10  -2  -4   33.00    1.90
 -10   2   4   33.60    2.20
  -9   2   4    8.60    1.30
  -9   2   4    5.40    1.20
   8  -2  -4   47.40    2.80
  -8   2   4   45.40    2.90
   7  -2  -4   51.49    2.60
  -7   2   4   48.20    2.80
   6  -2  -4   41.80    2.10
  -6   2   4   46.70    2.40
  -6   2   4   45.50    2.50
   5  -2  -4  481.15   12.60
  -5   2   4  507.05   13.00
  -5   2   4  492.15   13.10
  -5   2   4  494.05   13.00
   4  -2  -4  146.19    4.90
   4  -2  -4  151.28    4.30
  -4   2   4  145.09    4.60
  -4   2   4  148.99    4.50
  -4   2   4  150.58    4.50
  -4   2   4  154.78    4.70
  -4   2   4  154.88    4.90
   3  -2  -4    7.60    0.70
  -3   2   4    7.40    1.00
  -3   2   4    6.80    0.70
  -3   2   4    7.00    0.70
  -3   2   4    7.50    0.80
  -3   2   4    6.70    0.90
   2  -2  -4   45.40    1.90
   2  -2  -4   44.50    1.50
  -2   2   4   47.40    1.90
  -2   2   4   44.60    2.00
  -2   2   4   43.30    1.70
  -2   2   4   43.10    1.50
   1  -2  -4 1168.68   27.60
   1  -2  -4 1153.78   27.10
  -1   2   4 1071.19   26.80
  -1   2   4 1126.09   27.30
  -1   2   4 1142.59   27.30
  -1   2   4 1189.08   27.90
   0  -2  -4 2670.33   57.79
   0  -2  -4 2694.13   58.39
   0  -2  -4 2079.69   57.79
   0  -2  -4 2529.05   57.09
   0   2   4 2678.13   57.79
   0   2   4 2199.88   57.39
   0   2   4 2252.37   58.09
  -1  -2  -4    4.50    0.60
  -1  -2  -4    4.40    0.50
  -1  -2  -4    5.90    0.80
   1   2   4    4.10    0.60
   1   2   4    4.30    0.40
   1   2   4    3.50    0.60
   1   2   4    3.40    0.70
  -2  -2  -4    7.80    1.10
  -2  -2  -4    6.90    0.80
   2   2   4    7.70    0.90
   2   2   4    7.40    1.00
  -3  -2  -4    5.80    1.10
  -3  -2  -4    4.60    0.60
   3   2   4    4.00    0.80
   3   2   4    4.30    0.80
  -4  -2  -4  480.65   12.00
  -4  -2  -4  467.85   13.30
   4   2   4  480.25   12.70
  -5  -2  -4    2.30    0.70
   5   2   4    2.70    0.90
  -6  -2  -4  127.09    4.60
  -6  -2  -4  125.59    4.10
   6   2   4  122.59    4.70
  -7  -2  -4  174.28    5.80
  -7  -2  -4  160.28    4.60
  -7  -2  -4  165.98    5.50
  -8  -2  -4    1.90    0.60
  -8  -2  -4    1.60    0.90
  -9  -2  -4    4.30    0.90
  -9  -2  -4    4.50    0.70
 -13   3   4   20.20    1.30
  12  -3  -4    1.00    0.70
 -12   3   4    1.60    0.90
  11  -3  -4   53.69    2.50
 -11   3   4   55.09    2.70
  10  -3  -4    2.40    0.90
 -10   3   4    5.10    1.10
  -9   3   4   16.60    1.60
  -9   3   4   18.60    1.80
   8  -3  -4    3.90    1.10
  -8   3   4    5.30    1.30
   7  -3  -4  121.39    4.30
  -7   3   4  122.29    4.70
  -7   3   4  116.09    4.50
   6  -3  -4 1005.30   24.70
  -6   3   4 1028.70   25.30
  -6   3   4 1015.60   25.30
  -6   3   4  972.70   24.20
   5  -3  -4  205.78    5.80
  -5   3   4  211.58    6.20
  -5   3   4  206.68    6.30
  -5   3   4  218.78    6.50
  -5   3   4  207.98    5.50
   4  -3  -4    5.70    0.60
  -4   3   4    3.60    0.60
  -4   3   4    3.90    0.70
  -4   3   4    3.80    0.70
  -4   3   4    3.20    0.80
   3  -3  -4  669.53   17.10
   3  -3  -4  652.23   16.20
  -3   3   4  664.53   16.70
  -3   3   4  675.23   16.40
  -3   3   4  690.33   16.90
  -3   3   4  685.53   17.10
  -3   3   4  666.03   16.50
   2  -3  -4  240.28    6.10
   2  -3  -4  241.78    6.90
  -2   3   4  242.38    7.00
  -2   3   4  239.68    6.50
  -2   3   4  246.98    6.60
  -2   3   4  241.48    6.20
  -2   3   4  249.68    6.70
   1  -3  -4   62.09    2.00
   1  -3  -4   64.49    2.40
  -1   3   4   67.69    2.70
  -1   3   4   63.19    1.80
  -1   3   4   64.89    2.20
  -1   3   4   62.09    2.30
   0  -3  -4   87.29    2.50
   0  -3  -4   96.29    3.20
   0   3   4   94.79    2.80
   0   3   4   96.29    3.50
   0   3   4   91.49    3.10
  -1  -3  -4  169.48    4.60
  -1  -3  -4  167.08    5.40
   1   3   4  168.38    4.80
   1   3   4  164.98    6.20
   1   3   4  180.38    5.50
   1   3   4  173.08    4.60
  -2  -3  -4   11.30    0.90
  -2  -3  -4   12.60    1.30
   2   3   4   12.20    1.00
   2   3   4   13.90    1.30
  -3  -3  -4  171.48    6.00
  -3  -3  -4  177.28    5.00
   3   3   4  178.38    5.40
   3   3   4  178.38    5.70
  -4  -3  -4  281.07    7.60
   4   3   4  283.87    8.20
   5   3   4    1.00    0.80
  -6  -3  -4  212.58    6.70
  -6  -3  -4  209.98    5.50
   6   3   4  205.48    6.90
  -7  -3  -4   53.09    3.00
  -7  -3  -4   53.69    2.00
  -8  -3  -4   24.40    1.20
  -8  -3  -4   21.60    1.70
  -9  -3  -4   29.20    2.60
  13  -4  -4   24.30    1.30
 -13   4   4   28.20    1.50
  12  -4  -4   68.39    2.70
 -12   4   4   72.59    2.90
  11  -4  -4   52.09    2.50
 -11   4   4   48.40    2.60
  10  -4  -4   23.50    1.80
 -10   4   4   25.40    2.00
  -9   4   4  265.47    7.60
  -9   4   4  258.97    7.60
  -8   4   4    8.20    1.50
   7  -4  -4   49.99    2.40
  -7   4   4   49.30    2.00
  -7   4   4   47.00    2.70
  -7   4   4   50.39    2.90
   6  -4  -4  162.88    4.90
  -6   4   4  170.78    4.70
  -6   4   4  161.08    5.50
  -6   4   4  165.58    5.50
  -6   4   4  166.38    5.60
   5  -4  -4   17.30    1.10
  -5   4   4   17.90    1.50
  -5   4   4   16.70    1.40
  -5   4   4   26.40    1.80
  -5   4   4   24.00    1.10
   4  -4  -4  257.37    6.80
  -4   4   4  267.87    7.10
  -4   4   4  263.37    7.40
  -4   4   4  260.37    6.70
  -4   4   4  263.77    7.40
  -4   4   4  266.47    7.70
   3  -4  -4   46.50    1.60
  -3   4   4   48.50    2.10
  -3   4   4   49.20    1.80
  -3   4   4   47.60    2.30
  -3   4   4   49.50    2.20
   2  -4  -4  630.94   16.60
   2  -4  -4  635.14   16.50
   2  -4  -4  639.24   15.60
  -2   4   4  661.83   15.80
  -2   4   4  694.33   16.40
  -2   4   4  639.34   16.10
  -2   4   4  702.33   16.90
  -2   4   4  618.94   16.20
   1  -4  -4  279.17    7.70
   1  -4  -4  267.77    7.10
   1  -4  -4  271.67    7.90
  -1   4   4  283.47    8.10
  -1   4   4  272.47    7.00
  -1   4   4  288.57    7.40
   0  -4  -4  394.46    9.70
   0  -4  -4  405.16   10.80
   0  -4  -4  382.16   10.40
   0   4   4  388.56   10.30
   0   4   4  387.96    9.80
   0   4   4  351.26   10.70
   0   4   4  409.06    9.90
  -1  -4  -4  109.39    4.10
   1   4   4   86.89    3.20
   1   4   4  113.39    3.20
   1   4   4  121.39    4.20
   2   4   4    9.20    1.20
   2   4   4   11.10    1.10
   3   4   4   23.10    1.90
   3   4   4   22.40    1.50
   4   4   4   14.10    1.50
  -5  -4  -4  384.96   10.50
   5   4   4  348.57   10.40
  -6  -4  -4   65.59    2.20
  -6  -4  -4   64.79    3.10
  -7  -4  -4   92.49    2.80
  13  -5  -4   35.50    1.60
 -13   5   4   36.20    1.70
  12  -5  -4   90.09    3.20
 -12   5   4   92.89    3.40
  11  -5  -4  255.87    7.30
 -11   5   4  259.97    7.50
  10  -5  -4  275.67    7.60
 -10   5   4  264.77    7.80
  -9   5   4   79.49    3.30
  -9   5   4   82.69    3.40
  -8   5   4    0.70    0.90
  -8   5   4   -0.10    0.70
  -8   5   4    0.40    0.80
  -7   5   4  876.41   23.00
  -7   5   4  899.61   22.90
  -6   5   4   12.00    0.90
  -6   5   4   12.80    1.60
  -6   5   4   12.60    1.40
  -6   5   4   11.70    1.40
  -5   5   4 1083.99   27.30
  -5   5   4 1113.49   26.40
  -5   5   4 1097.09   27.60
  -5   5   4 1109.59   27.10
  -4   5   4  138.79    3.80
  -4   5   4  135.09    4.50
  -4   5   4  142.19    4.30
  -4   5   4  140.09    4.80
   3  -5  -4  278.47    8.10
  -3   5   4  287.27    8.00
  -3   5   4  279.37    8.20
  -3   5   4  287.97    7.40
  -3   5   4  276.97    7.10
  -3   5   4  278.27    7.90
   2  -5  -4  289.37    8.40
  -2   5   4  295.57    7.70
  -2   5   4  303.17    8.20
  -2   5   4  313.27    8.90
  -2   5   4  301.27    8.30
   1  -5  -4  160.78    5.30
  -1   5   4  173.38    5.00
  -1   5   4  169.18    5.60
  -1   5   4  168.08    5.20
  -1   5   4  162.98    4.60
   0  -5  -4  451.95   11.60
   0  -5  -4  455.15   12.40
   0   5   4  497.45   13.00
   0   5   4  442.76   12.30
   0   5   4  469.45   11.80
   1   5   4  268.07    8.30
   2   5   4   29.60    2.10
   3   5   4   73.79    3.60
  -4  -5  -4  128.49    4.50
  -5  -5  -4    6.00    0.70
  -6  -5  -4 1139.59   27.00
  13  -6  -4    1.50    0.70
 -13   6   4    0.80    0.60
  12  -6  -4  107.89    3.60
 -12   6   4  106.89    3.70
  11  -6  -4   21.60    1.90
 -11   6   4   18.10    1.90
  10  -6  -4   12.10    1.40
 -10   6   4   10.80    1.40
  -9   6   4  341.77    9.30
  -9   6   4  326.37    9.20
  -8   6   4   39.90    2.10
  -8   6   4   43.80    2.30
  -8   6   4   38.30    2.80
  -8   6   4   40.70    2.20
  -8   6   4   37.70    1.90
  -7   6   4  464.45   12.90
  -7   6   4  460.45   11.70
  -7   6   4  469.35   12.50
  -7   6   4  443.46   13.10
  -6   6   4  246.48    7.90
  -6   6   4  255.57    7.50
  -6   6   4  236.98    7.60
  -6   6   4  249.68    6.60
  -5   6   4  127.79    4.80
  -5   6   4  119.39    4.40
  -5   6   4  126.49    3.70
  -5   6   4  128.09    4.30
  -4   6   4    4.30    1.00
  -4   6   4    6.90    1.10
  -4   6   4    4.00    0.80
  -4   6   4    4.90    0.60
  -4   6   4    7.70    0.90
   3  -6  -4  329.27    9.70
  -3   6   4  370.96   10.20
  -3   6   4  344.87    9.60
  -3   6   4  348.27    8.70
  -3   6   4  339.57    9.00
  -3   6   4  332.17    9.50
   2  -6  -4  692.93   18.50
  -2   6   4  731.83   18.20
  -2   6   4  702.13   17.60
  -2   6   4  756.32   19.10
  -2   6   4  714.73   17.30
  -2   6   4  702.83   18.20
   1  -6  -4   91.29    3.00
   1  -6  -4   91.29    3.70
  -1   6   4  100.59    3.50
  -1   6   4   91.59    3.50
  -1   6   4   96.09    4.10
  -1   6   4   90.79    2.80
   0   6   4  458.25   12.00
   0   6   4  467.45   13.20
   1   6   4   15.70    1.80
   2   6   4   10.20    1.60
   3   6   4   33.60    3.00
  -4  -6  -4  532.65   14.30
   4   6   4  513.05   13.10
  -5  -6  -4   50.59    4.10
  13  -7  -4   -0.10    0.60
 -13   7   4    0.30    0.60
  12  -7  -4   48.60    2.20
 -12   7   4   46.00    2.30
  11  -7  -4   65.69    2.80
 -11   7   4   61.89    2.90
  10  -7  -4    5.30    1.10
 -10   7   4    6.20    1.20
   9  -7  -4   25.90    1.80
  -9   7   4   24.70    1.70
  -9   7   4   28.10    2.00
  -9   7   4   28.00    1.90
   8  -7  -4    3.30    0.90
  -8   7   4    4.00    0.90
  -8   7   4    3.70    1.20
  -8   7   4    4.80    0.90
  -8   7   4    3.90    1.00
  -7   7   4  165.78    4.90
  -7   7   4  163.18    5.40
  -7   7   4  164.38    5.90
  -7   7   4  177.58    5.60
  -6   7   4   24.40    1.40
  -6   7   4   23.40    2.20
  -6   7   4   25.40    1.90
  -6   7   4   24.00    2.00
  -5   7   4  498.25   12.30
  -5   7   4  498.35   13.80
  -5   7   4  487.65   13.50
  -5   7   4  486.75   13.00
   4  -7  -4   89.39    3.90
  -4   7   4   92.59    3.90
  -4   7   4   92.49    3.30
  -4   7   4   88.89    3.60
  -4   7   4   92.19    2.90
   3  -7  -4  102.59    4.20
  -3   7   4  101.89    3.50
  -3   7   4  104.99    4.40
  -3   7   4  102.89    4.00
  -3   7   4  106.79    4.00
  -3   7   4  105.39    3.10
   2  -7  -4    9.20    1.30
  -2   7   4    9.80    1.00
  -2   7   4   11.60    1.60
  -2   7   4   10.10    1.30
  -2   7   4   10.30    1.30
  -2   7   4    9.40    0.80
  -1   7   4  206.68    6.30
  -1   7   4  223.78    7.50
  -1   7   4  200.98    5.60
   0   7   4    0.30    0.50
   0   7   4    0.50    0.80
   1   7   4   24.90    2.40
  -2  -7  -4   97.09    3.70
  -3  -7  -4  204.38    6.50
   3   7   4  180.68    5.40
  -4  -7  -4  928.91   23.40
   4   7   4  887.71   22.10
  13  -8  -4    6.10    0.80
 -13   8   4    5.30    0.80
  12  -8  -4   21.00    1.60
 -12   8   4   20.30    1.60
  11  -8  -4    9.00    1.20
 -11   8   4    9.60    1.30
  10  -8  -4   67.79    2.90
 -10   8   4   67.29    3.10
   9  -8  -4    4.10    1.00
  -9   8   4    3.80    0.90
  -9   8   4    2.80    0.90
  -9   8   4    4.40    1.10
   8  -8  -4    3.40    0.90
  -8   8   4    4.70    1.10
  -8   8   4    4.50    1.00
  -8   8   4    5.40    1.30
  -8   8   4    3.60    0.80
   7  -8  -4    4.30    0.80
  -7   8   4    4.70    1.30
  -7   8   4    4.90    1.20
  -7   8   4    4.50    0.90
  -7   8   4    5.60    1.10
  -7   8   4    4.70    0.80
  -6   8   4    2.70    0.90
  -6   8   4    1.70    0.90
  -6   8   4    3.70    0.70
  -6   8   4    2.30    0.80
  -6   8   4    2.70    1.00
  -5   8   4   94.09    4.00
  -5   8   4  102.19    3.20
  -5   8   4   99.59    4.40
  -5   8   4   93.69    3.70
   4  -8  -4  124.29    5.00
  -4   8   4  130.89    4.40
  -4   8   4  131.29    4.90
  -4   8   4  124.49    5.00
  -4   8   4  134.19    3.90
   3  -8  -4 1368.26   35.80
  -3   8   4 1445.76   36.40
  -3   8   4 1410.06   34.80
  -3   8   4 1491.85   35.70
  -3   8   4 1442.96   34.20
   2  -8  -4  131.19    5.50
   2  -8  -4  145.89    4.90
  -2   8   4  146.89    6.70
  -2   8   4  145.89    5.10
  -2   8   4  148.99    4.30
  -2   8   4  157.28    6.10
  -1   8   4   23.50    1.80
  -1   8   4   24.30    1.30
  -1   8   4   24.10    2.40
   0   8   4   94.59    6.70
  -1  -8  -4  247.48    7.60
  -2  -8  -4   63.89    3.20
   2   8   4   43.10    2.10
  -3  -8  -4  156.58    5.70
   3   8   4  138.89    4.40
   4   8   4    3.60    0.80
  13  -9  -4    0.30    0.60
 -13   9   4    0.30    0.70
  12  -9  -4    2.10    0.80
 -12   9   4    1.60    0.80
  11  -9  -4  107.69    3.70
 -11   9   4  108.09    3.90
  10  -9  -4   12.30    1.40
 -10   9   4   12.00    1.50
 -10   9   4   11.20    1.40
   9  -9  -4    6.20    1.10
  -9   9   4    6.20    1.30
  -9   9   4    5.90    1.50
  -9   9   4    7.50    1.20
  -9   9   4    5.80    1.00
   8  -9  -4  294.17    8.20
  -8   9   4  308.37    8.30
  -8   9   4  304.87    9.40
  -8   9   4  296.77    8.40
  -8   9   4  310.37    8.90
  -7   9   4   24.90    2.40
  -7   9   4   26.50    1.60
  -7   9   4   22.50    2.40
  -7   9   4   23.10    2.00
  -7   9   4   22.80    1.70
  -6   9   4  224.38    6.80
  -6   9   4  211.18    7.10
  -6   9   4  228.28    6.30
  -6   9   4  225.78    7.30
  -5   9   4  114.39    4.90
  -5   9   4  116.49    4.50
  -5   9   4  121.49    4.20
  -5   9   4  123.49    4.80
  -5   9   4  127.29    3.90
   4  -9  -4    9.60    1.60
  -4   9   4   11.60    1.70
  -4   9   4    9.50    1.30
  -4   9   4    8.80    1.00
  -4   9   4    9.70    1.20
  -3   9   4 1763.12   43.00
  -3   9   4 1829.82   42.30
  -3   9   4 1734.93   42.50
  -3   9   4 1823.22   43.50
  -3   9   4 1715.73   44.50
   2  -9  -4  257.27    8.80
  -2   9   4  274.97    7.30
  -2   9   4  275.67    8.20
   1  -9  -4   12.60    1.70
  -1   9   4    9.90    1.10
   0  -9  -4  144.19    5.10
   0   9   4  134.19    4.30
  -1  -9  -4    9.60    1.60
   1   9   4    8.30    1.10
  -2  -9  -4   10.70    1.70
   2   9   4    8.40    1.10
   3   9   4   83.49    3.00
   4   9   4    0.50    0.70
   5   9   4  145.89    4.30
  12 -10  -4   27.20    1.60
 -12  10   4   30.00    1.60
  11 -10  -4   67.19    2.70
 -11  10   4   66.99    2.80
  10 -10  -4  134.69    4.20
 -10  10   4  125.49    4.40
 -10  10   4  120.79    5.00
 -10  10   4  122.89    4.40
   9 -10  -4    0.80    0.80
  -9  10   4    2.70    1.40
  -9  10   4    2.00    0.70
  -9  10   4    3.40    1.10
  -9  10   4    0.80    0.80
  -8  10   4  188.58    5.80
  -8  10   4  200.68    7.00
  -8  10   4  188.68    5.90
  -8  10   4  203.98    6.40
  -7  10   4    8.50    1.80
  -7  10   4    9.30    1.50
  -7  10   4   10.00    1.20
  -7  10   4   12.80    1.40
  -6  10   4   36.70    2.80
  -6  10   4   39.80    2.00
  -6  10   4   35.90    2.00
  -6  10   4   39.90    2.40
  -5  10   4   48.40    2.10
  -5  10   4   43.80    3.00
  -5  10   4   43.70    2.70
  -5  10   4   49.10    2.50
  -4  10   4  155.88    5.90
  -4  10   4  155.38    5.10
  -4  10   4  166.78    4.80
   3 -10  -4  394.06   12.50
  -3  10   4  428.26   10.70
  -3  10   4  404.66   10.90
   2 -10  -4   21.80    2.60
  -2  10   4   28.90    1.70
  -2  10   4   27.50    1.60
  -2  10   4   26.20    1.70
   1 -10  -4   60.19    3.10
  -1  10   4   57.49    2.50
   0 -10  -4   22.40    2.10
   0  10   4   16.70    1.50
  -1 -10  -4    3.00    1.30
   1  10   4    1.30    0.80
  -2 -10  -4   16.90    2.10
   2  10   4   17.20    1.50
   3  10   4   38.60    2.00
   4  10   4   45.80    2.10
   5  10   4   68.59    2.40
  12 -11  -4    0.20    0.60
 -12  11   4    2.00    0.60
  11 -11  -4   70.39    2.60
 -11  11   4   65.69    2.70
  10 -11  -4  327.37    8.40
 -10  11   4  306.07    8.70
 -10  11   4  316.67    9.60
 -10  11   4  312.47    8.80
  -9  11   4   14.70    1.50
  -9  11   4   10.60    1.20
  -9  11   4   10.70    1.60
  -9  11   4   10.80    2.00
  -8  11   4   13.90    1.40
  -8  11   4   15.70    1.50
  -8  11   4   10.30    2.00
  -8  11   4   12.10    1.60
  -7  11   4   14.90    1.40
  -7  11   4   19.50    2.60
  -7  11   4   14.80    1.60
  -7  11   4   16.90    1.90
  -6  11   4  176.98    5.90
  -6  11   4  172.38    5.50
  -6  11   4  191.38    6.70
  -6  11   4  179.98    5.40
  -5  11   4  340.47    9.10
  -5  11   4  332.47    9.50
  -5  11   4  345.77   10.40
  -5  11   4  325.67    9.20
  -4  11   4  473.25   12.70
  -4  11   4  476.55   13.70
  -4  11   4  484.25   12.40
   3 -11  -4  120.89    5.80
  -3  11   4  130.69    4.30
  -3  11   4  133.09    4.30
  -3  11   4  133.39    4.50
   2 -11  -4  171.28    6.30
  -2  11   4  169.68    5.40
  -2  11   4  181.18    5.30
   1 -11  -4    4.60    1.20
  -1  11   4    3.40    0.90
   0 -11  -4    3.60    1.30
   0  11   4    1.40    0.80
  -1 -11  -4   66.79    3.70
   1  11   4   66.79    2.80
   2  11   4   19.60    1.60
   3  11   4  380.86    9.90
   4  11   4   60.59    2.30
 -11  12   4   60.09    3.10
 -11  12   4   65.69    2.50
 -10  12   4   99.39    3.60
 -10  12   4   96.99    3.40
 -10  12   4   94.79    4.30
  -9  12   4    4.00    1.60
  -9  12   4    2.20    1.10
  -9  12   4    4.90    1.00
  -8  12   4   34.40    2.10
  -8  12   4   38.40    3.30
  -8  12   4   34.20    1.90
  -8  12   4   36.10    2.50
  -7  12   4    3.00    1.20
  -7  12   4    2.50    0.80
  -7  12   4    3.30    1.00
  -7  12   4    4.40    1.80
  -6  12   4    5.00    1.80
  -6  12   4    5.00    1.00
  -6  12   4    4.00    0.90
  -6  12   4    5.60    1.30
  -5  12   4   67.39    2.90
  -5  12   4   71.29    3.30
  -5  12   4   66.49    2.80
  -5  12   4   73.59    4.20
   4 -12  -4 1190.38   31.00
  -4  12   4 1217.28   29.20
  -4  12   4 1142.69   28.80
   3 -12  -4   86.49    4.60
  -3  12   4   85.89    3.20
  -3  12   4   85.49    3.50
   2 -12  -4   22.40    2.30
  -2  12   4   20.80    1.70
  -2  12   4   23.40    1.90
   1 -12  -4  100.79    4.50
  -1  12   4   98.69    3.60
   0 -12  -4  131.79    5.30
   0  12   4  133.29    4.30
   1  12   4  155.18    4.80
   2  12   4   45.70    2.10
   3  12   4   39.40    1.80
   4  12   4    4.30    0.70
 -11  13   4   51.49    2.20
 -10  13   4   17.20    1.60
 -10  13   4   21.10    2.30
 -10  13   4   19.70    1.50
  -9  13   4   12.00    1.50
  -9  13   4   12.90    2.00
  -9  13   4   13.50    1.40
  -8  13   4    5.70    1.30
  -8  13   4    4.40    1.70
  -8  13   4    4.80    1.00
  -7  13   4    2.10    0.80
  -7  13   4    5.40    1.00
  -7  13   4    1.40    1.60
  -7  13   4    3.50    1.20
   6 -13  -4  207.88    8.40
  -6  13   4  186.58    5.80
  -6  13   4  202.38    6.30
  -6  13   4  192.28    5.90
   5 -13  -4   -0.70    2.00
  -5  13   4    0.20    1.00
  -5  13   4    1.20    1.30
   4 -13  -4  123.59    5.60
  -4  13   4  116.39    4.30
   3 -13  -4   74.49    3.90
  -3  13   4   69.69    3.10
  -3  13   4   66.59    2.80
   2 -13  -4  101.69    4.40
  -2  13   4   99.29    3.60
  -2  13   4   93.19    4.10
   1 -13  -4    2.50    1.20
  -1  13   4    1.20    0.80
   0 -13  -4   11.20    1.70
   0  13   4    9.00    1.10
   1  13   4   35.70    1.90
   2  13   4   60.89    2.30
   3  13   4  140.29    4.00
  10 -14  -4   17.20    2.60
   9 -14  -4   62.79    4.30
  -9  14   4   39.40    2.20
  -9  14   4   39.50    2.70
   8 -14  -4   16.50    2.90
  -8  14   4    3.40    1.10
  -8  14   4    5.40    1.00
   7 -14  -4    8.10    2.70
  -7  14   4    8.20    1.30
   6 -14  -4    4.80    2.20
  -6  14   4    1.50    1.00
   5 -14  -4  135.29    5.70
  -5  14   4  123.49    4.50
   4 -14  -4   75.19    3.90
  -4  14   4   77.09    3.20
   3 -14  -4    1.50    1.10
  -3  14   4    1.00    0.90
   2 -14  -4   21.20    2.30
  -2  14   4   20.50    1.60
   1 -14  -4   76.19    3.60
  -1  14   4   70.79    2.80
   0  14   4   12.00    1.10
   1  14   4   10.70    1.00
   2  14   4    8.50    0.80
   9 -15  -4   40.10    4.30
   8 -15  -4    0.60    1.70
  -8  15   4    0.60    0.80
   7 -15  -4   17.60    2.30
  -7  15   4   16.40    1.60
   6 -15  -4   13.00    1.90
  -6  15   4   12.90    1.40
   5 -15  -4    5.70    1.40
  -5  15   4    7.20    1.10
   4 -15  -4  150.38    5.30
  -4  15   4  143.69    4.60
   3 -15  -4   27.70    2.20
  -3  15   4   26.80    2.10
   2 -15  -4    5.70    1.20
  -2  15   4    5.20    0.80
  -1  15   4    2.00    0.60
   0  15   4    2.30    0.60
   6 -16  -4   22.50    1.70
  -6  16   4   22.00    1.50
   5 -16  -4   40.50    2.20
  -5  16   4   39.20    2.10
   4 -16  -4   33.90    2.90
  -1  16  -5    3.50    1.00
  -1  16  -5    3.50    0.90
  -2  16  -5   16.30    1.50
  -2  16  -5   16.60    1.60
  -3  16  -5   58.19    2.70
  -3  16  -5   64.19    2.80
  -4  16  -5   21.10    1.80
  -4  16  -5   25.50    2.00
  -5  16  -5    1.50    0.80
  -5  16  -5    1.40    1.00
  -6  16  -5   62.39    2.60
   1  15  -5    8.30    1.20
   1  15  -5    8.50    1.00
  -1 -15   5    9.50    1.10
   0  15  -5    8.40    1.00
   0  15  -5    6.40    1.20
   0  15  -5    6.70    1.20
  -1  15  -5  196.58    6.00
  -1  15  -5  196.08    6.10
  -1  15  -5  186.88    5.60
  -2  15  -5    2.40    1.20
  -2  15  -5    0.70    1.10
  -3  15  -5   16.50    1.80
  -3  15  -5   21.00    2.20
  -4  15  -5   16.80    1.80
  -4  15  -5   14.50    1.70
  -5  15  -5    1.80    1.00
  -5  15  -5    2.00    1.10
  -6  15  -5  169.68    5.30
  -6  15  -5  169.48    5.30
  -7  15  -5   29.40    1.80
  -8  15  -5    0.20    0.60
   3  14  -5   29.90    1.50
  -3 -14   5   29.10    1.60
   2  14  -5    4.50    1.00
   2  14  -5    4.20    0.90
  -2 -14   5    4.50    1.00
   1  14  -5   22.80    2.10
   1  14  -5   19.70    1.90
   1  14  -5   23.20    1.70
   0  14  -5    2.50    0.90
   0  14  -5    1.70    1.10
   0  14  -5    0.70    1.20
  -1  14  -5   93.79    4.00
  -1  14  -5   92.89    3.50
  -1  14  -5   98.89    4.10
  -2  14  -5   10.60    1.70
  -2  14  -5   10.70    1.30
  -2  14  -5    7.90    1.10
  -2  14  -5    9.10    1.60
  -3  14  -5  772.42   19.10
  -3  14  -5  738.93   19.30
  -3  14  -5  724.93   18.40
  -4  14  -5   29.50    2.30
  -4  14  -5   31.60    2.50
  -5  14  -5    3.90    1.10
  -5  14  -5    4.70    1.30
  -6  14  -5   21.30    2.00
  -6  14  -5   27.10    2.00
  -7  14  -5  165.18    5.20
  -8  14  -5   76.59    3.70
  -8  14  -5   77.89    3.00
  -9  14  -5    3.50    0.80
   4  13  -5    2.90    0.70
  -4 -13   5    1.80    0.70
   3  13  -5   30.70    1.80
   3  13  -5   33.30    2.10
  -3 -13   5   33.20    2.10
   2  13  -5  202.68    6.00
   2  13  -5  195.58    6.20
   2  13  -5  202.18    6.40
   1  13  -5    0.10    1.20
   1  13  -5    2.50    1.20
   1  13  -5    1.60    1.00
   1  13  -5    0.40    0.70
   0  13  -5  159.48    5.00
   0  13  -5  139.39    4.70
   0  13  -5  156.88    5.50
   0  13  -5  157.98    5.50
  -1  13  -5   68.09    2.80
  -1  13  -5   72.69    3.00
  -1  13  -5   74.79    3.70
  -1  13  -5   71.79    3.60
  -2  13  -5    3.40    1.20
  -2  13  -5    4.40    1.40
  -2  13  -5    4.70    1.00
  -2  13  -5    4.10    0.90
  -3  13  -5    9.90    1.40
  -3  13  -5    7.60    1.60
  -3  13  -5    7.70    1.00
  -4  13  -5    3.50    1.00
  -4  13  -5    1.90    0.70
  -4  13  -5    2.00    1.30
  -5  13  -5   76.79    3.60
  -5  13  -5   74.99    3.30
  -5  13  -5   70.79    2.50
  -6  13  -5   28.20    2.30
  -6  13  -5   24.70    1.40
  -6  13  -5   27.60    2.10
  -7  13  -5   47.70    3.10
  -7  13  -5   50.99    2.70
  -8  13  -5    5.30    1.10
  -8  13  -5    6.30    1.50
  -9  13  -5   61.89    3.20
  -9  13  -5   67.69    2.70
 -10  13  -5    8.80    1.00
   5  12  -5  160.28    4.10
   5  12  -5  158.68    4.50
  -5 -12   5  159.08    4.70
  -4 -12   5   71.19    3.00
   3  12  -5    2.70    1.20
   3  12  -5    0.80    0.90
  -3 -12   5    0.60    1.00
   2  12  -5  102.19    4.30
   2  12  -5  113.29    4.00
   2  12  -5  103.79    4.20
   2  12  -5  104.59    3.90
   1  12  -5    8.10    1.20
   1  12  -5    8.50    1.60
   1  12  -5    7.40    1.60
   1  12  -5   11.20    1.40
   0  12  -5   13.50    1.80
   0  12  -5   13.00    1.80
   0  12  -5   11.30    1.40
   0  12  -5   14.30    1.30
  -1  12  -5    3.90    1.40
  -1  12  -5    3.30    1.20
  -1  12  -5    4.60    1.10
  -1  12  -5    4.80    0.90
  -2  12  -5   24.90    2.40
  -2  12  -5   29.00    2.10
  -2  12  -5   28.30    1.90
  -2  12  -5   32.30    1.70
  -3  12  -5    8.30    1.30
  -3  12  -5    5.70    1.50
  -3  12  -5    6.00    0.80
  -4  12  -5   28.50    1.40
  -4  12  -5   32.80    2.10
  -4  12  -5   32.00    2.50
  -5  12  -5    7.60    0.80
  -5  12  -5    6.50    1.40
  -5  12  -5    7.60    1.20
  -6  12  -5    3.10    0.60
  -6  12  -5    3.40    1.10
  -6  12  -5    2.60    1.20
  -7  12  -5    3.30    1.40
  -7  12  -5    3.70    0.70
  -7  12  -5    5.20    1.20
  -8  12  -5    7.60    1.30
  -8  12  -5   10.40    1.90
  -9  12  -5    2.40    1.30
  -9  12  -5    3.50    1.00
 -10  12  -5   47.10    2.80
 -10  12  -5   48.60    2.20
   6  11  -5   41.70    1.30
  -6 -11   5   44.20    2.00
   5  11  -5   31.80    1.80
  -5 -11   5   25.20    1.90
   4  11  -5   89.69    3.80
   4  11  -5   86.29    3.30
  -4 -11   5   89.79    3.70
   3  11  -5  239.38    6.80
   3  11  -5  240.18    7.50
   3  11  -5  231.78    7.20
   3  11  -5  222.08    6.90
   2  11  -5   20.70    1.90
   2  11  -5   20.90    2.20
   2  11  -5   21.20    2.20
   2  11  -5   22.20    1.70
   1  11  -5    0.40    1.10
   1  11  -5    1.20    0.90
   1  11  -5    1.70    1.20
   1  11  -5    0.40    0.60
   0  11  -5  184.38    5.60
   0  11  -5  182.78    5.40
   0  11  -5  189.88    6.30
   0  11  -5  180.58    6.00
  -1  11  -5   41.90    2.20
  -1  11  -5   43.30    2.40
  -1  11  -5   40.90    1.90
  -1  11  -5   42.70    2.80
  -2  11  -5   59.49    2.50
  -2  11  -5   58.39    2.70
  -2  11  -5   57.69    3.10
  -2  11  -5   57.69    2.10
  -3  11  -5    4.70    0.70
  -3  11  -5    6.60    1.10
  -3  11  -5    5.80    1.30
  -4  11  -5    0.20    0.80
  -4  11  -5    0.60    1.00
  -5  11  -5   23.40    1.90
  -5  11  -5   23.80    2.30
  -5  11  -5   26.60    2.20
  -6  11  -5   11.30    1.80
  -6  11  -5   12.20    1.50
  -7  11  -5    8.20    1.70
  -7  11  -5    6.50    1.20
  -7  11  -5    8.60    1.00
  -8  11  -5  112.79    5.00
  -8  11  -5  106.29    3.50
  -8  11  -5  110.99    4.10
  -9  11  -5   11.70    2.00
  -9  11  -5   13.80    1.50
 -10  11  -5   12.90    1.30
 -10  11  -5   16.50    2.10
 -11  11  -5   16.60    1.20
 -11  11  -5   15.40    1.70
  -7 -10   5   25.10    1.50
   6  10  -5   79.59    2.40
   6  10  -5   77.49    3.50
  -6 -10   5   83.09    3.20
   5  10  -5   22.30    1.70
  -5 -10   5   20.40    2.00
   4  10  -5    2.30    1.00
   4  10  -5    2.70    0.90
   4  10  -5    4.30    1.30
  -4 -10   5    3.30    1.20
   3  10  -5    7.20    1.40
   3  10  -5    9.40    1.50
   3  10  -5    5.90    1.20
   3  10  -5    8.90    1.30
   2  10  -5   14.00    1.40
   2  10  -5    9.50    1.60
   2  10  -5   12.30    1.40
   2  10  -5   15.50    1.80
   1  10  -5    9.40    1.50
   1  10  -5    9.90    1.10
   1  10  -5    9.50    1.20
   1  10  -5    8.10    1.40
   0  10  -5   42.80    2.40
   0  10  -5   45.10    2.70
   0  10  -5   42.50    2.20
   0  10  -5   46.80    2.00
   0 -10   5   46.30    3.00
  -1  10  -5  149.99    4.60
  -1  10  -5  150.38    4.80
  -1  10  -5  150.48    4.20
  -1  10  -5  147.19    5.20
   1 -10   5  150.78    5.70
  -2  10  -5   13.60    0.90
  -2  10  -5   13.80    1.30
  -2  10  -5   15.70    1.40
  -2  10  -5   14.30    1.60
   2 -10   5   14.40    1.90
  -3  10  -5  428.36   11.70
  -3  10  -5  418.36   11.30
   3 -10   5  442.36   12.60
  -4  10  -5  106.69    4.00
  -4  10  -5  103.79    3.70
  -5  10  -5   16.90    1.90
  -5  10  -5   15.30    1.60
  -6  10  -5    4.90    1.10
  -6  10  -5    5.00    1.30
  -7  10  -5  130.79    4.70
  -7  10  -5  135.29    4.00
  -7  10  -5  138.59    5.60
  -8  10  -5   79.99    3.40
  -8  10  -5   80.79    4.20
  -8  10  -5   77.99    2.80
  -9  10  -5    3.60    1.10
  -9  10  -5    2.60    1.50
  -9  10  -5    1.50    1.00
  -9  10  -5    1.50    0.60
 -10  10  -5   94.19    4.30
 -10  10  -5   94.29    3.50
 -10  10  -5   97.49    3.50
 -11  10  -5  232.98    7.10
 -11  10  -5  231.18    6.30
 -11  10  -5  233.28    6.40
  -8  -9   5    6.90    0.90
   7   9  -5   33.30    1.20
  -7  -9   5   36.30    2.00
  -6  -9   5   38.80    2.30
   5   9  -5   44.70    2.30
  -5  -9   5   43.90    2.70
   4   9  -5  180.68    6.10
   4   9  -5  175.48    6.20
   4   9  -5  185.08    5.80
   4   9  -5  188.18    5.60
   3   9  -5    3.70    1.20
   3   9  -5    5.00    1.00
   3   9  -5    3.50    1.10
   3   9  -5    3.00    1.00
   2   9  -5  235.88    7.40
   2   9  -5  245.98    7.50
   2   9  -5  252.87    7.00
   2   9  -5  241.58    6.90
  -2  -9   5  242.38    8.30
   1   9  -5  183.48    5.20
   1   9  -5  176.68    5.90
   1   9  -5  183.38    5.90
   1   9  -5  176.28    5.30
  -1  -9   5  178.88    6.50
   0   9  -5  249.38    6.50
   0   9  -5  255.77    7.50
   0  -9   5  236.98    7.90
  -1   9  -5    3.00    1.00
  -1   9  -5    4.50    1.50
  -1   9  -5    4.10    0.50
   1  -9   5    3.90    1.00
   1  -9   5    8.60    1.40
  -2   9  -5   23.60    1.50
  -2   9  -5   24.50    1.90
  -2   9  -5   24.80    2.40
   2  -9   5   23.40    1.60
   2  -9   5   27.20    2.10
  -3   9  -5  350.76    9.20
  -3   9  -5  357.06    9.60
   3  -9   5  333.77    9.20
   3  -9   5  357.76   10.30
  -4   9  -5  784.82   20.60
  -4   9  -5  786.82   19.70
  -5   9  -5    5.10    1.00
  -5   9  -5    7.40    1.30
  -5   9  -5    6.70    1.40
  -6   9  -5   15.20    1.60
  -6   9  -5   19.80    2.20
  -7   9  -5  127.39    3.80
  -7   9  -5  123.89    4.50
  -7   9  -5  131.99    5.40
  -8   9  -5   45.70    2.60
  -8   9  -5   45.00    2.00
  -8   9  -5   46.70    3.40
  -8   9  -5   44.30    2.60
  -9   9  -5    6.60    1.30
  -9   9  -5    7.20    1.00
  -9   9  -5    7.60    1.80
  -9   9  -5   11.30    1.50
 -10   9  -5   33.30    2.90
 -10   9  -5   35.50    2.20
 -10   9  -5   34.40    2.20
 -11   9  -5   37.10    2.50
 -11   9  -5   36.50    1.90
 -11   9  -5   36.10    2.00
  -9  -8   5   88.89    2.90
  -8  -8   5    1.90    0.80
   7   8  -5   18.70    1.10
  -7  -8   5   21.00    1.80
  -6  -8   5  114.89    4.30
   5   8  -5   12.30    1.40
   5   8  -5   16.00    1.90
  -5  -8   5   17.30    1.80
   4   8  -5   49.30    2.50
   4   8  -5   45.60    2.70
   4   8  -5   44.90    2.70
   4   8  -5   49.20    2.30
   3   8  -5  245.58    6.80
   3   8  -5  226.78    7.20
   3   8  -5  241.68    7.20
   3   8  -5  237.48    6.80
  -3  -8   5  228.48    8.00
   2   8  -5   15.80    1.20
   2   8  -5   14.50    1.60
  -2  -8   5   14.10    1.90
   1   8  -5  404.86    9.90
   1   8  -5  401.76   15.80
   1   8  -5  374.26   11.30
   1   8  -5  393.86   11.00
  -1  -8   5  400.76   13.00
  -1  -8   5  393.56   11.30
  -1  -8   5  370.36   10.80
   0   8  -5  419.56   12.60
   0   8  -5  414.86   11.60
   0   8  -5  415.66   10.30
   0  -8   5  438.56   11.90
   0  -8   5  427.96   11.30
   0  -8   5  410.96   12.30
  -1   8  -5   19.30    2.10
  -1   8  -5   21.60    1.50
  -1   8  -5   19.20    2.10
   1  -8   5   23.30    1.80
   1  -8   5   21.70    1.30
   1  -8   5   20.70    2.00
  -2   8  -5  162.88    4.80
  -2   8  -5  163.78    6.00
  -2   8  -5  161.58    6.00
   2  -8   5  167.58    5.50
   2  -8   5  158.88    4.60
  -3   8  -5  429.36   12.30
  -3   8  -5  426.86   10.80
  -3   8  -5  440.96   12.00
  -4   8  -5  337.97    9.80
  -5   8  -5    2.00    0.90
  -5   8  -5    0.60    0.80
   5  -8   5    1.00    0.40
  -6   8  -5  240.08    7.00
  -6   8  -5  245.78    7.80
  -6   8  -5  236.08    7.80
  -7   8  -5   52.09    2.00
  -7   8  -5   50.19    3.30
  -7   8  -5   50.59    2.60
  -7   8  -5   46.20    2.50
  -8   8  -5    3.00    1.50
  -8   8  -5    3.10    1.00
  -8   8  -5    3.70    0.80
  -8   8  -5    3.50    1.10
  -9   8  -5   52.99    2.70
  -9   8  -5   56.19    3.60
  -9   8  -5   51.49    2.30
  -9   8  -5   48.10    2.70
 -10   8  -5  102.69    4.70
 -10   8  -5  103.59    3.80
 -10   8  -5  102.59    3.80
 -10   8  -5  101.89    3.70
 -11   8  -5  203.38    5.90
 -11   8  -5  208.58    6.70
 -11   8  -5  206.18    5.90
 -12   8  -5   47.80    2.00
  -9  -7   5   14.40    1.30
  -8  -7   5   30.50    2.00
   7   7  -5   23.90    1.30
  -7  -7   5   21.00    1.90
  -6  -7   5   65.89    3.10
   5   7  -5    8.80    1.40
   5   7  -5    9.90    1.30
   5   7  -5    8.70    1.20
  -5  -7   5    8.10    1.30
   4   7  -5  368.56   10.20
   4   7  -5  360.96    9.70
   4   7  -5  380.76   10.00
   4   7  -5  352.46   10.30
  -4  -7   5  360.56   11.30
   3   7  -5   63.79    2.90
   3   7  -5   67.79    2.60
   3   7  -5   63.99    3.50
  -3  -7   5   67.99    3.50
  -3  -7   5   58.59    3.10
   2   7  -5  189.68    7.10
   2   7  -5  188.08    5.30
   2   7  -5  187.58    6.50
  -2  -7   5  183.08    6.50
  -2  -7   5  192.28    6.40
  -2  -7   5  181.58    6.00
   1   7  -5  141.79    3.90
   1   7  -5  137.99    5.60
   1   7  -5  138.89    5.00
  -1  -7   5  136.79    5.00
  -1  -7   5  139.79    5.30
  -1  -7   5  139.29    4.60
   0   7  -5  125.39    3.50
   0   7  -5  135.09    5.30
   0   7  -5  133.99    4.50
   0  -7   5  136.89    5.10
   0  -7   5  137.99    4.20
   0  -7   5  139.79    4.70
  -1   7  -5   71.59    2.60
  -1   7  -5   68.59    3.40
  -1   7  -5   73.89    3.50
   1  -7   5   73.09    2.30
   1  -7   5   72.69    3.40
   1  -7   5   76.69    3.10
  -2   7  -5    9.60    0.80
  -2   7  -5   14.00    1.60
  -2   7  -5    8.90    1.40
  -2   7  -5   12.40    1.40
  -3   7  -5    7.10    1.20
  -3   7  -5    9.30    1.30
  -4   7  -5    3.50    0.90
  -5   7  -5    4.10    1.10
  -5   7  -5    5.10    0.70
  -6   7  -5   13.70    1.80
  -6   7  -5   12.00    1.60
  -7   7  -5  152.48    4.90
  -7   7  -5  152.98    4.40
  -7   7  -5  146.29    4.90
  -7   7  -5  152.18    5.90
  -8   7  -5  200.18    5.70
  -8   7  -5  192.48    6.10
  -8   7  -5  194.88    6.10
  -8   7  -5  205.08    7.30
  -9   7  -5  101.99    4.90
  -9   7  -5  109.79    4.10
  -9   7  -5  104.59    3.60
  -9   7  -5  106.39    4.00
 -10   7  -5   37.20    2.20
 -10   7  -5   37.50    2.40
 -10   7  -5   33.30    2.90
 -10   7  -5   34.60    1.90
 -11   7  -5   13.70    1.40
 -11   7  -5   12.30    1.30
 -11   7  -5   12.50    1.80
 -12   7  -5    5.20    1.20
 -12   7  -5    5.40    0.80
 -10  -6   5    1.10    0.60
  -9  -6   5  155.58    4.80
  -8  -6   5   14.20    1.50
   7   6  -5   46.70    1.80
  -7  -6   5   42.90    2.40
  -6  -6   5   96.59    3.80
   5   6  -5   14.10    1.50
   5   6  -5   12.60    1.20
   5   6  -5   14.20    1.60
   5   6  -5   10.80    1.60
  -5  -6   5   11.40    1.50
  -5  -6   5   11.40    1.90
   4   6  -5   96.09    3.90
   4   6  -5   96.49    3.40
   4   6  -5   93.09    3.60
   4   6  -5   83.39    4.30
  -4  -6   5   91.39    4.30
  -4  -6   5   92.39    4.50
  -4  -6   5   87.99    3.90
   3   6  -5   12.60    1.40
   3   6  -5   12.10    1.10
   3   6  -5   13.20    1.60
   3   6  -5   13.30    1.90
  -3  -6   5   18.30    1.60
  -3  -6   5   12.60    1.60
  -3  -6   5   12.40    1.60
   2   6  -5  783.62   19.70
   2   6  -5  817.92   19.10
   2   6  -5  786.62   20.90
   2   6  -5  762.92   20.30
  -2  -6   5  787.02   20.20
  -2  -6   5  765.82   19.80
  -2  -6   5  789.52   20.50
   1   6  -5  495.05   13.20
   1   6  -5  485.75   12.00
   1   6  -5  492.45   12.70
   1   6  -5  494.55   13.90
  -1  -6   5  495.85   12.60
  -1  -6   5  507.75   13.20
  -1  -6   5  493.75   13.50
   0   6  -5  588.14   15.20
   0   6  -5  607.54   15.40
   0   6  -5  607.54   16.30
   0  -6   5  622.24   16.20
   0  -6   5  617.54   14.90
   0  -6   5  609.94   15.60
  -1   6  -5   30.60    1.60
  -1   6  -5   33.50    1.40
  -1   6  -5   35.50    2.20
  -1   6  -5   32.30    2.20
   1  -6   5   33.90    1.80
   1  -6   5   36.30    2.20
  -2   6  -5  138.59    4.40
  -2   6  -5  143.59    5.00
  -2   6  -5  138.09    4.50
  -2   6  -5  143.49    4.90
  -3   6  -5 1008.40   24.30
  -3   6  -5  963.60   24.70
  -3   6  -5  945.71   24.40
   3  -6   5  983.80   24.50
   3  -6   5  999.30   24.20
  -4   6  -5   23.70    1.70
   4  -6   5   24.10    1.70
  -5   6  -5   92.79    3.10
  -5   6  -5   87.89    3.60
  -6   6  -5   17.10    1.90
  -7   6  -5   12.20    1.80
  -7   6  -5   13.40    1.40
  -7   6  -5   14.10    1.10
  -7   6  -5   17.80    1.60
  -8   6  -5   93.39    3.20
  -8   6  -5   89.09    4.40
  -8   6  -5   90.79    3.60
  -8   6  -5   92.39    3.70
  -9   6  -5  204.58    6.20
  -9   6  -5  194.28    5.80
  -9   6  -5  193.78    6.10
  -9   6  -5  206.48    7.20
 -10   6  -5    5.70    1.60
 -10   6  -5    7.20    1.20
 -10   6  -5    7.10    1.30
 -10   6  -5    7.90    1.10
 -11   6  -5    3.80    1.30
 -11   6  -5    3.00    1.00
 -11   6  -5    2.70    0.80
 -12   6  -5   58.99    2.20
 -12   6  -5   56.49    2.90
 -10  -5   5   43.50    2.10
  -9  -5   5   27.10    2.00
   8   5  -5  104.19    3.00
  -8  -5   5  115.19    4.10
   7   5  -5  115.79    3.30
  -7  -5   5  112.69    4.10
   6   5  -5   15.10    2.00
  -6  -5   5   14.20    1.50
  -6  -5   5   16.10    2.10
   5   5  -5   20.10    1.50
   5   5  -5   22.00    2.00
   5   5  -5   16.40    1.60
  -5  -5   5   22.10    2.30
   4   5  -5   28.30    2.00
   4   5  -5   29.90    2.50
   4   5  -5   29.70    1.70
   4   5  -5   29.40    2.30
  -4  -5   5   29.40    2.40
  -4  -5   5   27.40    2.00
  -4  -5   5   26.40    2.10
   3   5  -5  286.27    8.00
   3   5  -5  278.77    8.60
   3   5  -5  276.57    8.80
   3   5  -5  279.27    7.40
  -3  -5   5  273.87    8.00
  -3  -5   5  275.47    8.40
  -3  -5   5  278.47    8.40
   2   5  -5  687.23   16.90
   2   5  -5  693.43   18.50
   2   5  -5  706.33   18.00
   2   5  -5  688.53   17.50
  -2  -5   5  712.73   18.20
  -2  -5   5  683.13   17.40
  -2  -5   5  702.93   17.90
   1   5  -5    0.70    0.30
   1   5  -5    0.90    0.70
   1   5  -5    1.70    0.60
   1   5  -5    1.10    0.50
  -1  -5   5    0.70    0.60
  -1  -5   5    2.60    0.70
  -1  -5   5    0.80    0.40
   0   5  -5  223.38    6.40
   0   5  -5  235.78    7.20
   0   5  -5  230.68    6.30
   0  -5   5  237.98    7.00
   0  -5   5  227.38    6.60
   0  -5   5  244.18    5.90
  -1   5  -5  399.36   10.70
  -1   5  -5  396.36   10.90
  -1   5  -5  384.56   10.20
  -1   5  -5  386.16    9.60
  -1   5  -5  393.06    9.70
   1  -5   5  401.06   10.70
   1  -5   5  397.96   10.30
  -2   5  -5  141.39    4.30
  -2   5  -5  139.39    4.50
  -2   5  -5  138.19    4.40
  -2   5  -5  135.59    4.70
  -3   5  -5   20.50    1.40
  -3   5  -5   23.40    1.40
   3  -5   5   21.30    1.50
   3  -5   5   21.90    1.40
  -4   5  -5   34.20    1.80
  -4   5  -5   33.10    1.40
   4  -5   5   32.80    1.90
  -5   5  -5  108.69    3.60
  -5   5  -5  104.29    3.90
   5  -5   5  109.39    4.00
  -6   5  -5    4.60    0.60
  -6   5  -5    6.40    1.20
  -6   5  -5    5.70    1.00
   6  -5   5    4.20    1.10
  -7   5  -5    8.50    1.60
  -7   5  -5   10.90    1.30
  -7   5  -5   11.20    1.40
  -7   5  -5    8.70    1.00
   7  -5   5    8.20    1.50
  -8   5  -5    3.90    1.40
  -8   5  -5    4.00    1.10
  -8   5  -5    2.20    0.80
  -8   5  -5    3.00    1.00
  -9   5  -5  403.66   10.80
  -9   5  -5  404.86   12.10
  -9   5  -5  412.16   11.00
  -9   5  -5  414.86   11.00
 -10   5  -5    1.80    1.10
 -10   5  -5    3.10    1.40
 -10   5  -5    2.20    0.90
 -10   5  -5    2.60    0.80
 -11   5  -5    2.50    0.80
 -11   5  -5    2.90    1.20
 -11   5  -5    1.50    0.90
 -12   5  -5    4.50    0.80
 -11  -4   5    5.10    0.80
 -10  -4   5    2.40    0.90
  -9  -4   5    2.90    1.00
   8   4  -5   22.40    1.10
  -8  -4   5   22.20    1.90
   7   4  -5  279.07    7.10
  -7  -4   5  280.47    8.00
   6   4  -5   13.40    1.80
  -6  -4   5   12.00    1.80
   5   4  -5  311.27    8.40
   5   4  -5  307.27    9.00
  -5  -4   5  293.47    9.20
  -5  -4   5  308.07    9.60
   4   4  -5   78.39    3.70
   4   4  -5   75.09    2.80
   4   4  -5   80.09    3.30
   4   4  -5   81.89    3.80
  -4  -4   5   78.19    3.50
  -4  -4   5   79.19    3.30
  -4  -4   5   83.29    3.70
   3   4  -5   10.70    1.30
   3   4  -5   12.20    0.90
   3   4  -5   10.90    1.10
   3   4  -5   11.00    1.40
  -3  -4   5   11.20    1.40
  -3  -4   5   10.70    1.10
  -3  -4   5   12.30    1.50
   2   4  -5    1.40    0.50
   2   4  -5    1.60    0.60
   2   4  -5    2.30    0.40
   2   4  -5    1.40    0.70
  -2  -4   5    7.40    1.00
  -2  -4   5    2.40    0.80
  -2  -4   5    1.50    0.50
   1   4  -5    7.80    0.90
   1   4  -5    7.40    0.80
   1   4  -5    7.40    1.10
  -1  -4   5    7.20    0.90
  -1  -4   5    7.60    1.10
  -1  -4   5    9.00    0.70
   0   4  -5 2106.39   50.49
   0   4  -5 2053.49   50.19
   0   4  -5 2168.68   50.29
   0   4  -5 2102.99   51.19
   0  -4   5 2160.88   50.99
   0  -4   5 2186.58   50.59
  -1   4  -5  213.28    6.40
  -1   4  -5  210.58    5.90
  -1   4  -5  208.88    5.80
   1  -4   5  212.78    6.10
  -2   4  -5  522.95   12.90
  -2   4  -5  509.45   13.10
  -2   4  -5  502.15   13.20
   2  -4   5  524.05   13.10
   2  -4   5  522.75   13.40
  -3   4  -5  145.49    4.50
  -3   4  -5  151.38    4.10
  -3   4  -5  159.98    4.50
  -3   4  -5  161.38    4.20
   3  -4   5  150.18    4.50
   3  -4   5  153.38    4.70
   3  -4   5  156.58    4.80
  -4   4  -5  620.14   15.30
  -4   4  -5  599.64   15.40
   4  -4   5  620.24   15.80
  -5   4  -5  688.23   17.40
  -5   4  -5  701.33   19.10
  -5   4  -5  758.52   18.30
   5  -4   5  728.23   18.50
  -6   4  -5  184.38    6.10
  -6   4  -5  207.58    8.50
  -6   4  -5  189.78    5.20
   6  -4   5  189.18    6.30
  -7   4  -5    0.50    0.80
  -7   4  -5    1.40    0.60
  -7   4  -5    1.30    1.00
   7  -4   5    2.00    0.90
  -8   4  -5   10.20    1.80
  -8   4  -5    9.70    1.30
  -8   4  -5   11.70    1.40
  -8   4  -5   11.30    1.20
  -9   4  -5   57.09    2.60
  -9   4  -5   58.89    2.90
  -9   4  -5   61.39    2.80
  -9   4  -5   63.59    3.60
 -10   4  -5   78.79    3.10
 -10   4  -5   76.49    3.30
 -10   4  -5   78.09    3.10
 -10   4  -5   86.69    4.00
 -11   4  -5   74.39    3.40
 -11   4  -5   72.39    3.00
 -11   4  -5   73.19    2.90
 -12   4  -5   26.40    1.40
 -11  -3   5   14.10    1.30
 -10  -3   5   -0.30    0.80
  -9  -3   5   19.90    1.90
   8   3  -5  155.68    4.20
  -8  -3   5  163.78    5.20
   7   3  -5  137.39    5.30
   7   3  -5  135.89    3.80
  -7  -3   5  136.39    5.50
  -7  -3   5  136.69    4.60
   6   3  -5   14.30    1.70
  -6  -3   5   15.00    1.90
   5   3  -5  242.58    6.90
   5   3  -5  250.87    7.50
  -5  -3   5  261.07    8.10
  -5  -3   5  237.08    7.70
   4   3  -5  116.39    4.60
   4   3  -5  116.59    4.00
   4   3  -5  110.89    4.50
   4   3  -5  119.49    3.70
  -4  -3   5  119.29    4.40
  -4  -3   5  116.89    4.10
  -4  -3   5  119.19    4.50
   3   3  -5 2101.69   51.79
   3   3  -5 2121.79   50.69
   3   3  -5 2079.19   51.69
  -3  -3   5 2174.18   51.09
  -3  -3   5 2163.28   51.59
  -3  -3   5 2206.98   51.59
   2   3  -5  489.55   13.10
   2   3  -5  485.75   12.00
   2   3  -5  497.25   12.50
   2   3  -5  509.65   12.80
  -2  -3   5  500.45   12.70
  -2  -3   5  470.85   12.30
  -2  -3   5  488.35   13.00
   1   3  -5   16.30    1.10
   1   3  -5   17.30    1.40
   1   3  -5   18.50    1.10
  -1  -3   5   16.30    1.30
  -1  -3   5   18.10    1.10
  -1  -3   5   18.50    0.90
   0   3  -5  371.06   10.10
   0   3  -5  361.76    9.10
   0   3  -5  381.96    9.20
   0   3  -5  373.56    9.50
   0  -3   5  381.86    9.80
   0  -3   5  368.46    9.40
  -1   3  -5  140.79    4.20
   1  -3   5  135.89    4.10
   1  -3   5  143.49    4.50
  -2   3  -5   56.09    2.30
  -2   3  -5   55.09    1.70
   2  -3   5   56.69    2.30
   2  -3   5   55.29    2.00
  -3   3  -5   78.69    2.60
   3  -3   5   75.09    2.80
   3  -3   5   77.09    2.90
  -4   3  -5   78.19    3.70
  -4   3  -5   86.79    3.00
   4  -3   5   78.19    3.20
  -5   3  -5  171.48    5.40
  -5   3  -5  162.28    4.50
   5  -3   5  174.88    5.60
  -6   3  -5  435.56   10.90
  -6   3  -5  431.26   12.10
   6  -3   5  424.36   12.00
  -7   3  -5   76.69    2.80
  -7   3  -5   72.89    3.60
  -7   3  -5   68.79    2.90
   7  -3   5   72.69    3.60
  -8   3  -5   26.80    2.00
  -8   3  -5   24.50    1.70
  -8   3  -5   22.70    2.40
  -9   3  -5   87.99    3.40
  -9   3  -5   90.59    4.30
  -9   3  -5   92.29    3.60
  -9   3  -5   93.09    3.40
 -10   3  -5   30.00    1.80
 -10   3  -5   33.40    2.70
 -10   3  -5   30.70    2.10
 -10   3  -5   28.30    1.50
 -10   3  -5   28.60    1.90
 -11   3  -5   14.60    1.30
 -11   3  -5   16.10    1.90
 -12  -2   5    3.30    0.60
 -11  -2   5    2.70    0.80
 -10  -2   5  187.38    5.80
  -9  -2   5   53.19    2.70
  -8  -2   5   -0.30    0.80
   7   2  -5  311.87    9.50
  -7  -2   5  306.07    9.60
   6   2  -5  538.65   14.30
  -6  -2   5  513.85   14.30
  -6  -2   5  532.55   14.60
   5   2  -5   62.39    2.40
   5   2  -5   61.59    2.80
  -5  -2   5   62.09    3.00
  -5  -2   5   66.89    3.20
  -5  -2   5   65.49    3.00
   4   2  -5   40.90    1.80
   4   2  -5   43.60    2.50
   4   2  -5   43.10    2.40
   4   2  -5   45.20    2.10
  -4  -2   5   43.30    2.40
  -4  -2   5   45.20    2.40
  -4  -2   5   43.10    2.10
   3   2  -5 1294.07   30.70
   3   2  -5 1268.17   30.20
   3   2  -5 1238.98   30.80
   3   2  -5 1191.38   29.80
  -3  -2   5 1262.97   30.60
  -3  -2   5 1207.78   30.60
  -3  -2   5 1255.47   30.10
   2   2  -5   78.29    3.20
   2   2  -5   80.29    2.90
   2   2  -5   79.39    2.70
  -2  -2   5   79.59    2.90
  -2  -2   5   82.09    2.60
  -2  -2   5   79.99    3.10
   1   2  -5 1254.17   28.40
   1   2  -5 1129.09   28.20
   1   2  -5 1200.08   28.30
  -1  -2   5 1178.78   28.30
  -1  -2   5 1188.98   28.80
  -1  -2   5 1130.89   28.70
   0   2  -5  591.84   15.10
   0   2  -5  639.54   15.20
   0   2  -5  630.04   15.50
   0  -2   5  620.54   15.20
   0  -2   5  630.44   15.90
   0  -2   5  666.53   15.70
  -1   2  -5  397.56    9.80
  -1   2  -5  384.66    9.90
  -1   2  -5  416.36    9.90
  -1   2  -5  404.26   10.40
   1  -2   5  419.46   10.20
   1  -2   5  405.16   10.60
  -2   2  -5 1316.77   32.20
  -2   2  -5 1360.96   32.80
  -2   2  -5 1320.87   32.10
  -2   2  -5 1317.67   32.20
   2  -2   5 1432.36   32.80
   2  -2   5 1391.86   32.20
  -3   2  -5   32.10    1.60
  -3   2  -5   29.50    1.30
   3  -2   5   28.70    1.60
   3  -2   5   32.50    1.70
  -4   2  -5  420.86   10.70
  -4   2  -5  453.05   11.70
   4  -2   5  450.35   11.80
  -5   2  -5  240.18    7.20
  -5   2  -5  235.08    6.20
   5  -2   5  234.58    7.20
  -6   2  -5   45.80    2.70
  -6   2  -5   47.70    2.00
   6  -2   5   46.60    2.80
  -7   2  -5   11.40    1.30
  -7   2  -5    9.00    1.50
  -7   2  -5   11.20    1.30
   7  -2   5   11.70    1.60
  -8   2  -5  199.48    6.80
  -8   2  -5  187.08    5.90
  -8   2  -5  200.78    5.90
  -9   2  -5   40.80    2.90
  -9   2  -5   39.50    2.30
  -9   2  -5   35.70    1.80
  -9   2  -5   42.00    2.20
 -10   2  -5   22.60    1.40
 -10   2  -5   22.60    2.20
 -10   2  -5   23.40    1.80
 -11   2  -5   56.69    2.80
 -11   2  -5   58.29    2.30
 -12  -1   5   51.69    2.10
 -11  -1   5   54.89    2.50
 -10  -1   5  158.28    5.10
  -9  -1   5  268.57    7.80
  -8  -1   5   61.39    2.80
   7   1  -5  369.36   10.80
  -7  -1   5  371.86   11.00
   6   1  -5  182.38    5.80
  -6  -1   5  171.78    5.80
  -6  -1   5  173.48    6.00
   5   1  -5  251.27    7.30
   5   1  -5  240.28    6.80
  -5  -1   5  248.28    7.60
  -5  -1   5  254.07    7.70
  -5  -1   5  263.57    8.80
   4   1  -5  364.56   10.30
   4   1  -5  365.36    9.70
   4   1  -5  348.27    9.30
  -4  -1   5  368.96   10.10
  -4  -1   5  369.16    9.70
  -4  -1   5  366.36   10.10
  -4  -1   5  363.06   10.10
   3   1  -5 2795.92   77.39
   3   1  -5 3429.26   78.39
  -3  -1   5 3254.17   77.09
  -3  -1   5 3392.36   77.79
  -3  -1   5 3345.07   77.59
  -3  -1   5 3402.26   77.59
   2   1  -5   36.20    1.60
   2   1  -5   37.80    1.70
  -2  -1   5   38.40    1.90
  -2  -1   5   39.40    2.00
  -2  -1   5   38.60    1.50
  -2  -1   5   35.20    1.70
   1   1  -5  386.56   10.30
   1   1  -5  418.96   10.40
   1   1  -5  431.16   10.50
  -1  -1   5  396.86   10.30
  -1  -1   5  449.95   10.90
  -1  -1   5  412.96   10.90
   0   1  -5  345.97    8.40
   0   1  -5  334.67    8.50
   0   1  -5  313.37    8.20
   0  -1   5  335.87    8.60
   0  -1   5  343.37    8.90
   0  -1   5  318.27    8.10
  -1   1  -5  437.56   11.30
  -1   1  -5  455.95   11.60
  -1   1  -5  469.35   11.30
   1  -1   5  459.35   11.40
   1  -1   5  468.95   11.90
  -2   1  -5    3.60    0.70
  -2   1  -5    5.40    0.70
   2  -1   5    6.40    0.80
   2  -1   5    5.50    0.50
  -3   1  -5    0.30    0.40
  -3   1  -5    0.90    0.30
   3  -1   5    0.10    0.50
   3  -1   5    0.80    0.50
  -4   1  -5  401.66   10.70
  -4   1  -5  377.76    9.60
   4  -1   5  383.76   10.60
  -5   1  -5 1067.09   27.00
  -5   1  -5 1057.89   25.80
   5  -1   5 1086.99   26.80
  -6   1  -5  147.89    4.40
  -6   1  -5  145.59    5.30
  -6   1  -5  147.99    5.50
   6  -1   5  145.69    5.30
  -7   1  -5   47.60    2.20
  -7   1  -5   45.90    2.80
  -7   1  -5   42.80    2.20
   7  -1   5   46.10    2.90
  -8   1  -5    2.40    1.00
  -8   1  -5    1.80    1.10
  -8   1  -5    1.00    0.70
  -8   1  -5    0.60    1.10
  -9   1  -5   23.30    1.50
  -9   1  -5   24.00    1.80
  -9   1  -5   27.60    2.50
  -9   1  -5   26.70    1.90
 -10   1  -5  158.18    4.80
 -10   1  -5  154.08    5.50
 -10   1  -5  166.98    4.40
 -12   0   5    4.30    0.80
 -11   0   5  123.19    4.20
 -10   0   5  586.84   15.10
  -9   0   5   47.00    2.50
   8   0  -5   17.30    2.00
  -8   0   5   16.70    2.10
  -8   0   5   17.60    1.60
   7   0  -5  493.05   13.50
  -7   0   5  493.85   13.80
   6   0  -5   14.60    1.50
  -6   0   5   13.80    1.50
  -6   0   5   12.80    1.50
   5   0  -5   12.80    1.20
  -5   0   5   14.80    1.40
  -5   0   5   12.50    1.40
   4   0  -5   61.69    2.90
   4   0  -5   58.69    2.40
  -4   0   5   61.09    2.80
  -4   0   5   66.89    2.50
  -4   0   5   62.69    2.60
  -4   0   5   63.19    2.70
   3   0  -5    2.10    0.60
   3   0  -5    2.20    0.50
  -3   0   5    3.10    0.60
  -3   0   5    2.10    0.70
  -3   0   5    3.20    0.50
   2   0  -5 2543.55   55.49
   2   0  -5 1993.60   54.89
  -2   0   5 2582.94   55.69
  -2   0   5 2443.96   56.79
  -2   0   5 2354.66   55.09
  -2   0   5 2017.70   55.39
  -2   0   5 2391.46   55.09
   1   0  -5 2647.73   61.49
   1   0  -5 2517.65   61.49
   1   0  -5 2804.22   64.09
  -1   0   5 2556.14   61.19
  -1   0   5 2583.74   62.09
  -1   0   5 2561.64   61.79
   0   0  -5   98.49    3.00
   0   0  -5   92.49    2.90
   0   0  -5   93.99    3.00
   0   0   5   93.19    2.90
   0   0   5   97.99    3.00
   0   0   5  100.69    3.40
  -1   0  -5  171.08    5.20
  -1   0  -5  181.78    5.10
  -1   0  -5  181.28    5.00
   1   0   5  176.38    5.00
   1   0   5  176.78    5.30
   1   0   5  175.98    4.60
  -2   0  -5  835.52   20.20
   2   0   5  790.62   20.00
   2   0   5  813.12   20.20
  -3   0  -5 2379.86   56.49
  -3   0  -5 2272.77   55.39
   3   0   5 2395.36   56.19
   3   0   5 2372.56   56.19
  -4   0  -5    4.80    0.60
  -4   0  -5    2.50    0.80
   4   0   5    2.40    0.80
  -5   0  -5   -0.30    0.60
  -5   0  -5    0.50    0.50
   5   0   5    0.40    0.70
  -6   0  -5  108.29    4.30
  -6   0  -5  105.29    4.60
  -6   0  -5  111.29    3.60
   6   0   5  108.19    4.40
  -7   0  -5   68.99    2.80
  -7   0  -5   69.59    2.80
  -7   0  -5   63.79    3.40
   7   0   5   68.09    4.30
  -8   0  -5   43.50    1.90
  -8   0  -5   41.80    2.20
  -8   0  -5   44.90    3.00
  -8   0  -5   43.30    2.30
  -9   0  -5   12.60    1.80
  -9   0  -5   11.60    1.00
 -10   0  -5    8.20    0.80
 -10   0  -5    6.60    1.30
 -12   1   5   92.59    3.20
 -11   1   5   -0.10    0.80
 -10   1   5  137.39    4.70
   9  -1  -5  109.99    3.80
  -9   1   5  125.69    4.20
   8  -1  -5   20.80    2.10
  -8   1   5   22.50    1.80
  -8   1   5   20.80    2.20
   7  -1  -5   86.19    3.60
  -7   1   5   83.39    3.70
  -7   1   5   89.99    3.90
   6  -1  -5   73.69    3.00
  -6   1   5   71.19    3.20
  -6   1   5   74.09    3.30
   5  -1  -5  244.68    7.00
  -5   1   5  249.48    7.50
  -5   1   5  252.17    7.30
   4  -1  -5  304.37    7.90
   4  -1  -5  293.97    8.60
  -4   1   5  282.37    8.00
  -4   1   5  312.17    8.20
  -4   1   5  296.47    8.30
  -4   1   5  291.27    8.40
   3  -1  -5  344.37    8.60
   3  -1  -5  322.57    9.10
  -3   1   5  339.47    9.20
  -3   1   5  334.97    8.80
  -3   1   5  334.77    8.70
  -3   1   5  338.37    9.20
  -3   1   5  328.77    8.80
   2  -1  -5 1058.89   25.60
   2  -1  -5 1032.00   25.10
  -2   1   5 1093.69   25.30
  -2   1   5  971.10   25.10
  -2   1   5 1055.29   25.70
  -2   1   5 1030.00   24.90
  -2   1   5 1085.49   25.60
   1  -1  -5  407.06    9.90
   1  -1  -5  408.76   10.20
  -1   1   5  384.36    9.90
  -1   1   5  379.56    9.40
  -1   1   5  408.76   10.60
  -1   1   5  383.96   10.10
   0  -1  -5  101.29    3.10
   0  -1  -5  100.59    3.30
   0   1   5   97.89    3.00
   0   1   5  100.59    3.00
   0   1   5  104.89    3.60
  -1  -1  -5  971.40   23.70
  -1  -1  -5  949.11   23.80
   1   1   5 1005.50   24.10
   1   1   5  960.00   23.00
  -2  -1  -5   42.40    2.10
  -2  -1  -5   38.40    1.50
   2   1   5   41.30    2.10
   2   1   5   43.50    1.90
  -3  -1  -5   67.89    3.00
  -3  -1  -5   64.69    2.20
   3   1   5   64.09    2.70
   3   1   5   66.09    2.70
  -4  -1  -5   77.39    3.50
  -4  -1  -5   77.29    2.60
   4   1   5   74.99    3.20
  -5  -1  -5  155.78    5.80
  -5  -1  -5  161.68    4.80
   5   1   5  163.58    5.50
  -6  -1  -5  226.18    6.40
  -6  -1  -5  218.98    7.10
   6   1   5  220.68    7.20
  -7  -1  -5   41.30    2.70
  -7  -1  -5   39.60    2.10
  -7  -1  -5   39.30    1.80
  -8  -1  -5    1.90    0.70
  -8  -1  -5    3.40    1.30
  -9  -1  -5   15.90    1.20
  -9  -1  -5   13.30    1.70
 -13   2   5   33.90    1.50
 -12   2   5   25.10    1.70
  11  -2  -5   90.79    3.20
 -11   2   5   95.79    3.50
  10  -2  -5   80.29    3.00
 -10   2   5   78.59    3.30
   9  -2  -5    6.20    1.00
  -9   2   5    5.60    1.10
   8  -2  -5   11.30    1.60
  -8   2   5   13.70    1.90
   7  -2  -5   17.20    1.60
  -7   2   5   17.00    1.70
  -7   2   5   15.70    1.80
   6  -2  -5  557.14   14.40
  -6   2   5  558.24   14.80
  -6   2   5  547.15   14.80
   5  -2  -5    8.40    0.90
  -5   2   5    8.60    1.10
  -5   2   5    9.30    1.30
   4  -2  -5    7.20    0.80
   4  -2  -5    4.50    0.90
  -4   2   5    4.60    0.70
  -4   2   5    5.30    1.00
  -4   2   5    4.70    0.70
  -4   2   5    4.60    0.80
  -4   2   5    5.80    0.90
   3  -2  -5  315.97    8.00
   3  -2  -5  309.77    8.60
  -3   2   5  304.37    7.90
  -3   2   5  307.57    8.70
  -3   2   5  314.67    8.60
  -3   2   5  306.37    8.20
  -3   2   5  304.37    8.30
   2  -2  -5 1687.13   40.20
   2  -2  -5 1755.52   40.90
  -2   2   5 1754.02   40.80
  -2   2   5 1654.93   40.00
  -2   2   5 1680.53   41.10
  -2   2   5 1716.43   40.50
  -2   2   5 1646.34   40.50
   1  -2  -5   17.90    1.20
   1  -2  -5   15.80    0.90
  -1   2   5   17.30    1.00
  -1   2   5   15.50    1.00
  -1   2   5   17.50    1.40
  -1   2   5   15.50    0.60
   0  -2  -5    6.10    0.70
   0  -2  -5    5.40    0.80
   0   2   5    5.30    0.90
   0   2   5    7.50    1.00
   0   2   5    6.10    0.60
  -1  -2  -5   18.70    1.40
   1   2   5   17.90    1.10
   1   2   5   14.40    0.80
   1   2   5   15.80    1.40
  -2  -2  -5  170.98    4.70
  -2  -2  -5  174.38    5.70
   2   2   5  175.08    5.50
   2   2   5  166.98    5.10
  -3  -2  -5 1017.50   24.60
  -3  -2  -5 1003.50   25.70
   3   2   5 1023.10   25.40
   3   2   5 1025.20   25.20
  -4  -2  -5  628.64   17.00
  -4  -2  -5  622.74   15.60
   4   2   5  638.04   16.40
  -5  -2  -5    5.50    0.90
  -5  -2  -5    6.20    1.20
   5   2   5    6.90    1.20
  -6  -2  -5    0.40    0.90
  -6  -2  -5    0.30    0.50
  -6  -2  -5    2.60    0.80
   6   2   5    0.60    0.90
  -7  -2  -5   13.10    1.70
  -7  -2  -5   16.80    1.20
  -8  -2  -5    3.00    1.20
  -8  -2  -5    0.50    0.60
  -9  -2  -5   15.60    1.10
 -13   3   5    3.90    0.70
  12  -3  -5   81.39    2.90
 -12   3   5   89.89    3.20
  11  -3  -5   19.20    1.60
 -11   3   5   18.80    1.80
  10  -3  -5    0.40    0.80
 -10   3   5    0.30    0.80
   9  -3  -5   79.59    3.10
  -9   3   5   81.29    3.20
   8  -3  -5    5.30    1.10
   8  -3  -5    2.40    0.90
  -8   3   5    4.30    1.30
  -8   3   5    4.00    0.90
   7  -3  -5  615.44   16.20
  -7   3   5  611.44   16.70
  -7   3   5  643.24   16.70
   6  -3  -5    0.50    0.50
  -6   3   5    0.30    0.60
  -6   3   5    2.00    0.90
   5  -3  -5   39.90    1.80
  -5   3   5   42.30    2.40
  -5   3   5   43.60    2.10
   4  -3  -5 1178.98   28.10
  -4   3   5 1180.18   28.30
  -4   3   5 1174.58   28.70
  -4   3   5 1123.99   28.90
  -4   3   5 1196.18   29.10
   3  -3  -5   24.40    1.20
   3  -3  -5   26.60    1.70
  -3   3   5   26.80    1.60
  -3   3   5   26.10    1.40
  -3   3   5   26.70    1.50
  -3   3   5   25.00    1.20
  -3   3   5   25.80    1.80
   2  -3  -5   53.99    1.90
   2  -3  -5   54.99    2.40
  -2   3   5   59.39    2.70
  -2   3   5   55.69    2.30
  -2   3   5   54.89    2.10
  -2   3   5   57.89    1.80
  -2   3   5   52.79    2.20
   1  -3  -5  707.03   18.50
   1  -3  -5  732.23   17.80
  -1   3   5  753.52   18.10
  -1   3   5  763.62   18.90
  -1   3   5  717.13   17.70
   0  -3  -5   36.70    2.00
   0  -3  -5   34.00    1.60
   0   3   5   35.30    1.50
   0   3   5   38.30    2.10
  -1  -3  -5    5.60    1.00
  -1  -3  -5    6.30    0.70
   1   3   5    4.80    0.90
   1   3   5    5.90    0.60
   1   3   5    7.40    0.80
  -2  -3  -5   16.50    1.60
  -2  -3  -5   12.90    1.00
   2   3   5   13.30    1.40
   2   3   5   12.00    1.10
  -3  -3  -5  178.48    6.30
  -3  -3  -5  180.38    5.10
   3   3   5  179.78    5.60
   3   3   5  184.18    6.10
  -4  -3  -5  105.59    3.50
   4   3   5  110.19    4.10
  -5  -3  -5  404.56   11.40
  -5  -3  -5  405.56   12.10
   5   3   5  403.66   11.40
  -6  -3  -5   45.00    1.80
  -6  -3  -5   42.90    2.70
  -7  -3  -5   13.90    1.80
  -7  -3  -5   14.70    1.20
  -8  -3  -5    5.40    0.70
  13  -4  -5    3.20    0.60
 -13   4   5    3.50    0.70
  12  -4  -5   11.20    1.20
 -12   4   5   13.30    1.30
  11  -4  -5  384.86   10.30
 -11   4   5  393.66   10.50
  10  -4  -5   35.20    2.10
 -10   4   5   34.20    2.20
   9  -4  -5   22.10    1.70
  -9   4   5   18.30    1.70
   8  -4  -5   14.20    1.30
  -8   4   5   14.40    1.90
  -8   4   5   14.10    1.40
  -7   4   5  163.58    6.00
  -7   4   5  174.08    5.90
   6  -4  -5 1084.59   27.00
  -6   4   5 1113.29   27.80
  -6   4   5 1074.09   26.30
  -6   4   5 1100.09   27.20
   5  -4  -5   65.79    2.40
  -5   4   5   68.59    2.30
  -5   4   5   71.29    3.30
  -5   4   5   67.69    2.70
  -5   4   5   76.39    3.50
   4  -4  -5  227.78    6.20
  -4   4   5  237.78    7.10
  -4   4   5  240.38    6.40
  -4   4   5  235.78    6.80
  -4   4   5  235.28    7.10
  -4   4   5  224.18    6.20
   3  -4  -5    4.30    0.60
  -3   4   5    5.80    1.00
  -3   4   5    7.10    1.00
  -3   4   5    4.10    0.70
  -3   4   5    4.30    0.60
   2  -4  -5   78.89    2.50
  -2   4   5   82.29    2.50
  -2   4   5   84.19    2.90
  -2   4   5   81.79    3.00
  -2   4   5   84.89    3.50
  -2   4   5   84.89    3.00
   1  -4  -5  120.79    4.40
   1  -4  -5  123.19    3.60
   1  -4  -5  127.59    4.40
  -1   4   5  123.59    3.80
  -1   4   5  125.39    4.50
  -1   4   5  119.39    4.00
   0  -4  -5   18.10    1.50
   0   4   5   16.60    1.10
   0   4   5   17.30    1.60
   0   4   5   16.60    1.10
  -1  -4  -5  105.79    4.20
  -1  -4  -5  101.09    3.20
   1   4   5  102.79    4.00
   1   4   5   95.69    3.30
  -2  -4  -5  799.72   18.60
   2   4   5  670.83   19.60
   2   4   5  794.72   19.00
   3   4   5   38.00    2.10
   3   4   5   38.40    2.40
  -4  -4  -5   16.90    1.60
   4   4   5    9.40    1.30
  -5  -4  -5    7.80    0.80
  -5  -4  -5    7.00    1.40
   5   4   5    8.60    1.40
  -6  -4  -5   10.90    1.60
  -6  -4  -5   10.60    0.90
  -7  -4  -5  148.59    4.10
  -7  -4  -5  148.69    5.50
  13  -5  -5  158.58    4.50
 -13   5   5  164.58    4.60
  12  -5  -5   55.39    2.40
 -12   5   5   54.99    2.50
  11  -5  -5   19.50    1.80
 -11   5   5   19.80    1.80
  10  -5  -5    0.20    0.90
 -10   5   5    1.10    0.80
   9  -5  -5   48.00    2.30
  -9   5   5   48.90    2.40
  -9   5   5   47.70    2.50
   8  -5  -5   63.49    2.50
  -8   5   5   62.69    2.80
  -8   5   5   63.69    3.50
  -7   5   5    3.60    0.70
  -7   5   5    2.80    1.00
  -7   5   5    3.30    1.10
  -6   5   5   29.00    1.40
  -6   5   5   29.60    1.90
  -6   5   5   29.10    2.20
  -5   5   5  855.51   21.00
  -5   5   5  813.52   21.50
  -5   5   5  853.91   20.40
  -5   5   5  848.02   21.80
  -4   5   5  442.16   12.20
  -4   5   5  451.15   11.70
  -4   5   5  467.95   12.60
  -4   5   5  457.15   12.40
  -3   5   5   88.49    2.70
  -3   5   5   96.79    3.60
  -3   5   5   87.59    3.40
  -3   5   5   88.29    2.90
  -3   5   5   92.99    3.80
   2  -5  -5    7.70    1.10
  -2   5   5    6.90    1.00
  -2   5   5    5.30    1.10
  -2   5   5    7.00    0.70
  -2   5   5    6.80    1.00
  -1   5   5    6.30    1.20
  -1   5   5    5.00    0.80
   0   5   5 1142.29   28.60
   0   5   5 1119.29   27.40
   1   5   5   33.80    2.40
   2   5   5  390.36   11.50
   3   5   5   41.40    2.70
  -4  -5  -5  441.06   12.30
  -5  -5  -5  162.18    4.30
  -5  -5  -5  150.68    5.60
  -6  -5  -5   83.29    3.80
  -6  -5  -5   81.89    2.50
  13  -6  -5   16.70    1.20
 -13   6   5   15.00    1.20
  12  -6  -5   -0.60    0.80
 -12   6   5    1.00    0.80
  11  -6  -5  168.68    5.30
 -11   6   5  174.58    5.40
  10  -6  -5   33.80    2.10
 -10   6   5   26.90    2.00
   9  -6  -5   23.20    1.80
  -9   6   5   21.70    1.90
  -9   6   5   22.90    1.80
   8  -6  -5   15.10    1.40
  -8   6   5   12.60    1.80
  -8   6   5   12.80    1.30
  -8   6   5   15.40    1.60
  -7   6   5  880.71   23.00
  -7   6   5  913.01   22.50
  -6   6   5  139.99    5.50
  -6   6   5  141.69    4.90
  -6   6   5  144.79    4.20
  -5   6   5   31.90    2.60
  -5   6   5   32.80    2.30
  -5   6   5   33.10    1.90
  -5   6   5   31.90    1.50
  -4   6   5   19.90    1.10
  -4   6   5   19.50    1.70
  -4   6   5   20.10    1.80
  -4   6   5   19.50    1.30
  -4   6   5   19.90    1.60
   3  -6  -5  471.55   13.10
  -3   6   5  471.55   12.10
  -3   6   5  469.35   13.30
  -3   6   5  485.95   12.80
  -3   6   5  480.75   12.80
  -3   6   5  474.05   11.80
  -2   6   5  721.43   17.90
  -2   6   5  670.33   17.00
  -2   6   5  710.63   18.80
  -1   6   5   49.50    3.00
  -1   6   5   41.80    2.10
   0   6   5  129.29    5.20
   0   6   5  126.39    4.20
   1   6   5   42.30    2.80
   2   6   5  174.48    6.50
  -3  -6  -5   33.30    2.40
  -4  -6  -5   36.30    1.40
  -4  -6  -5   37.20    2.60
   4   6   5   35.60    1.80
  -5  -6  -5    8.70    1.60
  -5  -6  -5   10.10    1.00
  13  -7  -5  116.19    3.40
 -13   7   5  111.19    3.40
  12  -7  -5    2.10    0.90
 -12   7   5    3.40    0.90
  11  -7  -5   47.50    2.40
 -11   7   5   45.80    2.40
  10  -7  -5    0.20    0.90
 -10   7   5   -0.60    0.80
 -10   7   5    1.00    0.90
   9  -7  -5   35.10    2.10
  -9   7   5   39.50    2.40
  -9   7   5   37.20    2.10
   8  -7  -5    2.20    0.80
  -8   7   5    2.10    1.00
  -8   7   5    3.60    0.90
  -8   7   5    3.90    1.30
  -8   7   5    3.00    0.80
  -7   7   5  119.39    4.30
  -7   7   5  111.49    3.80
  -7   7   5  114.99    4.70
  -7   7   5  140.99    4.40
  -6   7   5    8.50    1.20
  -6   7   5   11.40    1.40
  -6   7   5   11.40    1.00
  -5   7   5  460.05   11.40
  -5   7   5  447.16   12.00
  -5   7   5  439.76   12.80
  -4   7   5   78.99    2.60
  -4   7   5   80.79    3.60
  -4   7   5   81.59    3.00
  -4   7   5   77.19    5.50
  -3   7   5  260.27    7.70
  -3   7   5  254.17    6.80
  -3   7   5  252.37    7.90
  -3   7   5  268.17    8.60
  -2   7   5  556.24   14.70
  -2   7   5  578.84   15.90
  -2   7   5  536.45   13.80
  -1   7   5  195.88    7.10
  -1   7   5  193.18    6.00
   0   7   5    8.50    1.60
  -1  -7  -5  106.29    4.20
  -2  -7  -5  153.98    5.60
  -3  -7  -5  163.38    5.90
   3   7   5  161.48    4.80
  -4  -7  -5  476.15   13.20
   4   7   5  464.65   12.00
  -5  -7  -5   82.59    3.80
  13  -8  -5  101.49    3.10
 -13   8   5  100.39    3.30
  12  -8  -5    2.60    0.90
 -12   8   5    4.20    0.90
  11  -8  -5   19.30    1.70
 -11   8   5   16.30    1.70
  10  -8  -5   21.20    1.90
 -10   8   5   20.40    1.90
 -10   8   5   22.20    1.80
   9  -8  -5   26.30    1.80
  -9   8   5   24.60    2.10
  -9   8   5   28.20    1.90
   8  -8  -5  261.57    7.20
  -8   8   5  252.17    7.30
  -8   8   5  278.77    7.90
  -8   8   5  257.87    7.60
   7  -8  -5   32.80    1.70
  -7   8   5   38.90    2.60
  -7   8   5   32.10    1.80
  -7   8   5   28.00    2.30
  -7   8   5   35.40    2.30
  -6   8   5    2.70    0.90
  -6   8   5    3.60    1.20
  -6   8   5    3.00    0.90
  -5   8   5    7.80    1.10
  -5   8   5    5.90    1.30
  -5   8   5    7.30    1.10
  -5   8   5    7.30    0.90
  -4   8   5   22.50    2.00
  -4   8   5   21.50    2.10
  -4   8   5   24.30    1.30
  -3   8   5   15.10    2.00
  -3   8   5   14.60    1.70
  -3   8   5   14.30    1.10
  -2   8   5   17.00    1.20
  -2   8   5   17.40    1.70
  -2   8   5   19.60    2.20
   1  -8  -5  212.18    6.80
  -1   8   5  208.78    6.60
  -1   8   5  211.58    8.10
   0  -8  -5  277.67    8.30
  -1  -8  -5  118.39    4.70
   1   8   5  115.69    3.70
  -2  -8  -5   72.69    3.70
   2   8   5   64.69    2.60
  -3  -8  -5   10.20    1.80
   3   8   5    9.80    1.10
  -4  -8  -5   22.40    2.30
   4   8   5   25.50    1.60
  13  -9  -5   67.29    2.30
  12  -9  -5   20.40    1.50
 -12   9   5   20.70    1.50
  11  -9  -5   34.70    2.00
 -11   9   5   33.00    2.00
  10  -9  -5   13.70    1.40
 -10   9   5   13.80    1.40
 -10   9   5   11.00    1.50
   9  -9  -5   75.29    3.00
  -9   9   5   81.79    3.60
  -9   9   5   73.19    3.10
   8  -9  -5    9.70    1.20
  -8   9   5    9.50    1.20
  -8   9   5    9.90    1.80
  -8   9   5   13.30    1.70
   7  -9  -5   84.69    3.40
  -7   9   5   90.59    3.80
  -7   9   5   92.39    4.20
  -6   9   5   17.00    1.80
  -6   9   5   14.50    1.70
  -6   9   5   14.30    1.90
  -6   9   5   16.40    1.30
  -5   9   5   90.79    3.60
  -5   9   5   93.29    4.20
  -5   9   5   99.09    3.30
  -4   9   5  457.05   11.70
  -4   9   5  466.65   12.90
  -4   9   5  448.56   12.00
   3  -9  -5   93.39    4.90
  -3   9   5  112.59    3.50
  -3   9   5  110.09    3.70
   2  -9  -5   58.69    3.50
  -2   9   5   67.29    2.60
   1  -9  -5   78.39    3.50
  -1   9   5   75.89    2.90
   0  -9  -5   23.10    2.10
   0   9   5   19.70    1.50
  -1  -9  -5   34.40    2.70
   1   9   5   35.50    1.90
  -2  -9  -5    2.00    1.20
   2   9   5    3.50    0.90
  -3  -9  -5  111.09    4.80
   3   9   5  107.89    3.60
   4   9   5  139.59    4.20
  12 -10  -5   18.90    1.30
 -12  10   5   16.40    1.30
  11 -10  -5   16.30    1.50
 -11  10   5   15.70    1.50
  10 -10  -5   14.80    1.40
 -10  10   5   14.80    1.60
 -10  10   5   16.10    1.60
   9 -10  -5    4.80    1.00
  -9  10   5    5.20    1.70
  -9  10   5    7.20    1.10
  -9  10   5    3.80    1.20
  -8  10   5   97.59    3.80
  -8  10   5  115.19    4.40
  -8  10   5  107.59    4.70
  -7  10   5   45.00    2.80
  -7  10   5   44.00    3.10
  -7  10   5   45.90    2.20
  -6  10   5   45.40    2.60
  -6  10   5   42.30    2.10
  -6  10   5   47.20    3.20
  -5  10   5    3.10    1.40
  -5  10   5    7.10    1.00
  -5  10   5    5.50    1.10
  -4  10   5   49.30    3.20
  -4  10   5   48.50    2.20
  -4  10   5   52.09    2.50
   3 -10  -5   26.50    3.10
  -3  10   5   31.20    1.80
  -3  10   5   29.10    1.90
   2 -10  -5   27.50    2.50
  -2  10   5   25.70    1.70
  -2  10   5   30.00    1.70
   1 -10  -5   58.59    3.20
  -1  10   5   51.49    2.40
   0 -10  -5    0.80    1.00
   0  10   5    0.10    0.70
  -1 -10  -5   41.00    3.00
   1  10   5   39.10    2.10
  -2 -10  -5   26.90    2.60
   2  10   5   27.70    1.80
  -3 -10  -5   65.09    4.20
   3  10   5   60.69    2.50
   4  10   5    1.00    0.70
  12 -11  -5    8.70    0.90
  11 -11  -5   30.50    1.70
 -11  11   5   26.20    2.30
 -11  11   5   26.50    1.70
  10 -11  -5   -0.40    0.70
 -10  11   5    0.90    0.90
 -10  11   5    0.60    0.70
 -10  11   5   -1.20    1.30
  -9  11   5    1.10    1.50
  -9  11   5    2.90    1.10
  -8  11   5    7.00    1.80
  -8  11   5    6.50    1.40
  -7  11   5  169.18    6.30
  -7  11   5  151.28    4.90
  -7  11   5  161.58    5.60
  -6  11   5    9.60    2.00
  -6  11   5    8.40    1.40
  -6  11   5    8.00    1.10
  -5  11   5   62.49    3.00
  -5  11   5   63.49    3.80
  -5  11   5   61.89    2.60
   4 -11  -5  568.34   16.60
  -4  11   5  560.04   14.70
   3 -11  -5   74.39    4.30
  -3  11   5   70.79    2.90
  -3  11   5   73.59    3.10
   2 -11  -5   69.19    3.70
  -2  11   5   71.49    2.90
  -2  11   5   71.79    3.90
   1 -11  -5   43.90    2.90
  -1  11   5   42.10    2.20
   0 -11  -5  154.98    5.90
   0  11   5  156.78    4.90
  -1 -11  -5  185.28    6.60
   1  11   5  181.68    5.50
  -2 -11  -5   91.39    4.10
   2  11   5   88.59    3.20
   3  11   5   29.30    1.70
   4  11   5  211.28    5.70
 -11  12   5    4.10    0.90
 -10  12   5  221.18    7.10
 -10  12   5  219.98    6.50
  -9  12   5   65.19    3.80
  -9  12   5   73.19    3.20
  -8  12   5    3.70    1.20
  -8  12   5    2.70    1.60
  -7  12   5   65.79    3.30
  -7  12   5   66.49    4.00
  -6  12   5    0.50    1.00
   5 -12  -5  251.77    9.40
  -5  12   5  236.98    7.30
   4 -12  -5  203.98    7.60
  -4  12   5  180.78    5.90
   3 -12  -5  273.87    8.70
  -3  12   5  265.77    7.70
  -3  12   5  258.87    7.50
   2 -12  -5    5.50    1.40
  -2  12   5    5.50    1.00
   1 -12  -5  180.58    6.50
  -1  12   5  178.58    5.50
   0 -12  -5    2.00    1.20
   0  12   5   -0.60    0.70
  -1 -12  -5   90.39    4.20
   1  12   5   97.99    3.30
   2  12   5    1.70    0.70
   3  12   5   16.30    1.20
   4  12   5    6.60    0.70
  10 -13  -5   14.90    2.50
 -10  13   5    7.30    1.10
  -9  13   5    0.60    0.90
   8 -13  -5  280.67    9.90
  -8  13   5  270.57    8.10
   7 -13  -5   43.50    4.80
  -7  13   5   25.30    2.20
   6 -13  -5    6.20    2.50
   5 -13  -5  638.14   17.70
  -5  13   5  619.24   16.30
   4 -13  -5  392.16   11.60
  -4  13   5  382.26   10.50
   3 -13  -5   13.60    2.00
  -3  13   5   12.10    1.30
  -3  13   5   12.20    1.40
   2 -13  -5  159.08    5.90
  -2  13   5  150.48    4.80
   1 -13  -5   13.80    1.90
  -1  13   5   12.70    1.30
   0 -13  -5  119.99    4.80
   0  13   5  115.99    3.80
   1  13   5   16.30    1.30
   2  13   5    9.20    0.90
   3  13   5   17.60    1.00
   9 -14  -5    7.80    2.30
  -9  14   5    3.20    0.90
   8 -14  -5   21.80    3.00
  -8  14   5   20.50    1.70
   7 -14  -5    4.80    2.20
  -7  14   5    5.30    1.20
   6 -14  -5  154.48    6.10
  -6  14   5  143.19    4.90
   5 -14  -5    2.80    1.60
  -5  14   5    1.70    0.90
   4 -14  -5   -1.70    1.00
  -4  14   5    1.10    0.80
   3 -14  -5   13.70    1.90
  -3  14   5   12.90    1.30
   2 -14  -5    5.70    1.40
  -2  14   5    4.40    0.90
   1 -14  -5   96.19    4.00
  -1  14   5   90.39    3.10
   0 -14  -5    7.80    1.30
   0  14   5    7.40    0.90
   1  14   5    3.80    0.70
   8 -15  -5  122.59    4.60
  -8  15   5  119.99    3.90
   7 -15  -5   -0.70    1.20
  -7  15   5    0.50    0.70
   6 -15  -5   42.20    2.70
  -6  15   5   45.00    2.20
   5 -15  -5  318.17    9.30
  -5  15   5  320.37    8.60
   4 -15  -5   33.70    2.40
  -4  15   5   34.70    1.90
   3 -15  -5    5.30    1.20
   2 -15  -5   14.30    1.60
  -2  15   5   12.00    1.10
  -1  15   5    0.30    0.50
   0  15   5   20.70    1.10
  -1  16  -6    0.40    0.70
  -2  16  -6  120.79    3.90
  -2  16  -6  117.39    4.20
  -3  16  -6   53.89    2.50
  -3  16  -6   53.99    2.40
  -4  16  -6    2.20    1.00
  -4  16  -6    0.50    1.10
  -5  16  -6   57.99    2.50
   1  15  -6   52.99    2.10
  -1 -15   6   52.79    2.20
   0  15  -6  134.29    4.50
   0  15  -6  134.99    4.40
   0  15  -6  134.89    4.10
  -1  15  -6    1.80    1.00
  -1  15  -6   -0.50    1.00
  -1  15  -6    1.70    0.80
  -2  15  -6   84.59    3.60
  -2  15  -6   90.19    3.60
  -3  15  -6   47.10    2.70
  -3  15  -6   40.10    2.50
  -4  15  -6  151.58    5.10
  -4  15  -6  154.08    5.10
  -5  15  -6   11.30    1.40
  -6  15  -6    6.10    1.10
  -7  15  -6   67.79    2.60
   3  14  -6   12.30    1.10
  -3 -14   6   11.50    1.10
   2  14  -6   55.99    2.60
   2  14  -6   59.09    2.40
  -2 -14   6   56.89    2.50
   1  14  -6   -1.00    0.90
   1  14  -6    2.10    1.10
   0  14  -6    8.80    1.50
   0  14  -6    8.80    1.20
   0  14  -6    8.30    1.40
  -1  14  -6  182.28    6.00
  -1  14  -6  179.68    6.10
  -1  14  -6  183.88    5.50
  -2  14  -6  452.95   12.10
  -2  14  -6  440.16   12.20
  -2  14  -6  436.16   13.00
  -3  14  -6    6.70    1.50
  -3  14  -6    9.90    1.50
  -4  14  -6   22.80    2.30
  -4  14  -6   22.60    2.00
  -5  14  -6   28.90    2.10
  -5  14  -6   27.70    2.30
  -6  14  -6  120.89    4.20
  -7  14  -6    1.00    0.80
  -8  14  -6    5.30    0.90
   4  13  -6    0.00    0.60
  -4 -13   6    0.50    0.60
   3  13  -6    2.80    1.00
   3  13  -6    4.20    0.90
  -3 -13   6    3.60    1.00
   2  13  -6   16.00    1.80
   2  13  -6   15.80    1.80
   2  13  -6   16.00    1.50
   1  13  -6   53.89    3.00
   1  13  -6   60.79    2.70
   1  13  -6   54.99    3.10
   0  13  -6    0.80    1.20
   0  13  -6    0.20    1.20
   0  13  -6    0.70    0.90
   0  13  -6    0.10    0.60
  -1  13  -6    2.10    0.70
  -1  13  -6    4.40    1.40
  -1  13  -6    2.90    1.00
  -1  13  -6    3.10    1.40
  -2  13  -6   31.70    2.00
  -2  13  -6   32.40    2.50
  -2  13  -6   28.20    1.60
  -2  13  -6   30.20    2.60
  -3  13  -6   12.30    1.20
  -3  13  -6   16.60    1.90
  -3  13  -6   12.30    1.60
  -4  13  -6   68.19    3.40
  -4  13  -6   67.59    3.00
  -4  13  -6   60.29    2.30
  -5  13  -6   14.30    1.60
  -5  13  -6   12.10    1.70
  -6  13  -6   46.30    2.50
  -7  13  -6    1.90    0.90
  -8  13  -6  242.18    7.80
  -8  13  -6  258.17    7.10
  -9  13  -6   13.00    1.30
  -9  13  -6   12.80    1.60
   5  12  -6   25.40    1.50
   5  12  -6   27.00    1.10
  -5 -12   6   25.00    1.50
   4  12  -6    9.60    1.10
   4  12  -6    8.10    1.20
  -4 -12   6   11.10    1.30
   3  12  -6   17.20    1.70
   3  12  -6   13.40    1.70
  -3 -12   6   15.50    1.70
   2  12  -6    2.20    1.00
   2  12  -6    2.00    0.80
   2  12  -6   -1.10    1.00
   2  12  -6    0.40    1.10
   1  12  -6    8.40    1.20
   1  12  -6    8.80    1.70
   1  12  -6    8.90    1.30
   1  12  -6    5.80    1.50
   0  12  -6   10.20    1.20
   0  12  -6    7.30    1.50
   0  12  -6   10.80    1.80
   0  12  -6    7.10    1.20
  -1  12  -6   73.19    3.70
  -1  12  -6   70.59    2.70
  -1  12  -6   75.59    3.50
  -1  12  -6   70.99    3.00
  -2  12  -6   64.39    2.40
  -2  12  -6   66.09    2.80
  -2  12  -6   65.59    3.10
  -2  12  -6   64.59    3.50
  -3  12  -6   68.69    3.40
  -3  12  -6   62.19    2.30
  -3  12  -6   58.69    2.90
  -4  12  -6   35.80    2.30
  -4  12  -6   30.00    2.50
  -5  12  -6   38.50    2.40
  -5  12  -6   39.20    2.60
  -6  12  -6   33.40    2.20
  -7  12  -6   31.70    2.70
  -7  12  -6   28.60    2.10
  -8  12  -6    0.30    0.80
  -8  12  -6    0.40    1.20
  -9  12  -6    1.10    1.20
  -9  12  -6    1.60    0.80
 -10  12  -6    8.00    1.00
 -10  12  -6    7.60    1.30
   6  11  -6    6.90    0.60
  -6 -11   6    5.90    0.90
   5  11  -6   18.10    1.50
  -5 -11   6   24.10    1.80
   4  11  -6  145.29    4.60
   4  11  -6  141.99    4.90
  -4 -11   6  134.69    4.80
   3  11  -6   16.00    1.80
   3  11  -6   14.20    1.50
   3  11  -6   13.30    1.70
   3  11  -6   13.10    1.50
   2  11  -6   11.60    1.70
   2  11  -6   13.50    1.80
   2  11  -6   14.80    1.50
   2  11  -6   15.60    1.50
   1  11  -6  134.19    5.10
   1  11  -6  155.48    5.50
   1  11  -6  150.18    4.80
   1  11  -6  140.19    4.60
   0  11  -6  126.59    4.10
   0  11  -6  122.19    4.30
   0  11  -6  129.29    4.80
   0  11  -6  134.19    5.00
  -1  11  -6   54.49    2.60
  -1  11  -6   54.59    3.10
  -1  11  -6   54.99    2.80
  -1  11  -6   53.09    2.20
  -2  11  -6   64.89    2.70
  -2  11  -6   63.09    2.20
  -2  11  -6   62.29    2.90
  -2  11  -6   68.39    3.40
  -3  11  -6   10.60    1.60
  -3  11  -6    9.40    1.30
  -4  11  -6   12.80    1.60
  -4  11  -6   11.10    1.40
  -5  11  -6   10.90    1.40
  -6  11  -6   41.20    2.90
  -6  11  -6   43.70    2.50
  -7  11  -6   65.79    3.70
  -7  11  -6   63.29    3.00
  -8  11  -6  289.07    7.80
  -8  11  -6  300.47    8.40
  -8  11  -6  304.47    9.50
  -9  11  -6    9.20    1.70
  -9  11  -6   12.50    1.40
 -10  11  -6   11.10    1.60
 -10  11  -6   12.90    1.20
  -7 -10   6  139.49    4.20
   6  10  -6   17.20    1.10
   6  10  -6   16.60    1.30
  -6 -10   6   17.20    1.60
   5  10  -6    0.70    0.80
  -5 -10   6    0.90    0.90
   4  10  -6    4.60    1.10
   4  10  -6    5.10    1.40
   4  10  -6    4.50    1.00
  -4 -10   6    3.70    1.20
   3  10  -6  396.26   10.60
   3  10  -6  391.76   10.70
   3  10  -6  389.16   11.20
   3  10  -6  385.86   11.10
   2  10  -6   12.80    1.40
   2  10  -6   14.70    1.80
   2  10  -6   15.20    1.50
   2  10  -6   14.10    1.80
   1  10  -6    0.40    1.00
   1  10  -6    0.50    1.10
   1  10  -6    0.70    0.60
   1  10  -6    1.70    0.90
   0  10  -6   20.40    2.00
   0  10  -6   20.00    1.30
   0  10  -6   21.40    1.60
   0  10  -6   20.60    2.20
  -1  10  -6  277.97    8.10
  -1  10  -6  290.27    8.60
  -1  10  -6  287.57    7.40
  -1  10  -6  289.77    7.90
   1 -10   6  283.17    9.10
  -2  10  -6   69.09    3.30
  -2  10  -6   67.69    2.80
  -2  10  -6   66.89    2.80
   2 -10   6   67.99    3.60
  -3  10  -6  198.68    6.20
  -3  10  -6  186.28    5.80
   3 -10   6  190.58    6.80
  -4  10  -6   33.00    2.00
  -4  10  -6   37.20    2.30
  -5  10  -6  186.68    8.10
  -5  10  -6  197.68    6.00
  -6  10  -6   20.50    2.30
  -6  10  -6   25.10    1.90
  -7  10  -6    8.00    1.70
  -7  10  -6    8.90    1.40
  -8  10  -6    3.80    1.10
  -8  10  -6    4.90    1.60
  -8  10  -6    3.90    0.70
  -9  10  -6  167.18    5.20
  -9  10  -6  170.48    5.40
  -9  10  -6  176.38    6.40
 -10  10  -6   36.70    2.00
 -10  10  -6   36.80    2.00
 -10  10  -6   35.80    2.70
 -11  10  -6   28.10    1.50
 -11  10  -6   27.40    2.00
  -8  -9   6   13.80    1.20
   7   9  -6   61.99    1.90
  -7  -9   6   65.09    2.60
   6   9  -6   53.59    2.40
  -6  -9   6   54.09    2.60
   5   9  -6   25.00    2.20
   5   9  -6   24.50    1.90
  -5  -9   6   28.20    2.20
   4   9  -6   75.19    3.60
   4   9  -6   76.69    3.20
   4   9  -6   72.19    3.00
  -4  -9   6   73.39    3.40
   3   9  -6   51.29    2.50
   3   9  -6   55.79    3.00
   3   9  -6   55.99    2.60
   3   9  -6   51.19    2.90
   2   9  -6  424.66   12.00
   2   9  -6  441.36   11.50
   2   9  -6  443.86   12.20
   2   9  -6  444.76   11.50
   1   9  -6  191.38    5.60
   1   9  -6  195.18    6.30
   1   9  -6  187.58    5.40
   1   9  -6  186.68    6.00
  -1  -9   6  191.08    6.80
   0   9  -6   19.50    1.90
   0   9  -6   18.90    1.10
   0   9  -6   17.60    1.60
   0  -9   6   19.90    2.10
  -1   9  -6  136.09    4.80
   1  -9   6  139.89    5.30
  -2   9  -6    0.80    0.90
   2  -9   6    1.40    0.90
  -3   9  -6  238.68    7.10
   3  -9   6  238.78    7.70
  -4   9  -6   14.30    1.90
  -4   9  -6   15.30    1.40
  -5   9  -6   51.79    2.40
  -5   9  -6   47.20    2.80
  -5   9  -6   44.30    3.00
  -6   9  -6   51.39    3.20
  -6   9  -6   47.50    2.50
  -7   9  -6  450.55   13.00
  -7   9  -6  431.56   11.80
  -8   9  -6  118.29    4.20
  -8   9  -6  124.09    5.40
  -8   9  -6  114.39    3.70
  -8   9  -6  122.59    4.30
  -9   9  -6   13.80    1.20
  -9   9  -6   13.90    1.50
  -9   9  -6   14.00    2.10
  -9   9  -6   14.90    1.50
 -10   9  -6   89.39    3.30
 -10   9  -6   87.19    4.10
 -10   9  -6   83.99    3.20
 -11   9  -6  175.78    5.00
 -11   9  -6  168.08    5.60
  -9  -8   6    1.20    0.60
  -8  -8   6  117.99    3.80
   7   8  -6  343.47    8.50
  -7  -8   6  346.07    9.40
  -6  -8   6    7.40    1.20
   5   8  -6   28.70    2.30
   5   8  -6   31.50    2.10
   5   8  -6   30.90    2.00
  -5  -8   6   30.10    2.30
   4   8  -6  438.26   12.50
   4   8  -6  465.95   12.20
   4   8  -6  445.26   11.80
   4   8  -6  454.35   12.50
   3   8  -6  200.28    6.00
   3   8  -6  200.48    6.50
   3   8  -6  220.18    6.20
   3   8  -6  211.18    6.60
  -3  -8   6  190.98    7.30
   2   8  -6    3.30    1.10
   2   8  -6    4.80    0.90
   2   8  -6    4.00    0.80
  -2  -8   6    4.40    1.30
   1   8  -6   18.20    1.20
   1   8  -6   17.40    1.70
  -1  -8   6   19.10    2.00
   0   8  -6   36.50    2.90
   0   8  -6   37.20    1.40
   0   8  -6   35.20    2.60
   0   8  -6   33.60    2.10
   0  -8   6   34.80    2.40
   0  -8   6   39.30    3.40
   0  -8   6   35.10    1.90
  -1   8  -6   22.40    1.50
  -1   8  -6   22.40    2.30
   1  -8   6   22.70    1.90
   1  -8   6   22.10    1.30
   1  -8   6   21.60    2.10
  -2   8  -6    6.00    0.80
   2  -8   6    7.20    1.40
   2  -8   6    7.70    1.30
  -3   8  -6  112.49    4.40
  -3   8  -6  112.09    4.70
   3  -8   6  116.89    4.60
  -4   8  -6  188.68    6.30
  -5   8  -6  398.46   11.40
  -6   8  -6    0.70    1.00
  -6   8  -6    0.40    0.70
  -7   8  -6    7.50    1.70
  -7   8  -6    7.50    1.20
  -7   8  -6    9.80    1.00
  -7   8  -6    6.20    1.20
  -8   8  -6    1.80    0.90
  -8   8  -6    3.60    0.70
  -8   8  -6    2.10    1.10
  -8   8  -6    1.60    1.40
  -9   8  -6   18.90    2.40
  -9   8  -6   16.00    1.60
  -9   8  -6   17.50    1.40
 -10   8  -6  217.28    6.40
 -10   8  -6  221.78    7.40
 -10   8  -6  215.68    6.30
 -11   8  -6    4.80    1.20
 -11   8  -6    4.30    0.90
  -9  -7   6    1.10    0.70
  -8  -7   6   30.80    2.00
   7   7  -6   18.30    1.20
  -7  -7   6   17.80    1.70
   6   7  -6  187.38    7.10
  -6  -7   6  181.28    5.90
   5   7  -6   65.99    3.20
   5   7  -6   63.79    2.70
   5   7  -6   64.49    2.90
  -5  -7   6   60.99    3.00
   4   7  -6  156.78    5.50
   4   7  -6  156.98    4.90
   4   7  -6  165.78    5.20
   4   7  -6  156.38    5.40
  -4  -7   6  154.48    6.30
   3   7  -6    6.80    1.00
   3   7  -6    8.00    1.40
  -3  -7   6    5.80    1.30
   2   7  -6  615.34   16.40
   2   7  -6  619.84   14.90
   2   7  -6  601.04   17.50
  -2  -7   6  595.74   16.30
  -2  -7   6  565.04   15.70
  -2  -7   6  587.04   16.60
   1   7  -6    7.90    0.80
   1   7  -6    6.30    1.10
   1   7  -6    7.10    1.50
  -1  -7   6    8.30    1.50
  -1  -7   6    9.80    1.10
  -1  -7   6    7.40    1.30
   0   7  -6  184.38    5.70
   0   7  -6  181.28    6.70
   0  -7   6  190.78    6.50
   0  -7   6  179.48    5.30
   0  -7   6  190.18    6.00
  -1   7  -6   15.30    1.80
  -1   7  -6   14.00    1.10
   1  -7   6   12.80    1.70
   1  -7   6   15.10    1.50
  -2   7  -6  268.17    8.70
   2  -7   6  275.37    8.40
   2  -7   6  277.97    8.00
  -3   7  -6  285.47    8.10
  -3   7  -6  270.17    8.30
   3  -7   6  269.47    8.20
  -4   7  -6    7.10    1.20
  -5   7  -6  152.88    5.40
  -6   7  -6   63.59    3.40
  -6   7  -6   65.49    2.80
  -7   7  -6  544.25   13.60
  -7   7  -6  537.55   14.20
  -7   7  -6  556.34   15.50
  -8   7  -6  202.48    7.40
  -8   7  -6  204.08    6.30
  -8   7  -6  200.48    6.40
  -8   7  -6  205.28    5.80
  -9   7  -6   47.20    2.20
  -9   7  -6   45.40    2.40
  -9   7  -6   42.90    2.60
  -9   7  -6   46.20    3.30
 -10   7  -6    8.40    1.30
 -10   7  -6    6.80    1.60
 -11   7  -6  102.29    4.10
 -11   7  -6   98.49    3.40
 -10  -6   6   28.50    1.50
  -9  -6   6    3.50    0.90
   8   6  -6  318.27    7.90
  -8  -6   6  325.57    8.90
   7   6  -6    3.40    0.70
  -7  -6   6    2.60    1.00
   6   6  -6   30.50    2.20
  -6  -6   6   28.20    2.10
   5   6  -6  139.79    4.90
   5   6  -6  147.89    4.70
   5   6  -6  138.59    5.40
   5   6  -6  136.39    4.40
  -5  -6   6  138.39    5.80
  -5  -6   6  135.89    4.80
   4   6  -6  169.78    5.90
   4   6  -6  171.08    5.60
   4   6  -6  171.68    5.30
   4   6  -6  164.38    6.60
  -4  -6   6  165.28    6.40
   3   6  -6   18.30    1.60
   3   6  -6   16.50    1.30
   3   6  -6   15.40    1.70
   3   6  -6   16.00    2.10
  -3  -6   6   17.40    1.90
  -3  -6   6   15.10    1.50
  -3  -6   6   18.20    2.00
   2   6  -6    4.10    0.90
   2   6  -6    1.70    1.00
   2   6  -6    1.80    0.50
   2   6  -6    1.80    0.80
  -2  -6   6    2.40    1.00
  -2  -6   6    1.30    0.80
  -2  -6   6    2.10    0.60
   1   6  -6    5.30    1.20
   1   6  -6    4.90    0.90
   1   6  -6    5.10    0.90
   1   6  -6    5.10    0.60
  -1  -6   6    5.20    0.80
  -1  -6   6    4.30    1.10
  -1  -6   6    5.30    1.00
   0   6  -6  235.98    7.70
   0   6  -6  238.08    6.60
   0   6  -6  229.38    6.70
   0  -6   6  233.58    6.20
   0  -6   6  239.18    7.50
   0  -6   6  240.68    7.00
  -1   6  -6   22.20    1.50
  -1   6  -6   21.20    1.90
  -1   6  -6   21.80    1.10
   1  -6   6   21.40    1.50
   1  -6   6   23.50    1.80
  -2   6  -6    3.60    0.80
  -2   6  -6    2.20    0.80
  -2   6  -6    3.20    0.80
   2  -6   6    3.40    0.90
  -3   6  -6    1.60    0.70
   3  -6   6    0.80    0.60
  -4   6  -6   41.50    2.20
   4  -6   6   45.50    2.40
  -5   6  -6  236.88    6.50
   5  -6   6  231.38    7.30
  -6   6  -6   30.00    2.40
  -6   6  -6   30.00    2.40
  -7   6  -6   24.60    1.40
  -7   6  -6   30.30    2.10
  -7   6  -6   24.10    2.50
  -8   6  -6  297.77    8.50
  -8   6  -6  297.87    9.60
  -8   6  -6  303.47    8.10
  -9   6  -6   74.99    4.10
  -9   6  -6   79.49    2.90
  -9   6  -6   71.99    3.30
 -10   6  -6  171.68    5.40
 -10   6  -6  169.68    6.20
 -11   6  -6   38.70    2.00
 -11   6  -6   36.70    2.40
 -10  -5   6    1.70    0.70
  -9  -5   6    0.90    0.90
   8   5  -6   54.09    1.80
  -8  -5   6   54.69    2.70
   7   5  -6    1.70    0.60
  -7  -5   6    0.00    0.80
   6   5  -6  226.88    7.00
  -6  -5   6  233.88    6.90
   5   5  -6   80.99    3.50
   5   5  -6   85.79    3.30
   5   5  -6   83.79    3.80
  -5  -5   6   80.69    4.20
   4   5  -6  452.05   11.60
   4   5  -6  425.46   12.90
   4   5  -6  460.85   12.30
   4   5  -6  429.86   13.30
  -4  -5   6  446.46   12.80
  -4  -5   6  453.25   12.90
  -4  -5   6  437.76   12.40
   3   5  -6   45.90    2.30
   3   5  -6   44.90    2.60
   3   5  -6   44.90    2.90
   3   5  -6   45.90    1.90
  -3  -5   6   43.90    2.30
  -3  -5   6   43.70    2.70
  -3  -5   6   41.60    2.60
   2   5  -6  272.07    7.10
   2   5  -6  273.67    7.80
   2   5  -6  279.77    8.10
   2   5  -6  265.17    8.70
  -2  -5   6  287.07    8.20
  -2  -5   6  274.67    7.60
  -2  -5   6  271.37    8.40
   1   5  -6    7.40    0.50
   1   5  -6    8.40    1.40
   1   5  -6    7.30    1.00
   1   5  -6    8.20    1.00
  -1  -5   6   10.60    1.40
  -1  -5   6    7.60    0.80
  -1  -5   6    8.80    1.10
   0   5  -6  513.35   13.30
   0   5  -6  523.05   13.10
   0   5  -6  530.45   14.30
   0  -5   6  525.85   13.90
   0  -5   6  520.05   13.50
   0  -5   6  521.45   12.70
  -1   5  -6  265.37    7.30
  -1   5  -6  263.57    8.00
  -1   5  -6  266.67    6.60
   1  -5   6  258.57    7.60
   1  -5   6  256.57    7.20
  -2   5  -6  251.97    7.00
  -2   5  -6  253.67    7.30
   2  -5   6  251.07    7.50
   2  -5   6  251.47    7.20
  -3   5  -6  707.13   17.80
  -3   5  -6  684.13   17.20
   3  -5   6  671.23   17.60
  -4   5  -6   41.00    1.70
   4  -5   6   38.70    2.20
  -5   5  -6  219.28    6.30
   5  -5   6  220.08    6.90
  -6   5  -6   32.00    2.40
  -6   5  -6   33.00    1.40
   6  -5   6   33.00    2.30
  -7   5  -6  251.67    6.80
  -7   5  -6  246.98    8.10
   7  -5   6  241.18    7.90
  -8   5  -6   34.70    2.80
  -8   5  -6   31.40    1.80
  -8   5  -6   35.00    2.20
  -9   5  -6    1.10    1.30
  -9   5  -6    0.80    1.10
  -9   5  -6    0.60    0.70
 -10   5  -6  129.69    4.30
 -10   5  -6  115.39    4.20
 -10   5  -6  126.29    5.10
 -11   5  -6   27.20    1.80
 -11   5  -6   30.20    2.20
 -11  -4   6  109.29    3.30
 -10  -4   6    1.10    0.70
  -9  -4   6   49.10    2.50
   8   4  -6    5.20    0.70
  -8  -4   6    6.20    1.20
   7   4  -6    3.40    0.70
  -7  -4   6    4.20    1.00
   6   4  -6   60.89    3.30
   6   4  -6   58.49    2.70
  -6  -4   6   56.39    3.40
  -6  -4   6   55.19    2.70
   5   4  -6  268.87    7.50
   5   4  -6  271.27    8.20
  -5  -4   6  262.57    8.60
  -5  -4   6  254.17    8.40
   4   4  -6  109.59    4.80
   4   4  -6  118.29    3.80
   4   4  -6  121.59    4.30
   4   4  -6  114.39    4.70
  -4  -4   6  113.49    4.60
  -4  -4   6  113.69    4.70
  -4  -4   6  109.59    4.20
   3   4  -6   20.90    1.70
   3   4  -6   18.00    1.20
   3   4  -6   20.40    1.50
   3   4  -6   19.50    1.90
  -3  -4   6   20.70    1.80
  -3  -4   6   20.00    1.40
  -3  -4   6   18.90    1.70
   2   4  -6  526.25   14.80
   2   4  -6  544.95   14.00
   2   4  -6  558.34   14.30
   2   4  -6  532.95   13.30
  -2  -4   6  554.94   14.30
  -2  -4   6  542.05   14.60
  -2  -4   6  557.54   13.80
   1   4  -6  117.99    3.80
   1   4  -6  118.59    4.50
   1   4  -6  117.99    3.80
  -1  -4   6  118.09    3.90
  -1  -4   6  119.59    4.30
  -1  -4   6  123.39    3.50
   0   4  -6  147.69    4.10
   0   4  -6  141.99    5.10
   0   4  -6  142.69    4.40
   0  -4   6  148.19    4.80
   0  -4   6  147.79    4.40
  -1   4  -6   31.00    2.00
  -1   4  -6   33.40    1.70
  -1   4  -6   33.10    1.10
  -1   4  -6   30.20    1.10
   1  -4   6   33.00    2.00
   1  -4   6   32.30    1.50
   1  -4   6   33.90    1.80
  -2   4  -6 1137.99   30.60
   2  -4   6 1312.67   31.00
   2  -4   6 1323.57   30.50
  -3   4  -6   30.70    2.00
  -3   4  -6   31.10    1.30
   3  -4   6   32.50    1.90
  -4   4  -6  441.96   11.40
   4  -4   6  446.56   12.00
  -5   4  -6  220.68    6.30
  -5   4  -6  245.98    6.90
   5  -4   6  234.28    7.30
  -6   4  -6   47.20    1.80
  -6   4  -6   48.10    2.90
   6  -4   6   46.50    2.80
  -7   4  -6   29.80    2.60
  -7   4  -6   28.90    2.00
  -7   4  -6   33.70    1.70
   7  -4   6   31.60    2.50
  -8   4  -6  248.98    7.30
  -8   4  -6  253.77    7.10
  -8   4  -6  246.48    8.20
  -9   4  -6   21.70    1.70
  -9   4  -6   21.40    2.50
  -9   4  -6   16.70    1.70
 -10   4  -6   85.69    3.30
 -10   4  -6   82.19    3.90
 -11   4  -6    3.00    0.80
 -11   4  -6    2.10    1.00
 -11  -3   6   29.70    1.60
 -10  -3   6   95.79    3.50
  -9  -3   6    5.60    1.10
   8   3  -6   14.00    1.00
  -8  -3   6   16.80    1.70
   7   3  -6    1.20    0.90
   7   3  -6    1.60    0.50
   7   3  -6    1.00    1.20
  -7  -3   6    1.80    0.80
  -7  -3   6    1.80    1.40
   6   3  -6    8.50    1.20
   6   3  -6    8.50    1.40
  -6  -3   6    9.30    1.60
   5   3  -6    6.30    1.60
   5   3  -6    7.60    1.00
   5   3  -6    7.70    1.20
   5   3  -6    6.70    1.30
  -5  -3   6    7.50    1.20
  -5  -3   6    6.20    1.30
  -5  -3   6    6.50    1.30
   4   3  -6   42.40    2.70
   4   3  -6   44.70    2.70
   4   3  -6   48.70    2.10
   4   3  -6   47.00    2.30
  -4  -3   6   46.40    2.30
  -4  -3   6   44.20    2.60
  -4  -3   6   45.80    2.70
   3   3  -6  423.76   11.70
   3   3  -6  415.66   12.00
   3   3  -6  426.86   10.80
   3   3  -6  428.86   11.30
  -3  -3   6  423.76   11.80
  -3  -3   6  435.16   11.70
  -3  -3   6  422.86   11.20
   2   3  -6  987.60   24.60
   2   3  -6  984.20   25.20
   2   3  -6 1012.50   24.40
   2   3  -6  987.10   23.80
  -2  -3   6 1001.70   24.60
  -2  -3   6  997.70   24.20
  -2  -3   6 1008.90   25.00
   1   3  -6   95.99    3.30
   1   3  -6   96.99    3.80
   1   3  -6  100.19    3.20
  -1  -3   6  101.29    3.70
  -1  -3   6  102.29    3.00
  -1  -3   6   98.99    3.30
   0   3  -6  135.09    3.80
   0   3  -6  128.39    4.00
   0  -3   6  136.69    4.30
   0  -3   6  132.39    4.50
   0  -3   6  130.89    3.90
  -1   3  -6  454.85   12.00
  -1   3  -6  506.75   12.10
  -1   3  -6  511.75   12.80
   1  -3   6  505.75   13.10
   1  -3   6  505.35   12.40
   1  -3   6  510.65   12.70
  -2   3  -6  388.76    9.40
  -2   3  -6  379.66   10.20
   2  -3   6  378.06   10.30
   2  -3   6  370.66    9.70
  -3   3  -6   49.40    2.00
   3  -3   6   44.00    2.20
   3  -3   6   48.30    2.30
  -4   3  -6   27.30    1.60
   4  -3   6   27.60    1.90
  -5   3  -6  437.56   11.70
  -5   3  -6  424.76   10.70
   5  -3   6  435.86   12.00
  -6   3  -6  220.98    6.00
  -6   3  -6  213.28    7.10
   6  -3   6  220.68    7.20
  -7   3  -6   69.09    2.70
  -7   3  -6   62.29    2.80
  -7   3  -6   73.99    3.60
   7  -3   6   64.29    3.40
  -8   3  -6   74.59    3.90
  -8   3  -6   78.09    3.30
  -8   3  -6   80.19    3.10
  -9   3  -6    2.70    1.30
  -9   3  -6    1.50    0.80
  -9   3  -6    1.30    1.00
 -10   3  -6   42.40    1.80
 -10   3  -6   45.10    2.90
 -10   3  -6   47.00    2.40
 -11   3  -6   44.00    2.40
 -11   3  -6   40.60    1.90
 -12  -2   6    0.90    0.50
 -11  -2   6    9.00    1.10
 -10  -2   6   73.99    3.00
  -9  -2   6   19.70    1.80
   8   2  -6   86.59    2.60
  -8  -2   6   89.39    3.50
   7   2  -6  495.65   13.10
   7   2  -6  498.55   14.00
   7   2  -6  504.45   12.20
  -7  -2   6  508.95   14.20
  -7  -2   6  488.55   13.20
   6   2  -6  147.29    5.20
  -6  -2   6  147.59    5.40
  -6  -2   6  142.29    5.50
   5   2  -6   84.09    3.40
   5   2  -6   85.29    3.90
   5   2  -6   84.69    2.90
  -5  -2   6   74.09    3.30
  -5  -2   6   82.89    3.70
  -5  -2   6   79.89    3.60
   4   2  -6  975.70   23.50
   4   2  -6  989.90   24.00
   4   2  -6  949.01   24.60
   4   2  -6  968.20   24.70
  -4  -2   6  930.61   23.90
  -4  -2   6  947.61   24.50
  -4  -2   6  970.00   24.50
  -4  -2   6  986.10   24.60
   3   2  -6  663.03   16.50
   3   2  -6  644.04   17.30
   3   2  -6  678.33   17.00
   3   2  -6  660.13   16.10
  -3  -2   6  620.94   16.80
  -3  -2   6  652.53   17.10
  -3  -2   6  653.23   16.40
  -3  -2   6  674.13   17.20
   2   2  -6  193.28    5.50
   2   2  -6  191.88    5.60
   2   2  -6  186.98    5.00
  -2  -2   6  192.78    5.30
  -2  -2   6  185.18    6.00
  -2  -2   6  189.18    5.60
  -2  -2   6  194.08    6.00
   1   2  -6  262.07    7.10
   1   2  -6  276.07    7.10
  -1  -2   6  270.87    7.50
  -1  -2   6  260.67    7.60
  -1  -2   6  259.57    7.00
   0   2  -6  194.18    5.50
   0   2  -6  200.88    5.20
   0   2  -6  184.38    5.30
   0  -2   6  205.78    5.70
   0  -2   6  189.28    5.10
   0  -2   6  194.08    5.90
  -1   2  -6  633.64   15.00
  -1   2  -6  623.34   15.50
  -1   2  -6  587.14   14.90
   1  -2   6  612.14   15.30
   1  -2   6  624.34   15.80
  -2   2  -6 1498.55   34.70
  -2   2  -6 1478.95   35.30
   2  -2   6 1452.65   35.30
   2  -2   6 1378.36   34.70
  -3   2  -6  429.26   10.90
   3  -2   6  403.26   11.00
   3  -2   6  399.26   10.90
  -4   2  -6   38.80    2.10
  -4   2  -6   36.90    1.40
   4  -2   6   40.30    2.20
  -5   2  -6    7.30    0.80
  -5   2  -6    8.20    1.20
   5  -2   6    6.70    1.20
  -6   2  -6   20.70    2.00
  -6   2  -6   17.10    1.30
   6  -2   6   19.10    1.90
  -7   2  -6   11.50    1.30
  -7   2  -6   11.50    1.70
  -7   2  -6   10.10    1.30
   7  -2   6   12.60    2.50
  -8   2  -6  173.98    5.60
  -8   2  -6  186.18    6.60
  -8   2  -6  187.68    5.60
  -9   2  -6   31.50    2.10
  -9   2  -6   32.20    2.00
  -9   2  -6   38.40    2.90
  -9   2  -6   33.10    1.70
 -10   2  -6  209.28    6.80
 -10   2  -6  211.78    6.10
 -10   2  -6  214.88    5.60
 -11   2  -6  127.29    4.30
 -11   2  -6  125.69    3.70
 -12  -1   6    8.50    0.90
 -11  -1   6   27.60    1.80
 -10  -1   6    7.80    1.20
  -9  -1   6    8.90    1.30
   8   1  -6    1.70    0.50
  -8  -1   6    0.30    0.80
   7   1  -6  161.98    5.80
  -7  -1   6  160.38    5.90
  -7  -1   6  156.08    5.00
   6   1  -6   36.10    2.20
  -6  -1   6   34.40    2.40
  -6  -1   6   35.20    2.30
   5   1  -6  694.23   18.30
   5   1  -6  647.34   16.70
   5   1  -6  682.93   17.30
  -5  -1   6  686.03   17.80
  -5  -1   6  648.34   17.30
  -5  -1   6  683.33   17.60
   4   1  -6  141.59    4.30
   4   1  -6  146.79    5.10
   4   1  -6  149.29    4.70
  -4  -1   6  145.29    5.00
  -4  -1   6  144.29    4.90
  -4  -1   6  147.79    4.70
  -4  -1   6  145.39    5.00
   3   1  -6   10.90    1.00
   3   1  -6    9.80    1.10
   3   1  -6   10.40    0.90
  -3  -1   6    9.40    1.10
  -3  -1   6    9.50    1.20
  -3  -1   6    8.80    1.20
  -3  -1   6   11.00    0.90
   2   1  -6  135.69    4.30
   2   1  -6  131.69    4.00
  -2  -1   6  127.09    4.10
  -2  -1   6  140.89    4.60
  -2  -1   6  135.99    4.00
  -2  -1   6  136.69    4.50
   1   1  -6 2628.24   61.69
   1   1  -6 2474.75   62.69
  -1  -1   6 2530.55   61.39
  -1  -1   6 2700.83   62.29
  -1  -1   6 2700.03   62.09
   0   1  -6   27.70    1.30
   0   1  -6   28.70    1.50
   0  -1   6   30.70    1.50
   0  -1   6   31.20    1.80
  -1   1  -6  211.78    6.10
  -1   1  -6  220.28    5.90
   1  -1   6  224.38    6.50
   1  -1   6  213.98    5.90
  -2   1  -6   27.40    1.70
  -2   1  -6   30.60    1.60
   2  -1   6   28.30    1.70
  -3   1  -6  637.84   16.10
  -3   1  -6  610.94   15.00
   3  -1   6  603.34   15.90
   3  -1   6  641.04   16.00
  -4   1  -6  135.79    3.90
  -4   1  -6  142.19    4.90
   4  -1   6  138.89    4.80
  -5   1  -6   88.89    3.80
  -5   1  -6   87.89    2.90
   5  -1   6   91.79    3.80
  -6   1  -6   27.60    1.70
  -6   1  -6   31.70    2.30
   6  -1   6   29.10    2.30
  -7   1  -6  368.16   10.90
  -7   1  -6  372.76    9.90
  -7   1  -6  369.56    9.90
  -8   1  -6  171.68    5.30
  -8   1  -6  172.78    6.20
  -8   1  -6  171.58    5.40
  -9   1  -6    2.90    0.90
  -9   1  -6    2.80    0.70
  -9   1  -6    2.80    1.30
 -10   1  -6  171.18    5.80
 -10   1  -6  174.48    5.10
 -10   1  -6  182.68    4.80
 -11   1  -6    1.30    0.80
 -12   0   6   31.40    1.60
 -11   0   6   40.30    2.20
 -10   0   6   52.89    2.60
  -9   0   6   32.10    2.10
   8   0  -6   46.40    2.90
  -8   0   6   50.69    3.10
  -8   0   6   45.00    2.30
  -8   0   6   43.10    2.70
   7   0  -6  541.25   14.50
  -7   0   6  510.35   14.50
  -7   0   6  524.35   13.70
  -7   0   6  548.65   14.70
   6   0  -6   57.49    2.70
  -6   0   6   55.19    2.90
  -6   0   6   55.89    2.90
   5   0  -6  169.68    5.30
   5   0  -6  158.98    4.80
  -5   0   6  174.78    5.70
  -5   0   6  163.38    5.40
   4   0  -6  271.47    7.40
   4   0  -6  259.17    7.10
   4   0  -6  265.97    8.00
  -4   0   6  266.37    7.40
  -4   0   6  256.67    7.50
  -4   0   6  261.77    7.80
  -4   0   6  272.67    8.00
   3   0  -6   89.39    3.10
   3   0  -6   91.69    2.90
   3   0  -6   92.19    3.40
  -3   0   6   91.39    3.10
  -3   0   6   95.69    3.20
  -3   0   6   95.89    3.60
  -3   0   6   93.79    3.60
   2   0  -6   13.60    1.00
   2   0  -6   13.90    1.10
  -2   0   6   14.50    0.90
  -2   0   6   13.90    1.00
  -2   0   6   17.10    1.40
  -2   0   6   15.40    1.30
   1   0  -6  170.38    4.90
   1   0  -6  172.38    5.00
  -1   0   6  173.98    5.10
  -1   0   6  174.68    5.40
   0   0  -6  702.33   17.20
   0   0  -6  717.23   17.20
   0   0   6  649.34   17.00
   0   0   6  709.53   17.70
  -1   0  -6    4.70    0.70
  -1   0  -6    3.70    0.70
   1   0   6    3.80    0.80
   1   0   6    4.20    0.50
  -2   0  -6  616.14   15.50
  -2   0  -6  610.54   15.50
  -2   0  -6  580.54   14.50
   2   0   6  601.94   15.60
  -3   0  -6  151.68    5.10
  -3   0  -6  149.88    4.20
   3   0   6  154.58    4.90
   3   0   6  147.99    4.90
  -4   0  -6  316.57    8.30
  -4   0  -6  326.97    9.50
   4   0   6  327.57    9.20
  -5   0  -6    5.60    0.80
  -5   0  -6    7.00    1.30
   5   0   6    6.90    1.20
  -6   0  -6    9.30    1.10
  -6   0  -6    5.20    1.30
   6   0   6    6.20    1.30
  -7   0  -6    0.40    0.70
  -7   0  -6    1.20    0.80
  -7   0  -6    0.60    1.00
  -8   0  -6    5.40    0.80
  -8   0  -6    5.50    1.10
  -8   0  -6    2.90    1.00
  -8   0  -6    5.00    1.40
  -9   0  -6   14.00    1.20
  -9   0  -6   12.40    1.70
 -10   0  -6   49.90    1.80
 -10   0  -6   49.99    2.60
 -12   1   6   33.20    1.80
 -11   1   6   97.99    3.50
 -10   1   6   11.90    1.40
   9  -1  -6   18.90    1.50
  -9   1   6   20.10    1.70
   8  -1  -6  222.58    6.30
   8  -1  -6  224.58    7.30
  -8   1   6  229.38    7.60
  -8   1   6  225.78    6.50
  -8   1   6  213.98    6.50
   7  -1  -6    3.30    1.00
  -7   1   6    2.40    1.00
  -7   1   6    3.30    1.00
   6  -1  -6  256.17    7.60
  -6   1   6  270.87    8.00
  -6   1   6  257.27    8.00
   5  -1  -6  303.97    8.20
  -5   1   6  286.97    8.70
  -5   1   6  288.77    8.30
   4  -1  -6   39.10    1.80
   4  -1  -6   35.50    2.10
   4  -1  -6   37.10    1.70
  -4   1   6   36.30    1.80
  -4   1   6   35.80    2.10
  -4   1   6   36.30    2.20
  -4   1   6   42.10    1.90
   3  -1  -6  500.75   12.80
   3  -1  -6  503.05   12.80
   3  -1  -6  503.15   13.30
  -3   1   6  524.15   13.40
  -3   1   6  518.35   13.00
  -3   1   6  506.75   13.50
  -3   1   6  495.35   12.60
   2  -1  -6   14.40    1.20
   2  -1  -6   14.00    1.00
  -2   1   6   15.30    1.40
  -2   1   6   16.80    0.80
  -2   1   6   15.50    1.20
  -2   1   6   14.40    1.00
   1  -1  -6  183.88    5.40
   1  -1  -6  179.68    5.00
  -1   1   6  175.58    5.60
  -1   1   6  175.08    5.20
   0  -1  -6   58.79    2.30
   0  -1  -6   60.09    2.40
   0   1   6   61.39    2.70
   0   1   6   59.89    2.10
  -1  -1  -6    4.00    0.80
  -1  -1  -6    3.00    0.50
  -1  -1  -6    3.50    0.70
   1   1   6    3.50    0.50
   1   1   6    3.10    0.80
  -2  -1  -6  147.39    4.80
  -2  -1  -6  135.79    3.90
   2   1   6  136.39    4.40
   2   1   6  138.69    4.70
  -3  -1  -6   22.10    1.20
  -3  -1  -6   20.80    1.70
   3   1   6   18.70    1.50
   3   1   6   24.10    1.60
  -4  -1  -6  892.11   21.60
  -4  -1  -6  874.11   23.00
   4   1   6  893.41   22.50
  -5  -1  -6   74.19    3.40
  -5  -1  -6   76.09    2.80
  -5  -1  -6   66.39    3.60
   5   1   6   74.49    3.40
  -6  -1  -6    0.90    1.00
  -6  -1  -6    2.60    0.80
  -6  -1  -6    2.70    0.80
   6   1   6    1.80    1.00
  -7  -1  -6   25.30    1.40
  -7  -1  -6   24.30    2.30
  -7  -1  -6   27.40    1.80
  -8  -1  -6    1.70    1.20
  -8  -1  -6    0.90    0.70
  -9  -1  -6    4.70    0.70
  -9  -1  -6    4.40    1.20
 -10  -1  -6   33.30    2.00
 -12   2   6   25.60    1.60
  11  -2  -6   88.69    3.20
 -11   2   6   92.09    3.40
  10  -2  -6    3.80    0.90
 -10   2   6    3.60    1.00
   9  -2  -6   97.49    3.40
  -9   2   6   98.09    3.60
   8  -2  -6  619.24   15.50
   8  -2  -6  589.34   16.50
  -8   2   6  624.04   15.80
  -8   2   6  642.04   17.00
   7  -2  -6   76.89    3.30
  -7   2   6   75.09    3.50
  -7   2   6   70.19    3.40
   6  -2  -6   15.70    1.40
  -6   2   6   17.90    1.70
  -6   2   6   15.50    1.60
   5  -2  -6  338.37    9.00
  -5   2   6  329.97    9.70
  -5   2   6  335.87    9.20
   4  -2  -6   18.90    1.20
   4  -2  -6   19.20    1.60
  -4   2   6   18.60    1.30
  -4   2   6   18.30    1.60
  -4   2   6   19.20    1.60
   3  -2  -6  714.53   18.80
  -3   2   6  788.02   19.20
  -3   2   6  808.02   19.60
  -3   2   6  773.22   18.70
  -3   2   6  774.92   19.80
   2  -2  -6  186.88    5.10
   2  -2  -6  187.68    5.70
  -2   2   6  181.98    5.90
  -2   2   6  186.48    5.50
   1  -2  -6  729.13   18.00
   1  -2  -6  727.73   18.50
  -1   2   6  737.43   18.80
  -1   2   6  732.23   18.10
   0  -2  -6   76.99    3.00
   0  -2  -6   74.89    2.40
   0  -2  -6   72.59    2.70
   0   2   6   75.19    2.50
   0   2   6   77.69    3.20
  -1  -2  -6  195.38    6.20
   1   2   6  199.08    5.70
   1   2   6  199.98    6.30
  -2  -2  -6  269.87    7.20
  -2  -2  -6  271.07    8.20
   2   2   6  276.37    8.10
   2   2   6  271.57    7.70
  -3  -2  -6  619.44   16.70
  -3  -2  -6  628.14   15.40
   3   2   6  609.74   16.00
   3   2   6  629.64   16.50
  -4  -2  -6   95.19    3.20
  -4  -2  -6   93.59    4.30
   4   2   6   95.29    3.80
  -5  -2  -6   32.50    2.30
  -5  -2  -6   35.30    1.90
   5   2   6   30.40    2.20
  -6  -2  -6    7.10    1.40
  -6  -2  -6    7.20    1.10
  -6  -2  -6    8.00    0.80
  -7  -2  -6    1.80    0.60
  -7  -2  -6   -0.10    1.00
  -8  -2  -6    3.60    0.70
  -8  -2  -6    1.80    1.10
  -9  -2  -6  115.29    4.40
  -9  -2  -6  122.49    3.30
 -13   3   6   18.00    1.10
  12  -3  -6  194.78    5.50
 -12   3   6  203.38    5.70
  11  -3  -6    3.00    0.90
 -11   3   6    4.20    1.00
  10  -3  -6  139.39    4.50
 -10   3   6  135.19    4.60
   9  -3  -6    8.30    1.10
  -9   3   6    6.60    1.10
  -9   3   6    6.30    1.10
   8  -3  -6    4.10    0.90
   8  -3  -6    2.20    0.90
  -8   3   6    3.60    0.90
  -8   3   6    2.70    1.20
   7  -3  -6   16.00    1.60
  -7   3   6   17.80    1.90
  -7   3   6   13.50    1.70
   6  -3  -6    3.20    0.80
  -6   3   6    2.60    0.90
  -6   3   6    2.00    0.80
   5  -3  -6 1557.44   38.30
  -5   3   6 1622.04   39.30
  -5   3   6 1610.04   38.50
   4  -3  -6   11.10    0.90
  -4   3   6   10.90    1.30
  -4   3   6   11.40    1.00
  -4   3   6   11.70    1.40
   3  -3  -6   54.09    2.00
   3  -3  -6   52.99    2.60
  -3   3   6   55.79    2.80
  -3   3   6   54.29    1.90
  -3   3   6   53.29    2.50
  -3   3   6   54.49    2.30
   2  -3  -6  195.68    5.40
   2  -3  -6  193.48    6.10
  -2   3   6  191.88    5.70
  -2   3   6  201.28    5.80
  -2   3   6  200.48    6.40
   1  -3  -6  188.78    5.90
   1  -3  -6  183.98    5.30
  -1   3   6  189.08    5.40
  -1   3   6  195.48    6.20
   0  -3  -6   87.19    3.00
   0  -3  -6   83.79    2.70
   0  -3  -6   82.99    3.40
   0   3   6   87.39    2.80
   0   3   6   87.59    3.60
  -1  -3  -6  110.59    3.30
  -1  -3  -6  106.39    4.20
   1   3   6  107.09    4.20
   1   3   6  106.49    3.60
  -2  -3  -6  122.29    3.70
  -2  -3  -6  124.99    4.80
   2   3   6  123.99    4.70
   2   3   6  121.99    4.10
  -3  -3  -6  496.95   12.60
  -3  -3  -6  488.55   14.00
   3   3   6  502.35   13.70
   3   3   6  500.15   13.20
  -4  -3  -6  122.29    4.60
  -4  -3  -6  124.59    4.00
   4   3   6  123.69    4.60
  -5  -3  -6   40.80    2.10
  -5  -3  -6   36.80    2.50
  -5  -3  -6   42.40    1.70
   5   3   6   41.80    2.50
  -6  -3  -6    2.10    1.10
  -6  -3  -6    2.60    0.70
  -7  -3  -6    4.30    1.30
  -7  -3  -6    2.90    0.70
  -8  -3  -6  187.18    6.30
  -8  -3  -6  195.28    5.00
  13  -4  -6    6.80    0.80
 -13   4   6    7.50    0.80
  12  -4  -6  256.37    6.90
 -12   4   6  256.27    7.10
  11  -4  -6   51.89    2.50
 -11   4   6   49.10    2.50
  10  -4  -6    1.10    0.80
 -10   4   6    0.50    0.80
   9  -4  -6   57.29    2.50
  -9   4   6   57.99    2.70
  -9   4   6   56.19    2.70
   8  -4  -6  451.25   11.40
  -8   4   6  442.36   11.80
  -8   4   6  429.86   12.70
  -7   4   6   17.80    1.90
  -7   4   6   20.50    1.60
  -7   4   6   17.40    1.80
  -6   4   6   36.50    2.50
  -6   4   6   34.60    2.10
  -5   4   6  127.89    4.90
  -5   4   6  128.99    4.20
  -4   4   6   74.59    3.40
  -4   4   6   81.49    3.40
  -4   4   6   76.29    2.70
   3  -4  -6   45.40    2.40
  -3   4   6   48.50    2.70
  -3   4   6   47.60    2.40
   2  -4  -6  169.38    4.90
   2  -4  -6  173.78    6.30
  -2   4   6  169.18    5.20
  -2   4   6  175.68    5.90
   1  -4  -6   58.79    2.30
   1  -4  -6   58.19    2.90
  -1   4   6   63.89    3.00
  -1   4   6   61.99    2.40
   0  -4  -6  544.95   14.60
   0  -4  -6  528.35   13.40
   0   4   6  544.05   14.60
   0   4   6  523.85   13.40
  -1  -4  -6  857.91   21.50
  -1  -4  -6  817.82   19.50
   1   4   6  692.93   20.60
   1   4   6  816.92   19.80
  -2  -4  -6  151.68    4.50
   2   4   6  150.18    5.50
   2   4   6  148.09    4.80
   3   4   6   19.80    1.60
   3   4   6   19.00    1.90
  -4  -4  -6  273.77    8.30
   4   4   6  269.67    8.20
  -5  -4  -6    5.30    0.70
  -5  -4  -6    9.60    1.60
  -6  -4  -6   24.10    1.30
  -6  -4  -6   22.40    2.20
  -7  -4  -6    8.10    1.50
  -7  -4  -6    7.90    0.80
  -8  -4  -6   36.10    2.40
  13  -5  -6    0.50    0.60
 -13   5   6    0.50    0.50
  12  -5  -6   88.79    3.10
 -12   5   6   87.69    3.10
  11  -5  -6  177.38    5.40
 -11   5   6  178.48    5.50
  10  -5  -6   36.30    2.20
 -10   5   6   34.50    2.60
 -10   5   6   33.80    2.10
   9  -5  -6   57.49    2.60
  -9   5   6   55.39    2.80
   8  -5  -6   46.00    2.20
  -8   5   6   47.50    2.50
  -8   5   6   41.80    2.80
  -7   5   6    5.30    1.20
  -7   5   6    8.60    1.30
  -6   5   6  477.35   13.70
  -6   5   6  485.05   12.90
  -5   5   6  973.00   25.20
  -5   5   6  991.50   24.20
  -4   5   6   47.60    2.80
  -4   5   6   51.29    2.70
  -4   5   6   52.79    2.10
  -3   5   6  752.92   18.80
  -3   5   6  711.53   19.40
  -2   5   6   75.69    3.00
  -2   5   6   79.79    3.70
  -1   5   6   78.59    2.90
   0   5   6   48.10    2.80
   1   5   6  266.97    8.50
   2   5   6  219.48    7.50
  -3  -5  -6   32.10    2.30
  -4  -5  -6  338.37    8.50
  -4  -5  -6  338.57   10.00
  -5  -5  -6    5.10    0.70
  -5  -5  -6    9.10    1.60
  -6  -5  -6   34.10    1.40
  -6  -5  -6   31.70    2.50
  -7  -5  -6   41.10    2.60
  13  -6  -6   67.79    2.30
  12  -6  -6  238.38    6.50
 -12   6   6  229.08    6.50
  11  -6  -6   -0.40    0.90
 -11   6   6    1.30    0.80
  10  -6  -6   -0.50    0.80
 -10   6   6    0.40    0.80
 -10   6   6    0.20    0.90
   9  -6  -6   13.40    1.40
  -9   6   6   14.70    1.60
   8  -6  -6  744.83   18.40
  -8   6   6  748.83   19.00
  -8   6   6  729.93   19.70
  -7   6   6   20.60    1.90
  -7   6   6   19.30    1.80
  -6   6   6  131.99    4.70
  -6   6   6  119.29    4.40
  -6   6   6  122.39    5.30
  -5   6   6  161.28    5.10
  -5   6   6  162.88    5.90
  -4   6   6  175.78    6.30
  -4   6   6  181.88    6.10
  -3   6   6   39.70    2.70
  -3   6   6   36.50    2.20
  -2   6   6  124.59    4.40
  -2   6   6  127.19    5.20
  -1   6   6   29.10    1.80
  -1   6   6   30.00    2.40
   0   6   6   28.40    2.40
   1   6   6 1088.79   28.20
  -2  -6  -6   20.00    2.00
  -3  -6  -6   12.10    1.80
  -3  -6  -6   10.20    0.80
   3   6   6    9.70    1.00
  -4  -6  -6  131.09    3.60
  -4  -6  -6  134.69    5.10
   4   6   6  127.99    4.00
  -5  -6  -6   82.89    3.80
  -5  -6  -6   79.19    2.40
  -6  -6  -6    3.80    1.20
  13  -7  -6    3.60    0.70
  12  -7  -6  117.09    3.70
 -12   7   6  109.69    3.90
  11  -7  -6   22.10    1.90
 -11   7   6   21.20    1.70
  10  -7  -6    6.10    1.20
 -10   7   6    5.00    1.20
   9  -7  -6    0.30    0.80
  -9   7   6    1.80    1.00
   8  -7  -6   44.30    2.20
  -8   7   6   50.09    2.70
   7  -7  -6   21.40    1.50
  -7   7   6   22.30    1.90
  -7   7   6   22.40    2.00
  -6   7   6  302.57    9.00
  -6   7   6  316.57    8.90
  -6   7   6  326.37    9.10
  -5   7   6   37.10    2.60
  -4   7   6    4.40    1.10
  -4   7   6    5.30    1.70
  -3   7   6   11.90    1.90
  -3   7   6    9.80    1.50
  -2   7   6   98.99    3.90
  -2   7   6  105.99    4.90
  -1   7   6    2.10    1.00
  -1   7   6    2.10    1.00
   0  -7  -6  123.59    4.60
  -1  -7  -6  183.18    6.30
  -2  -7  -6   24.40    2.30
   2   7   6   17.20    1.30
  -3  -7  -6   86.79    4.20
   3   7   6   87.39    3.00
  -4  -7  -6   59.39    3.30
   4   7   6   55.59    2.30
  -5  -7  -6    2.60    1.20
  13  -8  -6   52.99    2.00
  12  -8  -6   69.39    2.60
  11  -8  -6    1.00    0.90
  10  -8  -6  121.49    4.10
 -10   8   6  114.69    4.20
   9  -8  -6    5.80    1.10
  -9   8   6    6.60    1.30
   8  -8  -6  452.35   11.90
  -8   8   6  468.25   12.60
   7  -8  -6    2.60    0.80
  -7   8   6    2.00    1.00
  -7   8   6    4.20    1.20
  -6   8   6    1.50    1.10
  -6   8   6    1.40    0.90
  -5   8   6  173.88    5.90
  -5   8   6  163.68    5.30
  -4   8   6   14.70    2.00
  -4   8   6   16.40    1.40
   3  -8  -6    3.40    1.80
  -3   8   6    6.90    1.60
   2  -8  -6    4.90    1.40
  -2   8   6    5.10    1.20
   1  -8  -6    2.50    0.80
   0  -8  -6  389.26   11.40
   0   8   6  409.76   10.40
  -1  -8  -6   27.10    2.40
   1   8   6   25.30    1.60
  -2  -8  -6   21.60    2.40
   2   8   6   25.10    1.60
  -3  -8  -6   13.40    1.90
   3   8   6   14.90    1.40
  -4  -8  -6    7.50    1.50
   4   8   6    9.70    1.10
  -5  -8  -6  131.99    4.90
  12  -9  -6    0.70    0.70
  11  -9  -6   17.70    1.60
 -11   9   6   18.00    1.60
  10  -9  -6   10.00    1.30
 -10   9   6   10.20    1.40
   9  -9  -6    0.50    0.80
  -9   9   6   -1.50    0.90
   8  -9  -6    4.60    0.90
  -8   9   6    4.30    1.20
   7  -9  -6  201.98    5.80
  -7   9   6  211.48    6.60
  -7   9   6  199.38    7.00
  -6   9   6  322.27   10.00
  -6   9   6  340.77    9.50
  -5   9   6    1.20    0.80
  -5   9   6    0.20    1.10
   4  -9  -6   78.19    4.70
  -4   9   6   86.19    3.20
   3  -9  -6   41.50    3.40
  -3   9   6   49.00    2.20
   2  -9  -6   98.79    4.20
  -2   9   6   93.19    3.30
   1  -9  -6   62.89    3.20
  -1   9   6   63.79    2.60
   0  -9  -6  118.89    4.90
   0   9   6  115.79    3.90
  -1  -9  -6   31.80    2.70
   1   9   6   32.20    1.80
  -2  -9  -6   18.30    2.30
   2   9   6   17.30    1.50
  -3  -9  -6  100.09    4.50
   3   9   6   99.29    3.40
  -4  -9  -6   18.60    2.10
   4   9   6   19.60    1.40
  12 -10  -6   38.00    1.80
  11 -10  -6   19.90    1.50
 -11  10   6   17.60    1.50
  10 -10  -6   44.60    2.20
 -10  10   6   41.70    2.40
   9 -10  -6  283.97    7.80
  -9  10   6  289.37    8.50
  -8  10   6  116.29    5.10
  -8  10   6  124.39    4.70
  -7  10   6  170.68    5.80
  -7  10   6  161.78    6.10
  -6  10   6  111.09    4.80
  -6  10   6  107.19    4.20
  -5  10   6  126.09    5.20
  -5  10   6  121.79    4.40
   4 -10  -6   26.50    3.10
  -4  10   6   27.20    1.80
   3 -10  -6    3.20    1.60
  -3  10   6    1.40    0.80
  -3  10   6    2.20    0.80
   2 -10  -6   62.49    3.40
  -2  10   6   62.59    2.60
   1 -10  -6    4.60    1.30
  -1  10   6    1.60    0.80
   0 -10  -6   28.60    2.60
   0  10   6   26.30    1.80
  -1 -10  -6  216.68    7.50
   1  10   6  217.28    6.30
  -2 -10  -6    3.00    1.30
   2  10   6    3.80    0.90
  -3 -10  -6   18.70    2.20
   3  10   6   20.00    1.50
   4  10   6  231.18    6.20
  12 -11  -6   19.00    1.20
  11 -11  -6   48.40    2.00
 -11  11   6   46.50    2.10
  10 -11  -6   25.30    1.60
 -10  11   6   26.70    2.00
  -9  11   6    0.00    1.00
  -9  11   6   -1.30    1.30
  -8  11   6    0.30    1.30
  -8  11   6    0.10    1.00
  -7  11   6    2.10    1.10
  -7  11   6    0.60    1.40
  -6  11   6  187.28    6.00
  -6  11   6  177.38    6.70
   5 -11  -6   50.89    4.70
  -5  11   6   40.30    2.40
   4 -11  -6  247.98    8.60
  -4  11   6  233.88    7.10
   3 -11  -6   78.29    4.20
  -3  11   6   76.29    3.20
  -3  11   6   75.09    3.00
   2 -11  -6  228.38    7.60
  -2  11   6  220.38    6.60
   1 -11  -6   31.40    2.70
  -1  11   6   29.80    1.90
   0 -11  -6   62.89    3.60
   0  11   6   59.19    2.60
  -1 -11  -6   76.49    3.90
   1  11   6   77.79    2.90
  -2 -11  -6   98.99    4.30
   2  11   6  104.49    3.40
  -3 -11  -6  112.79    4.20
   3  11   6  112.19    3.50
   4  11   6    2.60    0.60
 -11  12   6  120.89    3.80
 -10  12   6    2.20    0.90
  -9  12   6  127.39    4.50
  -8  12   6    2.10    1.10
   7 -12  -6  116.49    6.30
  -7  12   6  102.19    4.20
   6 -12  -6   17.10    3.10
  -6  12   6    8.50    1.40
   5 -12  -6   85.89    5.00
  -5  12   6   80.49    3.40
   4 -12  -6  120.09    5.40
  -4  12   6  116.99    4.20
   3 -12  -6  204.28    7.10
  -3  12   6  204.78    6.00
  -3  12   6  201.68    6.10
   2 -12  -6  164.28    6.20
  -2  12   6  165.98    5.10
   1 -12  -6  175.88    6.50
  -1  12   6  177.88    5.40
   0 -12  -6   62.29    3.50
   0  12   6   58.89    2.50
  -1 -12  -6    2.50    1.10
   1  12   6    2.70    0.80
  -2 -12  -6   25.50    2.00
   2  12   6   28.30    1.60
   3  12   6  133.29    3.80
  10 -13  -6    1.80    2.00
 -10  13   6    3.00    0.80
   9 -13  -6   56.69    4.50
  -9  13   6   41.60    2.40
   8 -13  -6   11.10    2.70
  -8  13   6    4.10    1.10
   7 -13  -6   55.49    4.60
  -7  13   6   51.79    2.70
   6 -13  -6   48.60    4.10
  -6  13   6   47.60    2.60
   5 -13  -6  324.87   10.00
  -5  13   6  318.17    9.00
   4 -13  -6    1.30    1.40
  -4  13   6    2.90    1.00
   3 -13  -6  132.09    5.30
  -3  13   6  130.79    4.20
   2 -13  -6    8.20    1.70
  -2  13   6    7.40    1.10
   1 -13  -6   13.10    1.80
  -1  13   6   11.20    1.20
   0 -13  -6    0.90    1.00
   0  13   6    1.20    0.70
  -1 -13  -6    3.90    1.10
   1  13   6    2.60    0.70
   2  13   6    2.00    0.60
   9 -14  -6   97.49    4.20
  -9  14   6   99.39    3.40
   8 -14  -6   17.80    2.30
  -8  14   6   15.20    1.50
   7 -14  -6    0.70    1.60
  -7  14   6    0.10    0.80
   6 -14  -6   58.39    3.50
  -6  14   6   66.59    2.80
   5 -14  -6   28.00    2.50
  -5  14   6   28.40    1.90
   4 -14  -6    2.50    1.20
  -4  14   6    4.00    0.90
   3 -14  -6   15.40    2.10
  -3  14   6   15.90    1.30
   2 -14  -6    1.30    1.00
  -2  14   6    1.20    0.70
   1 -14  -6   31.20    2.20
  -1  14   6   31.00    1.60
   0 -14  -6   35.30    2.10
   0  14   6   35.50    1.60
   1  14   6    2.10    0.60
  -8  15   6   16.70    1.40
   7 -15  -6    0.40    0.90
  -7  15   6    1.80    0.70
   6 -15  -6   25.90    2.00
  -6  15   6   28.00    1.60
   5 -15  -6  159.38    5.40
  -5  15   6  161.18    4.80
   4 -15  -6   51.79    2.70
   3 -15  -6    2.40    1.00
   2 -15  -6   17.70    1.60
  -2  15   6   15.80    1.10
  -1  15   6    6.40    0.70
   1  15  -7   11.70    1.10
  -1 -15   7   11.50    1.20
   0  15  -7   34.70    2.00
   0  15  -7   30.80    1.90
   0  15  -7   35.80    1.70
  -1  15  -7   89.79    3.00
  -1  15  -7   90.09    3.40
  -1  15  -7   82.19    3.30
  -2  15  -7   19.80    2.00
  -2  15  -7   18.00    1.80
  -3  15  -7    4.70    1.20
  -3  15  -7    0.90    1.00
  -4  15  -7    0.20    0.90
  -4  15  -7    1.90    1.10
  -5  15  -7    4.10    1.10
  -5  15  -7    1.20    0.90
  -6  15  -7    2.90    0.90
   3  14  -7   14.70    1.10
   2  14  -7   11.30    1.30
   2  14  -7   10.20    1.10
  -2 -14   7   10.40    1.10
   1  14  -7   35.40    2.20
   1  14  -7   39.60    2.40
   1  14  -7   37.50    2.00
   0  14  -7  114.09    4.30
   0  14  -7  120.29    4.00
   0  14  -7  119.29    4.40
  -1  14  -7    6.60    1.50
  -1  14  -7    7.30    1.10
  -1  14  -7    9.20    1.50
  -2  14  -7   86.29    3.70
  -2  14  -7   77.19    3.60
  -3  14  -7  183.18    6.00
  -3  14  -7  183.88    6.10
  -4  14  -7  139.39    4.90
  -4  14  -7  137.89    4.80
  -5  14  -7   86.59    3.50
  -5  14  -7   85.59    3.40
  -6  14  -7   81.99    3.10
  -7  14  -7   66.89    2.60
   4  13  -7   20.30    1.30
  -4 -13   7   20.80    1.30
   3  13  -7   12.60    1.20
   3  13  -7   10.90    1.30
  -3 -13   7   11.70    1.30
   2  13  -7    5.70    1.00
   2  13  -7    2.10    1.20
   1  13  -7  151.88    5.40
   1  13  -7  167.18    5.60
   1  13  -7  169.18    5.20
   0  13  -7  113.29    4.40
   0  13  -7  114.19    3.90
   0  13  -7  110.89    4.50
   0  13  -7  110.89    4.00
  -1  13  -7   44.70    2.10
  -1  13  -7   45.20    3.00
  -1  13  -7   46.80    2.90
  -1  13  -7   44.30    2.40
  -2  13  -7  307.07    8.30
  -2  13  -7  326.37    9.10
  -2  13  -7  325.07    9.40
  -2  13  -7  294.77    8.60
  -3  13  -7   48.70    2.00
  -3  13  -7   51.59    3.00
  -3  13  -7   51.79    2.80
  -4  13  -7    0.80    0.90
  -4  13  -7   -0.10    1.10
  -5  13  -7  133.19    4.60
  -6  13  -7   34.60    2.10
  -7  13  -7  176.48    5.40
  -8  13  -7   62.69    2.50
   5  12  -7  248.48    6.60
   5  12  -7  254.27    6.20
  -5 -12   7  244.88    6.70
   4  12  -7   84.99    3.10
   4  12  -7   83.99    3.30
  -4 -12   7   84.59    3.20
   3  12  -7   66.99    3.20
   3  12  -7   67.29    2.80
  -3 -12   7   69.09    3.10
   2  12  -7   87.79    3.80
   2  12  -7   78.59    3.20
   2  12  -7   79.59    3.70
   2  12  -7   86.19    3.40
   1  12  -7   52.29    2.60
   1  12  -7   54.99    3.20
   1  12  -7   48.60    3.00
   1  12  -7   48.90    2.40
   0  12  -7    1.50    0.70
   0  12  -7    0.70    0.90
   0  12  -7    3.70    1.30
   0  12  -7    1.80    1.30
  -1  12  -7    4.10    0.80
  -1  12  -7    2.40    1.30
  -1  12  -7    3.70    1.00
  -1  12  -7    4.80    1.40
  -2  12  -7   13.30    1.90
  -2  12  -7   11.40    1.10
  -2  12  -7   11.10    1.60
  -2  12  -7    9.80    1.30
  -3  12  -7   17.40    1.80
  -3  12  -7   16.90    1.90
  -4  12  -7   45.30    2.50
  -4  12  -7   49.50    2.80
  -5  12  -7    5.10    1.10
  -6  12  -7    0.70    0.80
  -7  12  -7   30.70    2.00
  -8  12  -7    2.10    1.20
  -8  12  -7    1.60    0.80
  -9  12  -7    5.80    1.30
   6  11  -7    1.00    0.40
  -6 -11   7    1.20    0.60
   5  11  -7   34.90    2.60
   5  11  -7   38.80    1.90
  -5 -11   7   38.10    2.00
   4  11  -7  107.89    4.10
   4  11  -7  110.59    3.80
  -4 -11   7  103.89    4.00
   3  11  -7   98.19    3.70
   3  11  -7  100.09    4.20
   3  11  -7   97.29    3.70
   2  11  -7   13.50    1.80
   2  11  -7   15.70    1.60
   2  11  -7   17.60    2.00
   2  11  -7   13.30    1.50
   1  11  -7   29.10    2.00
   1  11  -7   28.10    1.80
   1  11  -7   30.70    2.60
   1  11  -7   27.20    2.60
   0  11  -7   67.19    3.40
   0  11  -7   71.79    3.00
   0  11  -7   70.89    3.70
   0  11  -7   73.69    2.70
  -1  11  -7   18.60    2.10
  -1  11  -7   25.30    2.20
  -1  11  -7   21.40    1.80
  -1  11  -7   21.60    1.40
  -2  11  -7  281.47    8.50
  -2  11  -7  276.27    7.70
  -2  11  -7  277.37    8.10
  -3  11  -7   10.00    1.30
  -3  11  -7   11.50    1.60
  -4  11  -7    5.50    1.10
  -4  11  -7    5.80    1.30
  -5  11  -7   28.60    2.00
  -6  11  -7  452.45   12.10
  -7  11  -7   47.20    3.20
  -7  11  -7   46.60    2.50
  -8  11  -7   18.10    1.80
  -8  11  -7   18.10    2.40
  -9  11  -7   47.30    3.00
 -10  11  -7    3.30    1.10
  -7 -10   7   42.80    1.80
   6  10  -7    9.20    1.00
   6  10  -7    9.60    0.80
  -6 -10   7    8.70    1.10
   5  10  -7   38.80    2.40
   5  10  -7   38.20    2.10
  -5 -10   7   36.50    2.30
   4  10  -7    1.30    0.80
   4  10  -7    2.30    1.00
   4  10  -7    1.60    1.20
  -4 -10   7    1.20    1.00
   3  10  -7   15.00    1.80
   3  10  -7   13.70    1.50
   3  10  -7   15.50    2.00
   3  10  -7   14.40    1.60
   2  10  -7  230.58    6.80
   2  10  -7  225.48    7.40
   2  10  -7  218.68    7.20
   2  10  -7  239.78    6.90
   1  10  -7   52.69    3.00
   1  10  -7   55.99    2.60
   1  10  -7   57.79    2.40
   1  10  -7   57.19    3.20
   0  10  -7  564.14   14.70
   0  10  -7  562.94   15.00
   0  10  -7  575.74   15.50
   0  10  -7  585.94   14.40
  -1  10  -7   51.59    2.90
  -1  10  -7   52.29    2.40
  -1  10  -7   50.49    1.90
  -1  10  -7   50.39    2.60
  -2  10  -7  106.19    3.80
  -2  10  -7  108.19    4.30
  -2  10  -7  109.29    3.80
  -3  10  -7  219.18    6.60
  -3  10  -7  227.08    7.00
  -4  10  -7  356.26   10.10
  -5  10  -7    5.90    1.40
  -6  10  -7   47.20    3.10
  -6  10  -7   46.00    3.30
  -7  10  -7   73.39    4.00
  -8  10  -7   34.60    2.90
  -8  10  -7   33.70    1.70
  -9  10  -7   13.50    2.00
  -9  10  -7   13.70    1.40
 -10  10  -7    0.10    0.70
 -10  10  -7   -0.30    0.90
  -8  -9   7   32.40    1.50
   7   9  -7   53.99    1.70
  -7  -9   7   50.39    2.30
   6   9  -7   84.49    2.60
   6   9  -7   78.29    3.00
  -6  -9   7   80.99    3.20
   5   9  -7   13.90    1.80
   5   9  -7   13.00    1.40
   5   9  -7   13.00    1.70
  -5  -9   7   13.80    1.60
   4   9  -7    7.10    1.20
   4   9  -7    9.60    1.70
   4   9  -7    7.40    1.20
  -4  -9   7    7.90    1.40
   3   9  -7  489.15   12.70
   3   9  -7  490.05   13.30
   3   9  -7  461.15   13.10
   3   9  -7  478.15   12.70
   2   9  -7  139.89    4.70
   2   9  -7  140.99    5.10
   2   9  -7  154.48    4.80
   2   9  -7  149.59    5.40
   1   9  -7  117.89    4.00
   1   9  -7  110.99    4.20
   1   9  -7  116.79    3.70
   1   9  -7  114.69    4.50
  -1  -9   7  113.39    5.00
   0   9  -7  258.67    7.30
   0   9  -7  262.57    7.90
   0   9  -7  259.07    8.20
   0   9  -7  258.67    6.80
   0  -9   7  257.87    8.50
  -1   9  -7  560.84   14.50
  -1   9  -7  586.44   15.20
   1  -9   7  570.64   15.80
  -2   9  -7  127.49    4.60
   2  -9   7  124.59    5.00
  -3   9  -7   29.00    2.00
   3  -9   7   30.70    2.40
  -6   9  -7  283.07    9.00
  -7   9  -7    2.10    1.30
  -8   9  -7   56.29    2.80
  -8   9  -7   53.69    3.60
  -8   9  -7   55.39    2.10
  -9   9  -7    7.10    1.60
  -9   9  -7    9.90    1.30
 -10   9  -7   60.49    2.50
 -10   9  -7   58.59    3.20
 -11   9  -7   28.40    1.50
 -11   9  -7   29.80    2.00
  -8  -8   7    4.50    0.90
   7   8  -7    0.50    0.50
  -7  -8   7    0.70    0.80
   6   8  -7  453.25   12.20
   6   8  -7  456.55   12.30
  -6  -8   7  463.35   12.20
   5   8  -7   72.29    3.40
   5   8  -7   63.69    2.80
   5   8  -7   67.69    3.00
  -5  -8   7   62.39    3.10
   4   8  -7    4.50    1.10
   4   8  -7    3.60    1.40
   4   8  -7    4.50    1.10
  -4  -8   7    6.60    1.30
   3   8  -7   35.70    2.10
   3   8  -7   40.00    2.60
   3   8  -7   37.10    2.40
   3   8  -7   37.90    2.10
   2   8  -7    1.20    0.60
   2   8  -7    0.60    0.90
   2   8  -7    1.10    1.10
   2   8  -7    0.80    0.80
  -2  -8   7    0.90    1.00
   1   8  -7  379.16   10.70
   1   8  -7  383.26    9.70
  -1  -8   7  373.46   11.20
   0   8  -7   10.60    1.40
   0   8  -7   10.00    0.80
   0  -8   7    7.30    1.30
  -1   8  -7    8.60    1.00
  -1   8  -7   10.00    1.30
   1  -8   7    9.50    1.40
   1  -8   7    6.40    0.80
  -2   8  -7   12.00    1.50
  -2   8  -7    6.30    1.40
   2  -8   7    4.50    1.90
   2  -8   7    5.30    1.20
   3  -8   7  542.15   14.70
  -5   8  -7  167.68    5.90
  -6   8  -7   26.50    2.50
  -6   8  -7   26.80    2.50
  -7   8  -7   53.19    3.50
  -7   8  -7   50.69    2.60
  -8   8  -7    5.20    1.60
  -8   8  -7    5.10    1.20
  -8   8  -7    5.10    0.80
  -9   8  -7   12.50    2.00
  -9   8  -7   10.60    1.40
  -9   8  -7   10.50    1.10
 -10   8  -7   -0.70    0.90
 -10   8  -7    1.80    1.20
 -11   8  -7   18.70    1.70
 -11   8  -7   17.00    1.30
  -9  -7   7    0.40    0.60
   8   7  -7  282.77    7.00
  -8  -7   7  293.77    7.90
   7   7  -7    1.70    0.60
  -7  -7   7    2.10    0.90
   6   7  -7   12.10    1.60
  -6  -7   7    9.00    1.30
   5   7  -7    1.20    0.80
   5   7  -7    0.60    1.10
   5   7  -7    0.90    0.80
  -5  -7   7    0.50    0.90
   4   7  -7  157.18    4.90
   4   7  -7  153.08    5.50
   4   7  -7  155.38    5.10
  -4  -7   7  146.19    5.10
   3   7  -7   37.40    2.00
   3   7  -7   36.30    2.00
   3   7  -7   40.00    2.60
  -3  -7   7   36.40    2.70
   2   7  -7   11.50    1.50
   2   7  -7   13.40    1.10
  -2  -7   7   11.60    1.70
   1   7  -7    6.40    1.10
   1   7  -7    4.90    0.60
   1   7  -7    5.00    1.40
  -1  -7   7    6.30    1.00
  -1  -7   7    5.40    1.20
  -1  -7   7    4.40    1.20
   0   7  -7  176.38    5.30
   0   7  -7  165.48    6.60
   0  -7   7  177.58    5.90
   0  -7   7  176.38    6.30
   0  -7   7  167.18    5.00
  -1   7  -7   19.70    1.10
  -1   7  -7   18.70    2.10
   1  -7   7   16.80    1.60
   1  -7   7   17.40    1.80
  -2   7  -7  332.27   10.60
   2  -7   7  353.26    9.80
   2  -7   7  352.86   10.50
   2  -7   7  340.27   10.10
  -5   7  -7   25.30    2.10
  -6   7  -7  152.58    4.90
  -6   7  -7  148.19    5.80
  -7   7  -7   57.39    3.50
  -7   7  -7   59.69    2.80
  -7   7  -7   55.69    2.20
  -8   7  -7  162.88    6.40
  -8   7  -7  167.68    4.90
  -8   7  -7  168.78    5.40
  -9   7  -7  241.58    7.10
  -9   7  -7  237.78    6.70
  -9   7  -7  250.37    8.20
 -10   7  -7  219.28    6.30
 -10   7  -7  214.48    7.10
 -11   7  -7   17.10    1.80
 -11   7  -7   18.00    1.40
 -10  -6   7    8.80    0.90
  -9  -6   7    3.80    0.90
   8   6  -7   13.80    1.00
  -8  -6   7   13.40    1.40
   7   6  -7   98.29    3.00
  -7  -6   7   91.99    3.60
   6   6  -7    4.30    1.20
  -6  -6   7    2.20    0.90
   5   6  -7  494.55   12.80
   5   6  -7  492.45   13.20
   5   6  -7  471.65   12.50
   5   6  -7  478.15   15.10
  -5  -6   7  470.75   12.80
   4   6  -7    3.80    1.20
   4   6  -7    3.70    1.40
   4   6  -7    3.90    1.10
   4   6  -7    3.20    0.80
  -4  -6   7    2.90    1.20
   3   6  -7    9.40    1.10
   3   6  -7    9.00    1.50
   3   6  -7    7.90    1.30
   3   6  -7   11.80    1.50
  -3  -6   7    7.60    1.40
  -3  -6   7    8.80    1.30
   2   6  -7    8.50    1.20
   2   6  -7    5.60    1.10
   2   6  -7    4.70    1.30
   2   6  -7    5.90    0.80
  -2  -6   7    6.70    1.00
  -2  -6   7    6.90    1.40
  -2  -6   7    6.80    1.30
   1   6  -7    4.10    1.20
   1   6  -7    2.00    0.70
   1   6  -7    3.60    0.50
   1   6  -7    3.60    0.80
  -1  -6   7    4.00    1.00
  -1  -6   7    3.80    1.10
  -1  -6   7    2.90    0.60
   0   6  -7   53.49    2.50
   0   6  -7   57.69    2.30
   0   6  -7   59.79    3.40
   0  -6   7   56.39    2.00
   0  -6   7   60.69    3.10
   0  -6   7   57.09    2.70
  -1   6  -7   42.30    2.70
  -1   6  -7   39.50    2.10
  -1   6  -7   40.90    1.60
   1  -6   7   40.20    2.10
   1  -6   7   40.80    2.60
   1  -6   7   37.80    2.30
  -2   6  -7   49.99    2.50
   2  -6   7   45.80    2.30
   2  -6   7   46.60    2.50
   2  -6   7   47.20    2.70
  -3   6  -7  542.35   14.60
   4  -6   7   20.90    1.80
  -5   6  -7    6.20    1.20
   5  -6   7    4.20    1.10
  -6   6  -7   61.29    3.40
  -6   6  -7   66.29    2.80
  -7   6  -7   43.60    1.90
  -7   6  -7   36.10    2.30
  -7   6  -7   40.10    2.90
  -8   6  -7  153.78    4.70
  -8   6  -7  157.18    6.10
  -8   6  -7  163.78    5.20
  -9   6  -7   -0.10    1.20
  -9   6  -7    0.90    0.70
  -9   6  -7    0.40    1.00
 -10   6  -7   20.20    1.80
 -10   6  -7   21.30    2.30
 -11   6  -7    3.70    0.80
 -11   6  -7    3.20    1.00
 -10  -5   7   11.70    1.20
  -9  -5   7   97.09    3.50
   8   5  -7   67.69    2.20
  -8  -5   7   68.99    2.90
   7   5  -7   64.99    2.30
   7   5  -7   66.49    3.10
  -7  -5   7   65.89    2.90
   6   5  -7    0.70    1.00
  -6  -5   7    1.10    0.80
   5   5  -7  534.05   14.40
   5   5  -7  561.74   14.10
   5   5  -7  548.75   15.00
  -5  -5   7  519.35   15.40
   4   5  -7  571.04   16.60
   4   5  -7  612.34   15.20
   4   5  -7  617.64   15.70
   4   5  -7  621.64   16.00
   4   5  -7  569.74   17.50
  -4  -5   7  570.34   15.90
  -4  -5   7  600.84   16.60
   3   5  -7  410.66   12.60
   3   5  -7  426.66   11.50
   3   5  -7  402.16   11.80
   3   5  -7  421.76   10.70
  -3  -5   7  404.66   11.30
  -3  -5   7  410.26   12.00
  -3  -5   7  413.96   11.80
   2   5  -7   45.00    2.30
   2   5  -7   41.80    2.90
   2   5  -7   43.60    2.40
   2   5  -7   45.80    1.80
  -2  -5   7   47.40    2.80
  -2  -5   7   42.40    2.10
  -2  -5   7   45.00    2.50
   1   5  -7    6.60    0.90
   1   5  -7    5.30    1.20
   1   5  -7    6.00    0.60
   1   5  -7    6.80    1.00
  -1  -5   7    6.50    1.00
  -1  -5   7    6.20    0.70
  -1  -5   7    6.50    1.20
   0   5  -7    7.30    1.00
   0   5  -7    6.20    1.30
   0   5  -7    7.30    0.80
   0  -5   7    7.80    0.60
   0  -5   7    6.80    1.00
   0  -5   7    7.30    1.20
  -1   5  -7  170.88    5.40
  -1   5  -7  174.38    4.60
   1  -5   7  165.58    5.20
   1  -5   7  175.98    5.60
   1  -5   7  170.78    5.90
  -2   5  -7   37.20    2.10
   2  -5   7   32.20    1.90
   2  -5   7   30.80    2.10
  -3   5  -7    2.20    0.90
  -4   5  -7    1.60    0.50
   4  -5   7    0.40    0.70
  -5   5  -7  137.69    4.40
  -5   5  -7  131.19    5.10
   5  -5   7  138.69    5.10
  -6   5  -7  310.27    8.00
  -6   5  -7  304.57    8.50
  -6   5  -7  312.97    9.60
   6  -5   7  313.37    9.50
  -7   5  -7    3.10    1.00
  -7   5  -7    3.00    0.70
  -7   5  -7    0.50    1.10
  -8   5  -7    1.10    0.70
  -8   5  -7    2.40    1.10
  -8   5  -7    0.00    1.20
  -9   5  -7  374.46   10.10
  -9   5  -7  360.36    9.80
  -9   5  -7  385.16   11.20
 -10   5  -7   44.40    2.30
 -10   5  -7   44.90    2.90
 -11   5  -7   10.80    1.40
 -11   5  -7   11.00    1.10
 -11  -4   7   16.00    1.10
 -10  -4   7    8.50    1.10
  -9  -4   7  121.79    4.20
   8   4  -7   85.09    2.60
  -8  -4   7   91.59    3.50
   7   4  -7   14.50    1.10
   7   4  -7   12.20    1.50
  -7  -4   7   14.00    1.50
   6   4  -7  697.83   18.00
   6   4  -7  695.73   17.90
   6   4  -7  707.53   18.70
   6   4  -7  684.33   16.90
  -6  -4   7  683.73   18.90
  -6  -4   7  681.63   18.90
   5   4  -7  234.48    7.10
   5   4  -7  232.08    8.80
   5   4  -7  236.38    7.50
   5   4  -7  237.08    6.80
  -5  -4   7  224.28    7.80
  -5  -4   7  240.58    8.10
   4   4  -7    0.90    0.70
   4   4  -7   -0.10    0.50
   4   4  -7    0.50    0.70
   4   4  -7    0.10    0.80
  -4  -4   7    1.00    0.80
  -4  -4   7    0.20    0.60
  -4  -4   7    0.20    0.80
   3   4  -7   10.90    1.40
   3   4  -7   11.50    1.70
   3   4  -7   12.30    1.30
   3   4  -7   11.00    1.00
  -3  -4   7    9.50    1.10
  -3  -4   7   11.00    1.60
  -3  -4   7    9.10    1.30
   2   4  -7   36.90    1.50
   2   4  -7   36.60    2.00
   2   4  -7   35.10    2.50
   2   4  -7   37.60    2.00
  -2  -4   7   39.30    2.10
  -2  -4   7   36.20    1.70
  -2  -4   7   36.20    2.30
   1   4  -7   34.10    1.90
   1   4  -7   33.50    1.20
   1   4  -7   34.80    2.40
   1   4  -7   36.30    1.80
  -1  -4   7   35.00    1.50
  -1  -4   7   37.10    2.20
  -1  -4   7   36.10    1.90
  -1  -4   7   32.70    2.30
   0   4  -7  598.44   15.50
   0   4  -7  607.64   15.00
   0  -4   7  611.34   16.20
   0  -4   7  617.34   15.80
   0  -4   7  607.44   15.30
  -1   4  -7  428.06   11.40
  -1   4  -7  427.66   10.60
   1  -4   7  435.86   11.90
   1  -4   7  421.16   11.40
  -2   4  -7  854.91   20.70
  -2   4  -7  894.61   21.90
   2  -4   7  843.72   21.40
   2  -4   7  875.71   22.10
  -3   4  -7  419.96   10.70
  -3   4  -7  425.86   11.80
   3  -4   7  425.46   11.60
  -4   4  -7    3.50    0.70
   4  -4   7    3.00    0.90
  -5   4  -7   46.10    1.60
  -5   4  -7   48.50    2.30
  -5   4  -7   44.40    3.00
   5  -4   7   46.40    2.70
  -6   4  -7  160.28    5.80
  -6   4  -7  151.98    4.40
  -6   4  -7  147.19    4.80
   6  -4   7  149.59    5.60
  -7   4  -7  140.69    5.60
  -7   4  -7  134.89    4.70
  -7   4  -7  149.88    4.50
  -8   4  -7   79.69    4.10
  -8   4  -7   80.29    3.10
  -8   4  -7   78.09    3.30
  -9   4  -7   14.50    1.60
  -9   4  -7   15.80    2.10
  -9   4  -7   15.20    1.50
 -10   4  -7    3.60    1.00
 -10   4  -7    1.20    1.10
 -11   4  -7   16.00    1.60
 -11   4  -7   16.00    1.30
 -11  -3   7    0.70    0.60
 -10  -3   7    0.30    0.70
  -9  -3   7   66.99    2.90
   8   3  -7  175.68    4.70
  -8  -3   7  173.98    5.50
   7   3  -7    6.90    1.20
   7   3  -7    6.80    0.80
  -7  -3   7    6.90    1.10
   6   3  -7   54.09    2.70
   6   3  -7   53.69    3.10
   6   3  -7   55.89    3.10
  -6  -3   7   49.20    3.10
   5   3  -7  123.09    3.90
   5   3  -7  113.19    5.00
   5   3  -7  114.59    4.50
  -5  -3   7  111.39    4.40
  -5  -3   7  121.69    4.90
  -5  -3   7  118.89    4.90
   4   3  -7  279.27    7.90
   4   3  -7  268.27    7.30
   4   3  -7  254.67    8.30
  -4  -3   7  263.27    8.40
  -4  -3   7  258.87    8.50
  -4  -3   7  264.47    8.30
  -4  -3   7  265.27    7.80
   3   3  -7  109.09    4.10
   3   3  -7  104.89    3.40
   3   3  -7  106.29    4.50
   3   3  -7  111.49    3.90
  -3  -3   7  108.69    4.40
  -3  -3   7  113.29    4.20
  -3  -3   7  104.09    4.30
  -3  -3   7  106.19    3.70
   2   3  -7  685.03   17.10
   2   3  -7  680.53   18.00
   2   3  -7  685.83   17.00
   2   3  -7  667.43   16.30
  -2  -3   7  674.03   17.60
  -2  -3   7  682.63   16.70
  -2  -3   7  627.44   17.00
  -2  -3   7  674.33   17.80
   1   3  -7  191.68    5.10
   1   3  -7  206.88    6.00
   1   3  -7  208.48    5.80
  -1  -3   7  207.68    5.50
  -1  -3   7  198.98    5.80
  -1  -3   7  205.18    6.60
  -1  -3   7  213.78    6.40
   0   3  -7   73.69    2.80
   0   3  -7   72.09    2.50
   0  -3   7   75.19    3.20
   0  -3   7   73.49    2.90
  -1   3  -7   19.40    1.40
  -1   3  -7   21.20    1.10
   1  -3   7   20.90    1.40
   1  -3   7   20.30    1.60
  -2   3  -7    4.60    0.70
  -2   3  -7    9.90    1.20
   2  -3   7    3.40    0.80
  -3   3  -7  544.65   13.60
   3  -3   7  513.35   14.00
   3  -3   7  536.95   14.00
  -4   3  -7  111.59    3.90
   4  -3   7  118.09    4.40
  -5   3  -7  634.44   16.60
  -5   3  -7  639.44   15.60
   5  -3   7  637.94   17.00
  -6   3  -7  121.39    4.90
  -6   3  -7  118.89    4.00
  -6   3  -7  116.09    3.70
   6  -3   7  116.99    4.80
  -7   3  -7    9.30    1.60
  -7   3  -7   12.30    1.30
  -7   3  -7    8.80    1.20
  -8   3  -7    3.20    0.90
  -8   3  -7    1.30    1.00
  -8   3  -7    2.10    1.30
  -9   3  -7  744.43   18.60
  -9   3  -7  718.13   18.50
  -9   3  -7  759.32   19.60
 -10   3  -7   15.50    1.20
 -10   3  -7   13.60    1.70
 -10   3  -7   13.90    1.40
 -11   3  -7   17.60    1.60
 -11   3  -7   17.70    1.30
 -11  -2   7    4.10    0.80
 -10  -2   7   49.30    2.30
  -9  -2   7   74.89    3.10
   8   2  -7   29.60    1.40
  -8  -2   7   27.90    2.00
  -8  -2   7   34.50    2.00
   7   2  -7  298.67    9.20
   7   2  -7  290.27    7.40
  -7  -2   7  284.57    9.20
   6   2  -7  254.67    7.60
   6   2  -7  254.07    8.00
  -6  -2   7  268.27    8.30
   5   2  -7   25.90    2.20
   5   2  -7   25.50    1.90
   5   2  -7   25.40    1.50
  -5  -2   7   28.80    2.20
  -5  -2   7   24.60    1.80
  -5  -2   7   24.60    2.10
   4   2  -7  203.88    6.00
   4   2  -7  182.18    5.40
   4   2  -7  190.08    6.40
  -4  -2   7  180.08    6.30
  -4  -2   7  181.08    6.30
  -4  -2   7  184.88    5.80
  -4  -2   7  186.68    6.20
   3   2  -7  274.07    7.70
   3   2  -7  263.37    7.20
   3   2  -7  276.47    8.00
  -3  -2   7  273.67    8.30
  -3  -2   7  269.17    7.60
  -3  -2   7  279.27    8.30
  -3  -2   7  277.77    8.00
   2   2  -7  672.73   16.60
   2   2  -7  669.83   16.70
   2   2  -7  635.54   16.00
  -2  -2   7  665.13   16.30
  -2  -2   7  668.53   17.10
  -2  -2   7  627.94   16.50
  -2  -2   7  653.63   17.20
   1   2  -7   10.60    0.90
   1   2  -7   10.10    0.80
   1   2  -7   13.30    1.10
  -1  -2   7   11.50    1.20
  -1  -2   7   10.70    1.30
  -1  -2   7   10.00    1.00
   0   2  -7   88.19    3.20
   0   2  -7   91.59    3.00
   0  -2   7   88.49    3.20
   0  -2   7   92.59    3.60
  -1   2  -7   72.49    2.50
  -1   2  -7   71.99    2.80
   1  -2   7   73.59    3.10
   1  -2   7   69.09    2.60
  -2   2  -7 1856.41   43.90
  -2   2  -7 1871.01   44.50
   2  -2   7 1780.22   44.50
  -3   2  -7   15.50    1.30
  -3   2  -7   14.70    0.70
   3  -2   7   16.40    1.50
   3  -2   7   17.00    1.50
  -4   2  -7    8.80    1.20
  -4   2  -7    9.20    0.80
   4  -2   7    8.20    1.30
  -5   2  -7   43.70    2.80
  -5   2  -7   49.99    2.70
  -5   2  -7   49.10    1.90
   5  -2   7   48.00    2.70
  -6   2  -7  203.08    6.00
  -6   2  -7  208.38    5.90
  -6   2  -7  201.78    6.90
   6  -2   7  204.58    6.90
  -7   2  -7   20.70    1.60
  -7   2  -7   18.20    2.20
  -7   2  -7   19.20    1.70
  -8   2  -7  144.59    5.60
  -8   2  -7  134.59    4.60
  -8   2  -7  145.39    4.60
  -9   2  -7   38.80    2.80
  -9   2  -7   38.50    2.10
  -9   2  -7   37.30    1.80
  -9   2  -7   40.20    2.30
 -10   2  -7   -0.30    0.50
 -10   2  -7    0.30    1.00
 -10   2  -7   -1.10    0.70
 -11   2  -7  102.89    3.10
 -11   2  -7  104.99    4.20
 -12  -1   7   14.90    1.10
 -11  -1   7    5.20    0.90
 -10  -1   7   15.50    1.60
  -9  -1   7    4.10    1.00
   8   1  -7   72.79    2.30
  -8  -1   7   73.39    3.00
   7   1  -7   96.79    4.20
  -7  -1   7   97.79    4.30
  -7  -1   7   94.09    3.50
   6   1  -7  226.88    7.20
  -6  -1   7  225.78    7.30
  -6  -1   7  230.58    7.50
   5   1  -7  135.29    4.60
   5   1  -7  129.39    4.10
   5   1  -7  131.29    5.30
  -5  -1   7  131.59    4.80
  -5  -1   7  138.89    5.10
  -5  -1   7  127.69    4.60
   4   1  -7  227.08    6.60
   4   1  -7  215.68    6.20
   4   1  -7  227.08    7.20
  -4  -1   7  221.98    7.10
  -4  -1   7  220.78    6.60
  -4  -1   7  221.68    7.10
  -4  -1   7  224.28    6.80
   3   1  -7  982.40   23.60
   3   1  -7  994.00   24.50
   3   1  -7  980.10   24.00
  -3  -1   7  956.90   24.00
  -3  -1   7  983.50   24.70
  -3  -1   7  982.60   24.70
  -3  -1   7  954.70   24.10
   2   1  -7   15.00    0.90
   2   1  -7   13.80    1.20
   2   1  -7   12.70    1.10
  -2  -1   7   11.40    1.40
  -2  -1   7   11.40    1.00
  -2  -1   7   13.80    1.40
  -2  -1   7   11.90    1.00
   1   1  -7  323.37    8.90
   1   1  -7  337.57    8.30
   1   1  -7  333.37    8.90
  -1  -1   7  337.77    9.20
  -1  -1   7  341.97    9.50
   0   1  -7   20.70    1.20
   0   1  -7   19.80    1.40
   0  -1   7   23.00    1.40
   0  -1   7   21.70    1.60
  -1   1  -7 1549.45   37.40
  -1   1  -7 1537.95   37.10
   1  -1   7 1573.64   37.80
   1  -1   7 1516.05   36.80
  -2   1  -7  174.68    5.30
  -2   1  -7  170.78    5.50
  -2   1  -7  164.78    4.40
   2  -1   7  172.88    5.60
  -3   1  -7    2.30    0.40
  -3   1  -7    2.40    0.70
   3  -1   7    2.10    0.70
   3  -1   7    2.60    0.80
  -4   1  -7   54.19    2.80
  -4   1  -7   57.79    2.10
   4  -1   7   55.69    2.80
  -5   1  -7  435.46   11.00
  -5   1  -7  416.66   12.00
  -5   1  -7  419.96   12.10
   5  -1   7  432.26   12.10
  -6   1  -7   28.00    1.90
  -6   1  -7   31.70    1.80
  -6   1  -7   30.80    2.40
   6  -1   7   31.00    2.40
  -7   1  -7   14.00    1.90
  -7   1  -7    9.70    1.30
  -7   1  -7   11.70    1.30
  -8   1  -7  320.17    8.70
  -8   1  -7  314.37    8.60
  -8   1  -7  327.07    9.70
  -8   1  -7  285.17    9.00
  -9   1  -7    7.20    0.90
  -9   1  -7    6.70    1.10
  -9   1  -7    6.60    1.50
  -9   1  -7    6.00    1.00
 -10   1  -7    2.40    1.00
 -10   1  -7    0.50    0.70
 -10   1  -7    1.20    0.60
 -12   0   7    0.30    0.50
 -11   0   7   68.89    2.70
 -10   0   7   15.30    1.50
  -9   0   7    5.10    1.10
   8   0  -7   19.20    1.00
  -8   0   7   19.50    1.60
   7   0  -7  221.28    7.20
  -7   0   7  220.38    6.50
  -7   0   7  217.98    7.30
   6   0  -7    9.90    1.40
  -6   0   7   11.30    1.50
  -6   0   7   14.70    1.70
   5   0  -7  235.68    7.00
   5   0  -7  231.88    6.50
  -5   0   7  237.68    7.50
  -5   0   7  236.18    7.10
   4   0  -7   10.70    1.30
   4   0  -7    7.70    0.90
   4   0  -7   10.70    1.10
  -4   0   7    9.70    1.00
  -4   0   7   10.20    1.40
  -4   0   7    9.10    1.10
  -4   0   7   10.00    1.40
   3   0  -7    6.10    1.00
   3   0  -7    6.90    0.90
   3   0  -7    7.20    0.80
  -3   0   7    7.80    1.20
  -3   0   7    6.60    0.90
  -3   0   7    7.70    0.90
  -3   0   7    6.50    1.10
   2   0  -7   80.09    3.10
   2   0  -7   80.69    2.90
   2   0  -7   83.99    2.60
  -2   0   7   75.89    2.80
  -2   0   7   80.29    3.40
  -2   0   7   86.29    3.30
   1   0  -7  378.26    9.90
   1   0  -7  384.46   10.10
   1   0  -7  360.56    9.30
  -1   0   7  377.76   10.10
  -1   0   7  385.06   10.50
   0   0  -7  744.03   18.30
   0   0  -7  781.22   19.00
   0   0  -7  780.72   19.10
   0   0   7  757.72   18.80
   0   0   7  758.52   19.60
  -1   0  -7  370.56    9.90
  -1   0  -7  367.06    9.90
  -1   0  -7  357.06    9.00
   1   0   7  362.56   10.20
  -2   0  -7   74.69    3.10
  -2   0  -7   72.39    3.10
  -2   0  -7   72.99    2.30
   2   0   7   71.99    3.20
  -3   0  -7  566.04   15.20
  -3   0  -7  568.44   14.00
   3   0   7  570.04   15.10
   3   0   7  575.44   15.00
  -4   0  -7   30.70    1.50
  -4   0  -7   30.20    2.20
   4   0   7   29.80    2.10
  -5   0  -7   50.69    3.20
  -5   0  -7   52.89    2.20
  -5   0  -7   47.10    2.70
   5   0   7   55.19    3.00
  -6   0  -7   55.29    2.40
  -6   0  -7   53.09    3.10
  -6   0  -7   50.69    2.40
   6   0   7   52.29    3.10
  -7   0  -7  167.58    6.00
  -7   0  -7  161.68    5.10
  -7   0  -7  158.58    5.00
  -8   0  -7   77.79    2.60
  -8   0  -7   76.39    3.10
  -8   0  -7   80.79    3.90
  -8   0  -7   77.09    3.00
  -9   0  -7    5.80    1.40
  -9   0  -7    7.00    0.80
 -10   0  -7    0.60    0.50
 -10   0  -7    0.00    0.80
 -12   1   7    6.00    0.80
 -11   1   7   10.70    1.20
 -10   1   7   53.69    2.50
   9  -1  -7    4.50    0.90
  -9   1   7    3.10    0.90
   8  -1  -7    5.70    0.90
  -8   1   7    4.00    1.30
  -8   1   7    4.20    1.00
   7  -1  -7  212.28    6.80
  -7   1   7  208.98    7.00
  -7   1   7  210.88    6.20
   6  -1  -7   31.70    2.00
  -6   1   7   30.90    2.20
  -6   1   7   30.40    2.10
   5  -1  -7    7.90    1.10
   5  -1  -7    5.90    0.80
  -5   1   7    6.80    1.20
  -5   1   7    8.70    1.20
   4  -1  -7 2048.40   48.00
   4  -1  -7 2000.20   48.80
   4  -1  -7 2011.40   47.80
  -4   1   7 1965.80   47.90
  -4   1   7 2064.19   48.80
  -4   1   7 1974.90   48.80
  -4   1   7 1978.90   48.20
   3  -1  -7  262.87    7.30
   3  -1  -7  279.87    7.20
   3  -1  -7  262.97    7.90
  -3   1   7  260.17    7.50
  -3   1   7  268.67    8.10
  -3   1   7  277.97    8.00
   2  -1  -7  171.38    5.00
   2  -1  -7  181.78    5.50
   2  -1  -7  171.48    4.80
  -2   1   7  166.18    5.70
  -2   1   7  173.68    5.40
   1  -1  -7  901.31   22.00
   1  -1  -7  849.91   21.20
   1  -1  -7  884.01   21.60
  -1   1   7  873.11   21.70
  -1   1   7  898.11   22.50
   0  -1  -7  137.49    4.50
   0  -1  -7  132.29    3.80
   0  -1  -7  137.09    4.30
   0   1   7  134.39    4.00
   0   1   7  137.69    4.90
  -1  -1  -7  579.14   15.20
  -1  -1  -7  588.64   15.00
  -1  -1  -7  574.84   14.20
   1   1   7  579.04   15.40
  -2  -1  -7   76.79    3.30
  -2  -1  -7   71.29    2.40
   2   1   7   76.09    3.00
   2   1   7   71.99    3.30
  -3  -1  -7  369.86    9.40
  -3  -1  -7  363.96   10.60
   3   1   7  349.37   10.30
   3   1   7  363.86   10.10
  -4  -1  -7    8.70    1.00
  -4  -1  -7    9.50    1.50
   4   1   7    8.10    1.30
  -5  -1  -7   47.90    2.80
  -5  -1  -7   47.30    2.20
   5   1   7   47.00    2.80
  -6  -1  -7    2.70    1.20
  -6  -1  -7    2.70    0.70
  -6  -1  -7    3.20    0.90
  -6  -1  -7    3.20    0.90
  -7  -1  -7    6.30    1.10
  -7  -1  -7    3.20    0.70
  -7  -1  -7    3.70    1.30
  -8  -1  -7   71.09    2.40
  -8  -1  -7   68.99    3.60
  -9  -1  -7  139.79    3.90
  -9  -1  -7  137.79    5.00
 -10  -1  -7    7.60    1.10
 -12   2   7   38.60    2.20
  11  -2  -7    5.80    1.00
 -11   2   7    4.00    0.90
  10  -2  -7  217.28    6.30
   9  -2  -7  292.97    8.10
  -9   2   7  298.17    8.30
   8  -2  -7    1.90    0.70
   8  -2  -7    1.40    0.90
  -8   2   7    1.80    0.90
  -8   2   7    2.10    1.10
   7  -2  -7   17.90    1.70
  -7   2   7   22.80    1.70
  -7   2   7   22.90    2.00
   6  -2  -7   41.30    2.30
  -6   2   7   41.90    2.60
  -6   2   7   40.30    2.30
   5  -2  -7  257.77    7.30
  -5   2   7  256.97    8.00
  -5   2   7  259.07    7.40
   4  -2  -7   28.10    1.50
   4  -2  -7   28.60    1.60
   4  -2  -7   29.70    2.10
  -4   2   7   30.60    2.10
  -4   2   7   29.30    1.50
  -4   2   7   29.00    2.10
  -4   2   7   28.90    1.70
   3  -2  -7   16.40    1.10
   3  -2  -7   18.80    1.60
   3  -2  -7   17.80    1.20
  -3   2   7   15.60    1.40
  -3   2   7   17.30    1.60
  -3   2   7   17.60    1.30
   2  -2  -7  385.16    9.90
   2  -2  -7  389.26   10.10
   2  -2  -7  390.96   10.80
  -2   2   7  394.76   10.50
  -2   2   7  397.06   11.10
   1  -2  -7  563.24   14.90
   1  -2  -7  567.24   14.00
   1  -2  -7  576.44   14.40
  -1   2   7  561.54   14.40
  -1   2   7  573.34   15.30
   0  -2  -7 1577.24   39.40
   0  -2  -7 1617.94   38.90
   0  -2  -7 1608.94   38.40
   0   2   7 1576.04   38.50
   0   2   7 1689.33   39.80
  -1  -2  -7   18.00    1.60
  -1  -2  -7   19.60    1.10
   1   2   7   18.70    1.70
  -2  -2  -7  478.55   12.10
  -2  -2  -7  468.75   13.30
   2   2   7  489.85   13.20
   2   2   7  475.45   12.70
  -3  -2  -7    4.90    1.20
  -3  -2  -7    5.20    0.80
   3   2   7    6.60    1.20
   3   2   7    8.80    1.20
  -4  -2  -7   34.10    2.40
  -4  -2  -7   35.90    2.70
  -4  -2  -7   37.50    1.90
   4   2   7   37.80    2.40
  -5  -2  -7    0.40    0.60
  -5  -2  -7    1.10    0.90
   5   2   7    1.50    0.90
  -6  -2  -7   66.49    2.40
  -6  -2  -7   68.59    3.50
  -6  -2  -7   68.89    2.80
  -7  -2  -7  102.29    3.10
  -7  -2  -7   97.59    4.40
  -8  -2  -7   18.50    2.20
  -8  -2  -7   16.60    1.20
  -9  -2  -7  102.19    2.80
  -9  -2  -7   98.69    3.80
  12  -3  -7   57.19    2.20
  11  -3  -7  112.29    3.80
  10  -3  -7    8.60    1.20
   9  -3  -7  197.68    5.90
  -9   3   7  200.28    6.10
   8  -3  -7   39.90    1.90
  -8   3   7   34.10    2.10
  -8   3   7   33.30    2.60
   7  -3  -7   47.20    2.50
  -7   3   7   48.70    2.40
  -7   3   7   50.69    2.80
   6  -3  -7   20.20    1.60
  -6   3   7   21.20    1.70
  -6   3   7   22.00    2.00
   5  -3  -7  279.37    7.70
  -5   3   7  269.07    8.40
  -5   3   7  275.47    7.60
   4  -3  -7   14.00    1.10
  -4   3   7   11.70    1.50
  -4   3   7   12.20    1.40
   3  -3  -7  100.29    3.30
   3  -3  -7  102.39    4.10
   3  -3  -7  103.19    3.30
  -3   3   7   98.99    4.20
  -3   3   7  107.79    3.90
  -3   3   7   98.29    3.60
   2  -3  -7   14.90    1.40
   2  -3  -7   13.70    1.00
   2  -3  -7   13.40    1.10
  -2   3   7   18.00    1.70
  -2   3   7   13.80    1.20
   1  -3  -7  277.27    8.20
   1  -3  -7  264.87    7.40
   1  -3  -7  268.97    7.20
  -1   3   7  267.87    7.40
  -1   3   7  276.57    8.40
   0  -3  -7   52.69    2.70
   0  -3  -7   52.49    2.40
   0   3   7   58.79    2.90
   0   3   7   52.29    2.80
  -1  -3  -7   28.80    2.10
  -1  -3  -7   32.70    1.60
   1   3   7   30.20    2.20
   1   3   7   31.20    1.80
  -2  -3  -7 1158.08   30.10
  -2  -3  -7 1195.08   28.50
   2   3   7 1199.08   29.90
   2   3   7 1165.18   29.00
  -3  -3  -7  236.38    6.40
  -3  -3  -7  236.78    9.40
   3   3   7  225.38    7.00
   3   3   7  209.38    7.30
  -4  -3  -7   78.29    3.60
  -4  -3  -7   77.69    2.90
   4   3   7   74.49    3.50
  -5  -3  -7   14.30    1.10
  -5  -3  -7   15.20    2.00
  -5  -3  -7   18.20    1.60
   5   3   7   12.20    1.70
  -6  -3  -7  216.38    7.20
  -6  -3  -7  214.88    5.80
  -7  -3  -7   21.70    1.30
  -7  -3  -7   22.00    2.30
  -8  -3  -7  198.78    6.50
  -8  -3  -7  202.38    5.20
  -9  -3  -7   20.40    1.70
  13  -4  -7   17.00    1.10
  12  -4  -7    2.20    0.80
  11  -4  -7   34.90    2.00
  10  -4  -7   28.10    2.00
 -10   4   7   27.40    2.00
   9  -4  -7   40.90    2.20
  -9   4   7   36.80    2.30
   8  -4  -7    2.80    0.80
  -8   4   7    1.10    0.80
  -8   4   7    0.90    0.90
  -7   4   7  170.98    5.80
  -7   4   7  171.68    5.50
  -6   4   7   10.50    1.60
  -6   4   7   10.00    1.30
  -5   4   7  409.86   11.80
  -4   4   7   48.10    2.70
  -4   4   7   48.30    2.90
  -3   4   7  112.49    4.70
  -3   4   7  116.79    4.20
   2  -4  -7  429.86   12.00
  -2   4   7  425.46   11.30
  -2   4   7  419.56   12.20
   1  -4  -7   68.39    3.20
   1  -4  -7   67.59    3.70
  -1   4   7   69.29    2.70
  -1   4   7   70.39    3.40
   0  -4  -7  688.83   19.20
   0  -4  -7  696.13   17.20
   0   4   7  677.43   18.80
   0   4   7  707.33   18.50
  -1  -4  -7   63.99    2.40
   1   4   7   64.49    3.40
   1   4   7   62.39    2.70
  -2  -4  -7  717.43   17.80
   2   4   7  709.43   18.30
   2   4   7  714.53   19.10
  -3  -4  -7  347.67   10.20
  -3  -4  -7  341.87    9.70
   3   4   7  343.17   11.20
  -4  -4  -7   70.59    2.40
  -4  -4  -7   71.79    3.50
  -5  -4  -7  120.29    3.60
  -5  -4  -7  123.69    4.90
  -6  -4  -7   12.30    1.80
  -6  -4  -7   12.20    1.00
  -7  -4  -7    2.50    1.20
  -7  -4  -7    4.70    0.70
  -8  -4  -7   47.80    2.60
  13  -5  -7   36.40    1.60
  12  -5  -7  103.89    3.40
  11  -5  -7    0.60    0.90
  10  -5  -7   83.79    3.30
 -10   5   7   79.49    3.30
   9  -5  -7  104.59    3.80
  -9   5   7  106.69    4.00
   8  -5  -7   26.60    1.80
  -8   5   7   23.70    2.20
  -8   5   7   24.60    2.00
   7  -5  -7  205.88    6.10
  -7   5   7  209.88    6.70
  -7   5   7  213.68    6.50
  -6   5   7  275.67    8.10
  -6   5   7  288.27   11.80
  -5   5   7  310.37    9.50
  -4   5   7   41.70    2.50
  -4   5   7   39.50    2.70
  -3   5   7 1132.69   27.90
  -3   5   7 1101.79   28.70
  -2   5   7    8.40    1.10
  -2   5   7    7.70    1.40
  -1   5   7   21.60    1.50
  -1   5   7   22.10    2.10
   0   5   7 1056.39   27.30
   1   5   7  125.89    5.20
  -2  -5  -7  251.27    7.90
  -3  -5  -7  120.79    4.80
  -3  -5  -7  121.59    3.50
   3   5   7  112.69    3.60
  -4  -5  -7   87.69    2.70
  -4  -5  -7   85.69    4.00
  -5  -5  -7   57.69    2.10
  -5  -5  -7   58.59    3.20
  -6  -5  -7    3.00    1.20
  -6  -5  -7    1.10    0.50
  -7  -5  -7   43.90    2.70
  -8  -5  -7  200.58    6.10
  13  -6  -7   27.50    1.40
  12  -6  -7   34.70    1.90
  11  -6  -7  271.37    7.60
  10  -6  -7  374.66    9.90
 -10   6   7  358.86   10.10
   9  -6  -7   59.79    2.70
  -9   6   7   57.39    2.90
   8  -6  -7    5.50    1.00
  -8   6   7    2.80    1.10
   7  -6  -7   87.39    3.00
  -7   6   7   80.19    3.40
  -6   6   7  135.19    4.60
  -5   6   7  209.08    7.20
  -4   6   7  188.18    6.40
  -4   6   7  194.58    7.10
  -3   6   7   23.20    2.30
  -3   6   7   22.30    1.80
  -2   6   7    2.30    1.00
  -2   6   7    2.90    0.80
  -1   6   7  230.08    7.90
   0   6   7   62.39    3.60
  -1  -6  -7  401.66   11.50
  -2  -6  -7  265.97    8.50
   2   6   7  267.37    7.20
  -3  -6  -7    4.80    0.70
  -3  -6  -7    6.40    1.40
   3   6   7    4.40    0.80
  -4  -6  -7   56.29    1.90
  -4  -6  -7   53.69    3.20
   4   6   7   51.99    2.20
  -5  -6  -7    4.30    1.40
  -5  -6  -7    4.30    0.60
  -6  -6  -7   94.69    4.00
  -7  -6  -7    8.00    1.30
  13  -7  -7  111.09    3.30
  12  -7  -7   96.79    3.30
  11  -7  -7   83.29    3.10
 -11   7   7   73.29    3.00
  10  -7  -7   20.60    1.90
 -10   7   7   18.00    1.90
   9  -7  -7    7.50    1.10
  -9   7   7    7.30    1.30
   8  -7  -7    4.30    1.00
  -8   7   7    2.30    1.00
   7  -7  -7   20.80    1.50
  -7   7   7   21.20    1.90
  -6   7   7    1.60    0.80
  -5   7   7   61.49    2.80
  -5   7   7   52.39    2.50
  -4   7   7   34.60    4.20
  -3   7   7  107.39    4.30
  -3   7   7  110.19    5.20
  -2   7   7  101.89    4.10
  -2   7   7  114.39    5.30
   1  -7  -7  205.78    6.60
   0  -7  -7  228.58    7.30
  -1  -7  -7   59.09    3.30
   1   7   7   58.29    2.40
  -2  -7  -7    1.50    0.50
  -2  -7  -7    0.80    1.10
   2   7   7    1.40    0.60
  -3  -7  -7    1.40    1.20
   3   7   7    2.40    0.70
  -4  -7  -7  107.09    4.60
   4   7   7   99.49    3.40
  -5  -7  -7   11.20    1.60
  -6  -7  -7  139.99    4.90
  12  -8  -7    0.40    0.70
  11  -8  -7   79.49    3.00
 -11   8   7   72.79    3.00
  10  -8  -7  159.48    5.00
 -10   8   7  157.38    5.20
   9  -8  -7    2.10    0.90
  -9   8   7   -0.30    0.90
   8  -8  -7   61.89    2.60
  -8   8   7   66.99    3.30
   7  -8  -7    8.70    1.10
  -7   8   7    9.60    1.50
   6  -8  -7  340.47    9.00
  -6   8   7  344.47   10.20
  -6   8   7  345.97    9.70
  -5   8   7    1.50    0.80
  -5   8   7    1.60    1.10
   4  -8  -7   -0.90    1.60
  -4   8   7    1.40    0.70
   3  -8  -7   95.29    4.40
  -3   8   7   89.59    3.30
   2  -8  -7    8.70    1.40
   1  -8  -7  623.94   16.60
  -1   8   7  613.24   15.50
   0  -8  -7  157.88    5.80
   0   8   7  150.48    4.70
  -1  -8  -7   24.80    2.50
   1   8   7   22.20    1.60
  -2  -8  -7    9.80    1.80
   2   8   7    7.50    1.00
  -3  -8  -7  386.96   11.40
   3   8   7  382.86   10.10
  -4  -8  -7   11.60    1.70
   4   8   7    9.40    1.00
  -5  -8  -7    5.70    1.30
  12  -9  -7    3.00    0.80
  11  -9  -7   87.89    3.10
 -11   9   7   79.29    3.10
  10  -9  -7    5.30    1.00
 -10   9   7    2.70    1.10
   9  -9  -7    2.10    0.90
  -9   9   7    2.20    1.10
   8  -9  -7  207.08    6.00
  -8   9   7  206.78    6.70
   7  -9  -7   73.99    2.80
  -7   9   7   80.09    3.60
  -7   9   7   72.09    3.80
  -6   9   7  344.87    9.70
  -6   9   7  340.37   10.30
   5  -9  -7   12.30    2.50
  -5   9   7   11.70    1.40
   4  -9  -7  300.27    9.80
  -4   9   7  285.57    8.20
   3  -9  -7    9.50    1.90
  -3   9   7    9.20    1.10
  -3   9   7    8.90    1.10
   2  -9  -7   75.49    3.60
  -2   9   7   71.19    2.80
   1  -9  -7    3.00    1.20
  -1   9   7    1.70    0.80
   0  -9  -7  320.97    9.80
   0   9   7  310.17    8.50
  -1  -9  -7    1.90    1.30
   1   9   7    1.00    0.80
  -2  -9  -7   18.80    2.40
   2   9   7   16.30    1.50
  -3  -9  -7    5.80    1.40
   3   9   7    7.10    1.00
  -4  -9  -7   54.69    3.00
   4   9   7   56.29    2.20
  -5  -9  -7  212.28    6.40
  12 -10  -7   14.30    1.10
  11 -10  -7    0.40    0.80
 -11  10   7    1.20    0.80
  10 -10  -7  330.07    8.70
 -10  10   7  319.47    9.10
   9 -10  -7    8.70    1.10
  -9  10   7   10.10    1.50
   8 -10  -7   67.89    2.90
  -8  10   7   67.59    3.30
  -7  10   7   30.30    2.80
  -7  10   7   32.10    2.40
   6 -10  -7  139.69    6.70
  -6  10   7  141.29    5.00
   5 -10  -7   13.10    2.70
  -5  10   7    6.50    1.20
   4 -10  -7   69.09    4.30
  -4  10   7   72.99    3.00
   3 -10  -7   13.40    2.00
  -3  10   7   13.50    1.30
  -3  10   7   14.20    1.40
   2 -10  -7   27.10    2.40
  -2  10   7   30.60    1.80
   1 -10  -7   34.60    2.90
  -1  10   7   37.30    2.00
   0 -10  -7   17.10    2.20
   0  10   7   21.10    1.60
  -1 -10  -7   21.80    2.50
   1  10   7   26.10    1.80
  -2 -10  -7  204.68    7.10
   2  10   7  209.38    5.90
  -3 -10  -7  138.19    5.10
   3  10   7  136.19    4.10
  -4 -10  -7    4.30    1.10
   4  10   7    4.50    0.70
  11 -11  -7    2.50    0.70
 -11  11   7    3.60    0.80
  10 -11  -7    9.30    1.10
 -10  11   7    8.10    1.20
   9 -11  -7  120.49    6.00
  -9  11   7   98.09    4.00
   8 -11  -7  240.38    9.00
  -8  11   7  228.28    7.20
   7 -11  -7    7.70    2.70
  -7  11   7    1.00    1.00
   6 -11  -7    5.70    2.50
  -6  11   7    1.90    1.00
   5 -11  -7   30.20    3.80
  -5  11   7   21.20    1.90
   4 -11  -7   40.10    3.30
  -4  11   7   40.30    2.30
   3 -11  -7   12.20    2.00
  -3  11   7   12.30    1.40
   2 -11  -7  111.39    4.90
  -2  11   7  116.29    4.00
   1 -11  -7    3.30    1.50
  -1  11   7    5.00    1.00
   0 -11  -7   14.00    2.00
   0  11   7   14.70    1.40
  -1 -11  -7    4.90    1.40
   1  11   7    3.40    0.90
  -2 -11  -7   60.19    3.20
   2  11   7   57.79    2.30
  -3 -11  -7    8.30    1.30
   3  11   7    7.80    0.90
   4  11   7   23.80    1.20
 -10  12   7  103.49    3.60
   9 -12  -7   31.30    4.10
  -9  12   7   23.70    1.90
   8 -12  -7    6.50    2.60
  -8  12   7    0.60    0.90
   7 -12  -7  178.48    7.30
  -7  12   7  163.38    5.60
   6 -12  -7   10.90    2.50
  -6  12   7   13.00    1.50
   5 -12  -7    9.40    2.10
  -5  12   7    7.10    1.20
   4 -12  -7   34.60    3.00
  -4  12   7   38.70    2.20
   3 -12  -7    9.00    1.80
  -3  12   7   10.60    1.20
   2 -12  -7   52.19    3.40
  -2  12   7   51.19    2.40
   1 -12  -7  199.68    6.90
  -1  12   7  191.48    5.70
   0 -12  -7    8.70    1.60
   0  12   7    8.60    1.10
  -1 -12  -7    3.40    1.20
   1  12   7    4.90    0.80
  -2 -12  -7   74.19    3.20
   2  12   7   76.99    2.60
   3  12   7  103.09    3.00
 -10  13   7    2.90    0.80
   9 -13  -7   24.00    3.10
  -9  13   7   27.40    1.80
   8 -13  -7   27.40    2.90
  -8  13   7   28.30    2.00
   7 -13  -7   -0.30    1.70
  -7  13   7    0.30    0.80
   6 -13  -7   89.49    4.40
  -6  13   7   95.89    3.60
   5 -13  -7    9.20    1.80
  -5  13   7   11.60    1.40
   4 -13  -7   39.30    2.90
  -4  13   7   43.50    2.20
   3 -13  -7    8.80    1.70
  -3  13   7   10.00    1.10
   2 -13  -7    1.10    1.10
  -2  13   7    1.00    0.70
   1 -13  -7    6.10    1.40
  -1  13   7    6.00    0.90
   0 -13  -7    7.50    1.40
   0  13   7    7.70    0.90
  -1 -13  -7    5.20    1.00
   1  13   7    4.00    0.70
   2  13   7    0.90    0.50
  -9  14   7    1.30    0.70
   8 -14  -7   46.80    2.70
  -8  14   7   50.79    2.20
   7 -14  -7   15.60    2.10
  -7  14   7   17.20    1.50
   6 -14  -7   30.00    2.40
  -6  14   7   33.20    1.90
   5 -14  -7    1.70    1.10
  -5  14   7    4.10    0.90
   4 -14  -7   48.00    2.90
   3 -14  -7   49.40    2.90
  -3  14   7   47.50    2.00
   2 -14  -7    4.20    1.20
  -2  14   7    4.10    0.80
   1 -14  -7   76.39    3.20
  -1  14   7   69.09    2.40
   0  14   7    5.20    0.70
   7 -15  -7    1.40    1.10
   6 -15  -7    1.90    0.90
   5 -15  -7   25.70    1.90
   4 -15  -7   69.39    3.00
   3 -15  -7    1.80    0.80
   0  15  -8   23.30    1.40
   0  15  -8   22.80    1.90
  -1  15  -8    0.50    0.60
  -1  15  -8    0.40    0.70
  -1  15  -8    0.80    0.90
  -2  15  -8   72.49    2.90
  -2  15  -8   72.19    3.00
  -3  15  -8   57.49    2.60
  -3  15  -8   57.79    2.60
  -4  15  -8   11.50    1.30
   2  14  -8    4.70    0.90
   2  14  -8    3.00    0.80
  -2 -14   8    3.80    0.80
   1  14  -8   76.49    2.80
   1  14  -8   77.29    3.20
  -1 -14   8   79.39    2.90
   0  14  -8    2.00    1.10
   0  14  -8    0.50    0.80
   0  14  -8   -0.80    0.80
  -1  14  -8   39.70    2.50
  -1  14  -8   39.70    2.40
  -1  14  -8   38.70    2.00
  -2  14  -8  111.09    4.10
  -2  14  -8  102.29    4.10
  -3  14  -8  104.09    4.10
  -3  14  -8  113.29    4.10
  -4  14  -8   15.30    1.70
  -4  14  -8   18.20    1.80
   4  13  -8   34.50    1.20
   4  13  -8   34.30    1.60
   3  13  -8   20.20    1.70
   3  13  -8   18.80    1.50
  -3 -13   8   22.20    1.50
   2  13  -8   20.90    2.00
   2  13  -8   20.10    1.60
  -2 -13   8   19.40    1.70
   1  13  -8   58.19    3.10
   1  13  -8   50.39    2.80
   1  13  -8   61.89    2.70
   0  13  -8   12.90    1.70
   0  13  -8   14.00    1.50
   0  13  -8   12.00    1.70
  -1  13  -8    1.20    1.30
  -1  13  -8    1.40    1.20
  -1  13  -8    0.70    0.90
  -2  13  -8  486.45   13.20
  -2  13  -8  499.55   13.50
  -3  13  -8   86.19    3.80
  -3  13  -8   89.29    3.70
  -4  13  -8   93.39    3.80
  -4  13  -8   94.09    4.70
   5  12  -8   12.80    1.00
   5  12  -8   13.30    0.80
  -5 -12   8   10.80    1.00
   4  12  -8    8.80    1.10
   4  12  -8   12.10    1.30
  -4 -12   8    9.60    1.10
   3  12  -8   12.90    1.60
   3  12  -8   11.10    1.30
  -3 -12   8   11.50    1.40
   2  12  -8   16.40    1.60
   2  12  -8   14.60    1.70
   2  12  -8   15.90    1.90
   1  12  -8   10.60    1.70
   1  12  -8    9.40    1.30
   1  12  -8    8.30    1.50
   1  12  -8   10.30    1.30
   0  12  -8    0.20    1.20
   0  12  -8    0.80    0.60
   0  12  -8    2.00    1.00
   0  12  -8    1.90    1.30
  -1  12  -8   65.29    3.40
  -1  12  -8   60.19    3.40
  -1  12  -8   57.79    2.40
  -1  12  -8   62.69    2.80
  -2  12  -8   45.80    2.80
  -2  12  -8   41.40    2.30
  -2  12  -8   41.10    1.80
  -2  12  -8   40.50    2.80
  -3  12  -8   18.00    2.00
  -4  12  -8   96.29    4.00
   6  11  -8    3.90    0.50
  -6 -11   8    3.90    0.70
   5  11  -8    0.70    0.70
   5  11  -8    1.00    0.80
  -5 -11   8    1.40    0.70
   4  11  -8   22.10    1.80
   4  11  -8   21.50    2.00
  -4 -11   8   21.30    1.80
   3  11  -8   11.90    1.80
   3  11  -8   10.80    1.30
   3  11  -8   12.30    1.40
  -3 -11   8   12.00    1.50
   2  11  -8   27.70    2.40
   2  11  -8   33.10    2.00
   2  11  -8   35.00    2.20
   2  11  -8   35.50    2.80
   1  11  -8  105.89    3.70
   1  11  -8  102.09    4.30
   1  11  -8  101.89    3.90
   1  11  -8  106.39    4.50
   0  11  -8   92.79    4.20
   0  11  -8   98.89    4.10
   0  11  -8   91.49    3.30
   0  11  -8   97.09    3.60
  -1  11  -8  195.98    6.00
  -1  11  -8  205.18    6.70
  -1  11  -8  193.38    5.50
  -2  11  -8   24.70    1.80
  -2  11  -8   22.30    2.30
  -3  11  -8   60.19    3.10
  -8  11  -8  104.79    4.50
  -9  11  -8  153.28    5.30
   7  10  -8   48.80    1.40
  -7 -10   8   47.30    1.90
   6  10  -8   82.09    2.90
   6  10  -8   88.79    2.50
  -6 -10   8   83.29    3.00
   5  10  -8   89.69    3.60
   5  10  -8   88.49    3.20
  -5 -10   8   84.49    3.30
   4  10  -8   73.89    3.10
   4  10  -8   70.59    3.50
   4  10  -8   68.39    3.00
  -4 -10   8   75.99    3.30
   3  10  -8   37.40    2.30
   3  10  -8   37.90    2.90
   3  10  -8   38.50    2.20
   3  10  -8   38.50    2.60
   2  10  -8    4.00    1.00
   2  10  -8    3.30    1.40
   2  10  -8    2.90    1.20
   2  10  -8    3.50    1.10
   1  10  -8   20.00    1.50
   1  10  -8   19.70    1.80
   1  10  -8   21.20    2.20
   0  10  -8   20.50    1.70
   0  10  -8   24.00    2.40
   0  10  -8   23.20    1.40
  -1  10  -8  320.77    8.80
  -1  10  -8  344.17    9.90
  -1  10  -8  343.07    9.10
  -2  10  -8   69.89    3.30
  -2  10  -8   60.59    2.70
  -3  10  -8  166.28    5.60
  -7  10  -8   34.50    2.80
  -8  10  -8   28.70    2.70
  -9  10  -8    3.70    1.30
 -10  10  -8   33.70    1.60
 -10  10  -8   34.30    2.20
   7   9  -8  154.38    4.00
  -7  -9   8  156.58    4.60
   6   9  -8  148.79    4.50
   6   9  -8  153.68    4.10
   6   9  -8  143.29    4.80
  -6  -9   8  145.79    4.70
   5   9  -8    3.90    1.00
   5   9  -8    6.00    1.10
   5   9  -8    5.40    1.30
  -5  -9   8    3.90    1.00
   4   9  -8    4.50    1.10
   4   9  -8    4.10    1.10
   4   9  -8    5.90    1.50
  -4  -9   8    6.00    1.30
   3   9  -8   11.80    1.80
   3   9  -8   13.00    1.50
   3   9  -8   15.00    1.60
   2   9  -8  155.08    5.80
   2   9  -8  161.18    5.10
   2   9  -8  162.28    5.10
   1   9  -8    2.80    0.70
   1   9  -8    2.70    1.20
   1   9  -8    2.60    0.90
   0   9  -8  834.02   19.80
   0   9  -8  818.12   20.30
   0   9  -8  799.02   21.00
   0  -9   8  804.02   21.70
  -1   9  -8   42.20    2.10
  -1   9  -8   40.20    2.60
   1  -9   8   40.70    3.00
  -2   9  -8  158.78    5.40
  -6   9  -8   59.99    3.50
  -7   9  -8  189.58    6.90
  -8   9  -8    5.60    0.80
  -8   9  -8    6.70    1.70
  -8   9  -8    5.90    1.20
  -9   9  -8  136.29    5.30
  -9   9  -8  140.99    4.40
 -10   9  -8  176.28    5.80
 -10   9  -8  181.68    5.10
  -8  -8   8   54.59    2.20
   7   8  -8  271.17    6.80
  -7  -8   8  262.57    7.40
   6   8  -8    0.80    1.00
   6   8  -8    0.00    0.60
   6   8  -8    1.00    0.80
  -6  -8   8    2.30    0.90
   5   8  -8    6.60    1.50
   5   8  -8    8.30    1.20
   5   8  -8    5.10    1.10
  -5  -8   8    6.90    1.20
   4   8  -8    6.60    1.20
   4   8  -8    5.00    1.50
   4   8  -8    2.90    1.00
  -4  -8   8    7.50    1.80
   3   8  -8    5.60    1.10
   3   8  -8    3.20    1.40
   3   8  -8    7.30    1.20
   2   8  -8   98.79    4.10
   2   8  -8   90.69    3.40
   2   8  -8   95.79    3.30
  -2  -8   8   83.79    4.30
   1   8  -8   16.00    1.90
   1   8  -8   17.10    1.50
   1   8  -8   14.50    1.10
  -1  -8   8   13.10    1.80
   0   8  -8    3.30    1.10
   0   8  -8    3.30    0.60
   0   8  -8    2.50    0.80
   0  -8   8    3.60    1.20
  -1   8  -8  131.49    4.70
  -2   8  -8  943.31   23.60
  -6   8  -8  111.89    4.90
  -6   8  -8  109.59    4.00
  -7   8  -8    2.30    1.30
  -7   8  -8    0.80    0.90
  -8   8  -8   94.29    3.60
  -8   8  -8   93.89    3.10
  -8   8  -8   91.99    4.50
  -9   8  -8    1.80    1.00
  -9   8  -8    3.80    1.40
 -10   8  -8    2.30    1.10
 -10   8  -8    1.50    0.80
 -11   8  -8    9.30    0.90
  -9  -7   8   20.50    1.20
   8   7  -8    1.60    0.50
  -8  -7   8    2.00    0.80
   7   7  -8   47.80    2.60
   7   7  -8   48.30    1.90
  -7  -7   8   50.49    2.40
   6   7  -8    8.10    1.40
  -6  -7   8    7.80    1.20
   5   7  -8   18.30    2.00
   5   7  -8   22.80    1.80
   5   7  -8   20.90    1.80
   4   7  -8   61.39    2.80
   4   7  -8   61.29    3.30
   4   7  -8   58.69    2.80
   3   7  -8    8.50    1.20
   3   7  -8    7.40    1.50
   3   7  -8   10.40    1.30
  -3  -7   8    6.50    1.50
   2   7  -8   23.00    1.50
   2   7  -8   20.10    2.10
   2   7  -8   21.70    1.60
  -2  -7   8   23.00    2.20
   1   7  -8  482.05   11.90
   1   7  -8  477.85   12.90
  -1  -7   8  470.65   13.40
   0   7  -8   15.20    1.30
   0   7  -8   16.60    1.80
   0  -7   8   14.90    1.20
   0  -7   8   17.50    1.80
  -1   7  -8   67.59    2.30
   1  -7   8   67.29    3.50
   1  -7   8   64.89    2.20
   1  -7   8   63.09    3.70
   2  -7   8   57.59    3.30
   2  -7   8   57.79    3.40
  -5   7  -8   10.40    1.30
  -5   7  -8   13.20    1.80
  -6   7  -8   48.90    3.20
  -6   7  -8   50.69    2.60
  -7   7  -8   14.30    2.10
  -7   7  -8   12.70    1.50
  -7   7  -8   16.20    1.20
  -8   7  -8  118.39    4.20
  -8   7  -8  123.09    5.20
  -8   7  -8  110.99    3.70
  -9   7  -8   45.60    2.50
 -10   7  -8   69.39    2.70
 -10   7  -8   68.39    3.40
 -11   7  -8    5.10    0.80
 -11   7  -8    4.20    1.30
  -9  -6   8    0.30    0.60
   8   6  -8   38.60    1.50
  -8  -6   8   36.70    2.10
   7   6  -8  177.28    4.80
   7   6  -8  171.68    5.70
  -7  -6   8  177.98    5.50
   6   6  -8    8.40    1.50
   5   6  -8  232.78    6.90
   5   6  -8  228.58    6.70
   5   6  -8  229.48    7.30
   4   6  -8   19.60    1.60
   4   6  -8   18.00    2.00
   4   6  -8   19.20    2.10
   4   6  -8   19.60    1.60
  -4  -6   8   18.10    2.30
   3   6  -8   10.70    1.50
   3   6  -8    8.90    1.40
   3   6  -8    7.20    1.10
  -3  -6   8    7.20    1.50
   2   6  -8   20.20    1.80
   2   6  -8   22.10    1.80
   2   6  -8   22.30    1.30
   2   6  -8   21.20    1.90
  -2  -6   8   21.30    2.00
  -2  -6   8   20.20    1.60
   1   6  -8   12.60    2.00
   1   6  -8    8.90    1.10
   1   6  -8    9.50    1.30
   1   6  -8    8.80    0.70
  -1  -6   8    9.10    1.30
  -1  -6   8    9.60    1.00
  -1  -6   8    7.80    1.40
   0   6  -8    6.70    1.50
   0   6  -8    7.20    0.90
   0   6  -8    6.40    1.10
   0  -6   8    7.20    1.20
   0  -6   8    7.30    1.50
   0  -6   8    7.80    1.30
   0  -6   8    8.00    0.80
  -1   6  -8   22.70    1.80
  -1   6  -8   23.40    1.20
   1  -6   8   23.20    1.90
   1  -6   8   25.90    2.30
  -2   6  -8  117.29    4.50
   2  -6   8  115.19    4.80
  -3   6  -8   64.59    3.30
   4  -6   8   14.70    1.70
  -5   6  -8  115.69    3.90
  -5   6  -8  109.09    4.50
   5  -6   8  109.89    4.60
  -6   6  -8   25.50    2.00
  -6   6  -8   26.20    2.50
  -7   6  -8  100.89    4.70
  -7   6  -8   98.49    3.30
  -7   6  -8  106.89    3.90
  -8   6  -8   49.60    2.60
  -8   6  -8   43.80    2.10
  -8   6  -8   44.20    3.20
  -9   6  -8   40.30    3.00
  -9   6  -8   39.30    1.90
  -9   6  -8   40.90    2.40
 -10   6  -8  158.48    5.60
 -10   6  -8  158.08    4.80
 -11   6  -8   36.90    1.70
 -11   6  -8   36.60    2.10
  -9  -5   8    4.20    0.90
   8   5  -8    6.20    0.70
  -8  -5   8    4.50    1.00
   7   5  -8    3.10    1.10
   7   5  -8    0.90    0.60
   6   5  -8   62.29    2.80
   6   5  -8   61.19    3.10
   6   5  -8   58.19    2.20
   5   5  -8  144.89    4.70
   5   5  -8  140.59    5.50
   5   5  -8  138.99    4.50
   5   5  -8  141.79    5.10
  -5  -5   8  140.49    5.90
   4   5  -8  122.29    4.90
   4   5  -8  127.69    4.70
   4   5  -8  133.59    4.30
  -4  -5   8  121.19    5.20
   3   5  -8    7.10    1.60
   3   5  -8   10.00    1.10
   3   5  -8    7.70    1.30
   3   5  -8    6.70    1.20
   3   5  -8    8.70    2.10
  -3  -5   8    7.10    1.50
  -3  -5   8    8.10    1.50
  -3  -5   8    8.50    1.70
  -3  -5   8    7.50    1.10
   2   5  -8    3.60    0.60
   2   5  -8    3.20    0.80
   2   5  -8    2.70    0.90
   2   5  -8    2.50    1.10
  -2  -5   8    3.10    1.00
  -2  -5   8    2.20    1.10
  -2  -5   8    3.60    0.80
  -2  -5   8    3.00    0.90
   1   5  -8  496.85   12.30
   1   5  -8  511.85   13.50
   1   5  -8  502.05   13.20
   1   5  -8  494.85   14.60
  -1  -5   8  502.05   13.50
  -1  -5   8  497.75   12.80
  -1  -5   8  510.85   14.50
  -1  -5   8  531.35   14.20
   0   5  -8   28.50    1.90
   0   5  -8   31.40    1.50
   0  -5   8   32.40    2.20
   0  -5   8   29.30    1.30
   0  -5   8   28.70    2.30
  -1   5  -8    5.20    1.00
  -1   5  -8    6.00    0.70
   1  -5   8    6.20    1.20
   1  -5   8    5.40    1.00
  -2   5  -8  529.45   14.10
   2  -5   8  510.85   14.30
  -3   5  -8   12.60    1.60
  -4   5  -8  215.18    6.00
   4  -5   8  219.98    7.10
  -5   5  -8   36.50    2.00
  -5   5  -8   34.60    2.60
   5  -5   8   39.10    2.60
  -6   5  -8   29.50    1.90
  -6   5  -8   29.50    1.50
  -6   5  -8   30.00    2.50
  -7   5  -8    7.60    1.00
  -7   5  -8    7.50    1.30
  -7   5  -8    6.90    1.70
  -8   5  -8   72.99    3.20
  -8   5  -8   78.99    4.00
  -8   5  -8   68.49    2.80
  -9   5  -8    4.20    1.40
  -9   5  -8    3.90    0.80
  -9   5  -8    4.90    1.20
 -10   5  -8   53.59    3.00
 -10   5  -8   59.39    2.50
 -11   5  -8   18.60    1.20
 -11   5  -8   18.10    1.50
 -10  -4   8    2.00    1.00
  -9  -4   8    2.10    0.90
   8   4  -8  167.58    4.40
  -8  -4   8  156.28    5.10
   7   4  -8  149.88    4.20
   7   4  -8  147.89    5.10
   6   4  -8   83.39    2.80
   6   4  -8   86.69    3.30
   6   4  -8   85.59    3.60
   5   4  -8  118.59    4.80
   5   4  -8  118.19    4.10
   5   4  -8  124.89    4.50
  -5  -4   8  115.79    5.10
   4   4  -8   11.00    1.40
   4   4  -8   10.00    1.60
   4   4  -8   10.70    1.50
   4   4  -8    9.50    1.20
  -4  -4   8    8.00    1.60
  -4  -4   8    8.70    1.30
  -4  -4   8    9.70    1.60
   3   4  -8  484.25   13.40
   3   4  -8  501.45   13.20
   3   4  -8  490.35   12.40
  -3  -4   8  469.85   13.70
  -3  -4   8  482.65   12.90
  -3  -4   8  489.95   13.50
  -3  -4   8  471.25   14.00
   2   4  -8    2.80    0.60
   2   4  -8    2.10    0.80
   2   4  -8    2.30    0.70
  -2  -4   8    2.70    0.80
  -2  -4   8    1.80    0.60
  -2  -4   8    2.40    1.00
  -2  -4   8    1.50    0.80
   1   4  -8    2.00    0.60
   1   4  -8    2.10    0.40
   1   4  -8    2.50    0.70
  -1  -4   8    4.80    1.00
  -1  -4   8    3.20    1.00
  -1  -4   8    3.10    0.60
   0   4  -8   12.40    1.00
   0   4  -8   12.00    1.30
   0  -4   8   15.30    1.50
   0  -4   8   12.50    1.60
  -1   4  -8  747.43   18.20
  -1   4  -8  738.03   19.00
   1  -4   8  750.72   19.60
   1  -4   8  744.13   19.00
  -2   4  -8 1061.39   25.70
  -2   4  -8 1066.49   24.50
   2  -4   8  915.81   25.70
  -3   4  -8  168.58    5.90
  -3   4  -8  164.08    4.90
  -4   4  -8  189.48    5.80
   4  -4   8  202.68    6.60
  -5   4  -8  123.59    4.90
  -5   4  -8  123.89    3.60
   5  -4   8  125.19    4.90
  -6   4  -8  208.98    7.20
  -6   4  -8  216.98    6.30
  -6   4  -8  212.98    5.90
   6  -4   8  202.48    8.10
  -7   4  -8  220.88    6.20
  -7   4  -8  210.88    6.50
  -7   4  -8  214.18    7.40
  -8   4  -8    7.60    1.70
  -8   4  -8    8.80    1.20
  -8   4  -8    8.70    1.40
  -9   4  -8   93.39    3.40
  -9   4  -8   98.29    4.40
  -9   4  -8   95.59    3.60
 -10   4  -8   80.29    3.50
 -10   4  -8   79.49    2.90
 -10   4  -8   69.09    2.50
 -11   4  -8   21.10    1.20
   8   3  -8   87.49    2.70
  -8  -3   8   85.09    3.40
   7   3  -8    0.30    0.50
   7   3  -8    0.90    1.00
   6   3  -8  437.46   12.40
   6   3  -8  404.66   10.70
   6   3  -8  428.96   11.70
   6   3  -8  436.76   11.40
  -6  -3   8  431.76   12.60
   5   3  -8 1093.49   26.80
   5   3  -8 1056.79   25.80
   5   3  -8 1051.99   27.60
   5   3  -8 1047.20   26.20
  -5  -3   8  995.70   26.60
  -5  -3   8 1071.89   27.10
   4   3  -8   34.20    2.40
   4   3  -8   35.80    1.80
   4   3  -8   37.60    2.30
  -4  -3   8   36.10    2.60
  -4  -3   8   34.00    2.60
  -4  -3   8   39.50    2.50
  -4  -3   8   33.70    2.10
   3   3  -8   54.99    2.10
   3   3  -8   49.40    2.60
   3   3  -8   51.49    2.50
  -3  -3   8   48.70    2.30
  -3  -3   8   49.40    3.00
  -3  -3   8   49.30    2.60
  -3  -3   8   50.89    2.90
   2   3  -8  802.32   19.80
   2   3  -8  764.12   18.90
   2   3  -8  779.52   19.70
  -2  -3   8  766.52   20.50
  -2  -3   8  785.02   19.40
  -2  -3   8  806.62   20.40
  -2  -3   8  741.33   20.60
   1   3  -8 1331.17   31.80
   1   3  -8 1316.87   31.60
   1   3  -8 1267.37   30.80
  -1  -3   8 1273.27   31.20
  -1  -3   8 1296.47   32.50
  -1  -3   8 1312.37   32.20
   0   3  -8  729.93   18.00
   0   3  -8  736.53   18.50
   0  -3   8  735.13   19.20
   0  -3   8  719.03   18.60
  -1   3  -8  473.25   11.80
  -1   3  -8  466.25   12.50
   1  -3   8  444.06   12.20
   1  -3   8  479.85   13.00
  -2   3  -8   48.90    2.60
  -2   3  -8   46.20    2.00
   2  -3   8   44.90    2.50
  -3   3  -8   20.20    1.40
   3  -3   8   21.80    1.80
  -4   3  -8   56.19    1.90
  -4   3  -8   56.89    2.60
   4  -3   8   62.19    3.10
  -5   3  -8    2.10    0.60
  -5   3  -8    1.40    0.90
   5  -3   8    3.10    1.10
  -6   3  -8  167.98    5.20
  -6   3  -8  161.18    4.80
  -6   3  -8  164.98    6.00
   6  -3   8  156.28    7.10
  -7   3  -8   16.80    1.50
  -7   3  -8   14.70    2.00
  -7   3  -8   13.80    1.50
  -8   3  -8  476.15   12.50
  -8   3  -8  487.15   13.70
  -8   3  -8  487.85   12.70
  -9   3  -8    6.60    1.50
  -9   3  -8    4.90    1.10
  -9   3  -8    5.40    1.00
 -10   3  -8    9.80    0.80
 -10   3  -8    7.60    1.40
 -10   3  -8    7.50    1.00
 -11   3  -8   19.60    1.60
   8   2  -8   75.69    2.40
  -8  -2   8   70.79    3.10
   7   2  -8  431.86   10.80
  -7  -2   8  438.36   11.60
   6   2  -8    5.70    1.20
   6   2  -8    4.20    0.90
   6   2  -8    5.50    1.20
  -6  -2   8    5.00    1.30
   5   2  -8   72.69    3.90
   5   2  -8   81.59    3.50
   5   2  -8   80.59    3.00
  -5  -2   8   73.49    3.40
  -5  -2   8   80.09    3.80
  -5  -2   8   76.49    3.50
   4   2  -8 1051.09   25.40
   4   2  -8 1064.99   26.00
   4   2  -8 1072.29   26.70
  -4  -2   8 1024.60   26.60
  -4  -2   8 1025.00   26.80
  -4  -2   8 1011.60   26.10
  -4  -2   8 1034.30   26.00
   3   2  -8  126.39    3.80
   3   2  -8  126.59    4.60
   3   2  -8  130.19    4.40
  -3  -2   8  127.49    4.90
  -3  -2   8  121.79    4.20
  -3  -2   8  123.59    4.40
  -3  -2   8  121.59    4.90
   2   2  -8    1.80    0.60
   2   2  -8    1.00    0.60
   2   2  -8    1.40    0.50
  -2  -2   8    1.40    0.80
  -2  -2   8    2.40    0.60
   1   2  -8   47.50    1.70
   1   2  -8   47.80    2.20
   1   2  -8   49.90    2.20
  -1  -2   8   46.40    2.40
  -1  -2   8   45.60    2.60
   0   2  -8  319.47    8.50
   0   2  -8  314.57    8.80
   0   2  -8  304.97    7.70
   0  -2   8  325.57    9.40
   0  -2   8  309.07    8.70
  -1   2  -8  462.15   12.20
  -1   2  -8  464.05   11.80
   1  -2   8  446.16   12.60
  -2   2  -8    1.60    0.60
  -2   2  -8    1.70    0.30
  -2   2  -8    1.70    0.80
   2  -2   8    1.50    0.70
  -3   2  -8   85.99    2.60
  -3   2  -8   86.99    3.40
   3  -2   8   89.69    3.80
   3  -2   8   89.69    3.60
  -4   2  -8   13.90    1.00
  -4   2  -8   14.30    1.50
   4  -2   8   14.00    1.70
  -5   2  -8  905.71   21.90
  -5   2  -8  916.01   23.20
   5  -2   8  874.71   23.20
  -6   2  -8   22.10    1.50
  -6   2  -8   21.00    2.20
  -6   2  -8   21.50    1.70
  -7   2  -8   58.99    2.80
  -7   2  -8   64.79    3.50
  -7   2  -8   64.69    2.70
  -8   2  -8   -0.40    1.10
  -8   2  -8    0.10    0.90
  -8   2  -8    4.40    1.00
  -9   2  -8  136.69    4.40
  -9   2  -8  135.29    3.90
  -9   2  -8  137.09    5.20
 -10   2  -8   42.10    2.40
 -10   2  -8   39.30    1.90
 -10   2  -8   43.40    1.60
  -9  -1   8   32.60    2.00
   8   1  -8   44.40    1.70
  -8  -1   8   49.60    2.50
   7   1  -8   69.09    3.60
   7   1  -8   67.69    2.30
  -7  -1   8   70.79    3.60
  -7  -1   8   70.29    3.00
   6   1  -8  437.16   12.20
   6   1  -8  432.26   11.70
  -6  -1   8  429.26   12.20
   5   1  -8  170.08    6.60
   5   1  -8  171.88    5.60
  -5  -1   8  174.58    6.10
  -5  -1   8  158.58    5.60
  -5  -1   8  166.08    5.60
   4   1  -8  621.74   15.20
   4   1  -8  606.84   16.30
   4   1  -8  623.34   15.70
  -4  -1   8  581.14   15.60
  -4  -1   8  577.94   15.60
  -4  -1   8  603.34   16.40
  -4  -1   8  609.54   16.30
   3   1  -8   53.39    2.10
   3   1  -8   50.49    2.40
   3   1  -8   52.19    2.60
  -3  -1   8   53.49    2.90
  -3  -1   8   51.19    2.30
  -3  -1   8   51.19    2.70
   2   1  -8  337.97    9.60
   2   1  -8  356.16    9.50
   2   1  -8  350.26    8.90
  -2  -1   8  358.46   10.30
  -2  -1   8  357.66    9.90
  -2  -1   8  342.47    9.30
   1   1  -8    9.50    1.00
   1   1  -8    8.10    1.10
   1   1  -8    8.70    0.70
  -1  -1   8    8.70    1.10
  -1  -1   8   10.40    1.40
   0   1  -8  108.39    3.10
   0   1  -8  112.79    3.90
   0   1  -8  117.59    3.80
   0  -1   8  112.79    4.30
   0  -1   8  113.09    3.80
  -1   1  -8  111.69    4.00
  -1   1  -8  110.99    3.80
  -1   1  -8  105.59    3.00
   1  -1   8  111.79    4.30
  -2   1  -8  335.77    9.50
  -2   1  -8  322.97    8.20
  -2   1  -8  329.57    9.20
   2  -1   8  322.87    9.60
  -3   1  -8   20.00    1.10
  -3   1  -8   22.40    1.80
   3  -1   8   21.20    1.80
   3  -1   8   21.40    1.80
  -4   1  -8  324.97    8.40
  -4   1  -8  306.37    9.40
   4  -1   8  325.47    9.50
  -5   1  -8    6.40    1.10
  -5   1  -8    8.60    1.00
  -5   1  -8    7.80    1.50
   5  -1   8    8.60    1.40
  -6   1  -8  116.39    3.90
  -6   1  -8  108.59    3.90
  -6   1  -8  119.89    4.90
  -7   1  -8  340.57   10.30
  -7   1  -8  349.27    9.30
  -7   1  -8  331.97    9.30
  -8   1  -8  163.58    5.90
  -8   1  -8  153.88    4.50
  -8   1  -8  163.18    5.00
  -8   1  -8  152.18    4.90
  -9   1  -8    4.70    0.70
  -9   1  -8    4.50    1.30
  -9   1  -8    3.30    0.90
 -10   1  -8    1.30    0.90
 -10   1  -8    1.10    0.50
  -9   0   8   18.70    1.70
   8   0  -8  246.98    6.40
  -8   0   8  255.87    7.30
   7   0  -8    1.80    0.60
   7   0  -8    1.20    0.90
  -7   0   8    1.90    1.00
  -7   0   8    1.00    0.80
   6   0  -8   41.80    2.50
  -6   0   8   39.30    2.20
  -6   0   8   39.40    2.40
   5   0  -8  216.28    6.30
   5   0  -8  225.68    6.80
  -5   0   8  215.68    6.70
  -5   0   8  226.18    7.40
   4   0  -8    4.60    0.80
   4   0  -8    7.40    1.30
   4   0  -8    6.00    1.00
  -4   0   8    7.80    1.00
  -4   0   8    6.60    1.20
  -4   0   8    6.80    1.20
   3   0  -8    7.70    1.10
   3   0  -8    7.70    1.10
   3   0  -8    9.00    0.90
  -3   0   8    9.50    1.00
  -3   0   8   15.90    1.60
  -3   0   8    9.20    1.30
   2   0  -8  267.07    7.00
   2   0  -8  257.27    7.70
   2   0  -8  268.47    7.50
  -2   0   8  269.57    8.20
  -2   0   8  259.07    7.40
  -2   0   8  271.07    7.80
   1   0  -8  740.33   18.30
   1   0  -8  760.32   19.20
   1   0  -8  749.13   18.90
  -1   0   8  764.62   19.70
  -1   0   8  764.72   19.00
   0   0  -8  333.87    8.70
   0   0  -8  355.66    9.50
   0   0  -8  357.66    9.50
   0   0   8  340.47    9.10
   0   0   8  340.17   10.00
  -1   0  -8  369.26   10.40
  -1   0  -8  374.86    9.50
  -1   0  -8  381.36   10.50
   1   0   8  389.46   10.90
  -2   0  -8  158.08    5.30
  -2   0  -8  150.78    4.40
   2   0   8  156.28    5.50
   2   0   8  160.08    5.20
  -3   0  -8    3.90    1.00
  -3   0  -8    4.30    0.70
   3   0   8    4.60    1.00
   3   0   8    6.30    1.20
  -4   0  -8  737.23   17.80
  -4   0  -8  687.33   19.00
  -4   0  -8  711.53   18.80
   4   0   8  733.73   18.90
  -5   0  -8    3.90    0.90
  -5   0  -8    4.60    1.20
  -5   0  -8    7.10    1.00
   5   0   8    3.80    1.20
  -6   0  -8  198.78    5.90
  -6   0  -8  200.68    6.80
  -6   0  -8  192.58    5.80
  -7   0  -8    1.90    0.70
  -7   0  -8    1.10    0.90
  -7   0  -8    0.70    1.20
  -7   0  -8    1.10    0.80
  -8   0  -8   34.80    2.10
  -8   0  -8   35.90    1.70
  -8   0  -8   40.60    2.10
  -8   0  -8   36.30    2.80
  -9   0  -8   16.60    1.20
  -9   0  -8   13.10    1.70
 -10   0  -8    4.40    1.00
 -10   0  -8    3.30    0.50
   9  -1  -8   33.90    2.00
  -9   1   8   39.80    2.30
   8  -1  -8    2.40    0.80
   8  -1  -8    3.50    0.50
  -8   1   8    1.30    0.90
   7  -1  -8   27.50    2.20
  -7   1   8   27.20    1.80
  -7   1   8   30.00    2.30
   6  -1  -8  127.79    4.60
  -6   1   8  126.59    5.10
  -6   1   8  126.49    4.60
  -6   1   8  125.29    4.60
   5  -1  -8  215.48    6.40
   5  -1  -8  197.08    6.00
  -5   1   8  206.18    6.90
   4  -1  -8    1.50    0.60
   4  -1  -8    1.60    0.80
   4  -1  -8    1.00    0.50
  -4   1   8    1.20    0.80
  -4   1   8    1.20    0.60
  -4   1   8    1.20    0.70
   3  -1  -8  163.78    5.10
   3  -1  -8  165.38    5.60
   3  -1  -8  159.88    4.70
  -3   1   8  166.48    5.20
  -3   1   8  168.88    5.60
  -3   1   8  163.08    5.80
   2  -1  -8   86.69    3.20
   2  -1  -8   88.69    3.60
   2  -1  -8   92.19    2.90
  -2   1   8   93.29    3.50
  -2   1   8   92.19    3.90
   1  -1  -8   97.29    3.00
   1  -1  -8   94.39    3.60
   1  -1  -8   96.29    3.40
  -1   1   8   96.69    4.00
  -1   1   8   90.29    3.30
   0  -1  -8  298.67    7.70
   0  -1  -8  295.77    8.30
   0  -1  -8  303.87    8.60
   0   1   8  292.37    7.90
   0   1   8  291.67    9.00
  -1  -1  -8   68.89    3.00
  -1  -1  -8   65.79    3.00
  -1  -1  -8   65.09    2.30
   1   1   8   67.49    3.30
  -2  -1  -8   17.00    1.10
  -2  -1  -8   18.00    1.70
   2   1   8   17.70    1.50
   2   1   8   17.90    1.70
  -3  -1  -8   97.69    3.20
  -3  -1  -8   90.29    4.10
   3   1   8   92.39    3.80
   3   1   8   89.19    3.90
  -4  -1  -8  236.28    6.40
  -4  -1  -8  224.98    7.20
  -4  -1  -8  214.88    7.60
   4   1   8  228.68    7.30
  -5  -1  -8   14.60    1.40
  -5  -1  -8   16.80    1.50
  -5  -1  -8   15.00    1.90
   5   1   8   14.70    1.90
  -6  -1  -8   17.10    1.60
  -6  -1  -8   21.50    2.30
  -6  -1  -8   14.10    1.20
  -6  -1  -8   17.60    1.60
  -7  -1  -8  387.46    9.80
  -7  -1  -8  402.16   11.40
  -7  -1  -8  386.36   10.40
  -7  -1  -8  383.36   10.30
  -8  -1  -8   89.69    2.80
  -8  -1  -8   90.39    4.00
  -9  -1  -8   13.60    1.00
  -9  -1  -8   13.10    1.60
  11  -2  -8   60.29    2.40
  10  -2  -8   43.70    2.20
 -10   2   8   46.40    2.40
   9  -2  -8    9.00    1.10
  -9   2   8    9.40    1.30
   8  -2  -8  310.27    8.40
  -8   2   8  315.87    8.80
   7  -2  -8   30.80    2.10
   7  -2  -8   28.90    2.40
  -7   2   8   25.50    1.80
  -7   2   8   30.90    2.30
   6  -2  -8   57.49    2.80
  -6   2   8   62.69    3.70
  -6   2   8   62.39    3.30
   5  -2  -8  382.36   10.50
  -5   2   8  392.86   11.30
   4  -2  -8  281.77    7.70
   4  -2  -8  295.67    8.00
  -4   2   8  281.37    8.60
  -4   2   8  273.47    8.80
   3  -2  -8  834.62   20.70
   3  -2  -8  852.61   21.90
   3  -2  -8  855.41   21.00
  -3   2   8  861.71   21.60
  -3   2   8  831.92   21.30
  -3   2   8  844.12   22.10
   2  -2  -8  259.87    7.30
   2  -2  -8  261.97    7.00
   2  -2  -8  256.07    7.90
  -2   2   8  259.27    7.50
  -2   2   8  265.57    8.30
   1  -2  -8   24.90    1.60
   1  -2  -8   23.80    1.80
   1  -2  -8   23.40    1.30
  -1   2   8   25.70    1.50
  -1   2   8   24.00    2.00
   0  -2  -8  631.64   16.10
   0  -2  -8  644.94   15.00
   0  -2  -8  588.14   15.50
   0   2   8  534.45   16.10
  -1  -2  -8  502.35   13.50
  -1  -2  -8  476.35   12.20
   1   2   8  478.45   13.50
   1   2   8  473.35   12.70
  -2  -2  -8  123.89    3.80
  -2  -2  -8  119.99    4.90
   2   2   8  121.49    4.80
   2   2   8  118.39    4.40
  -3  -2  -8   46.10    3.90
  -3  -2  -8   43.40    2.90
  -3  -2  -8   50.59    2.10
   3   2   8   47.30    2.60
   3   2   8   44.60    2.80
  -4  -2  -8  549.65   13.90
  -4  -2  -8  539.75   14.80
   4   2   8  537.95   14.80
  -5  -2  -8    4.20    0.70
  -5  -2  -8    4.20    0.90
  -5  -2  -8    4.20    1.30
  -6  -2  -8    1.10    0.60
  -6  -2  -8    1.90    0.80
  -6  -2  -8    0.40    1.10
  -7  -2  -8   11.40    1.00
  -7  -2  -8   11.30    1.70
  -8  -2  -8   22.60    2.20
  -8  -2  -8   24.00    1.30
  -9  -2  -8   40.40    1.40
  -9  -2  -8   38.80    2.20
  12  -3  -8    5.20    0.80
  11  -3  -8   41.50    2.10
  10  -3  -8  145.49    4.60
 -10   3   8  140.19    4.70
   9  -3  -8    4.80    1.00
  -9   3   8    3.70    1.00
   8  -3  -8    0.70    0.70
  -8   3   8   -0.20    0.80
   7  -3  -8    6.50    0.90
   7  -3  -8    6.40    1.40
  -7   3   8    6.50    1.10
   6  -3  -8   26.30    1.80
  -6   3   8   29.00    1.80
   5  -3  -8  556.64   14.70
  -5   3   8  589.14   15.70
   4  -3  -8  731.23   18.50
  -4   3   8  717.63   19.80
  -4   3   8  767.52   19.40
   3  -3  -8  715.63   17.40
   3  -3  -8  694.23   17.20
  -3   3   8  708.43   17.90
  -3   3   8  704.93   18.70
  -3   3   8  625.64   18.10
   2  -3  -8    5.00    0.90
   2  -3  -8    8.40    1.30
   2  -3  -8    5.10    0.80
  -2   3   8    6.00    0.90
  -2   3   8   10.60    1.50
   1  -3  -8   10.80    1.40
   1  -3  -8   10.80    1.10
   1  -3  -8   10.80    1.00
  -1   3   8   12.20    1.10
  -1   3   8   10.70    1.50
   0  -3  -8   20.40    1.30
   0  -3  -8   22.30    1.90
   0  -3  -8   20.30    1.60
   0   3   8   23.00    2.00
  -1  -3  -8   60.69    3.30
   1   3   8   58.79    3.20
   1   3   8   63.99    2.80
  -2  -3  -8   24.80    1.50
  -2  -3  -8   22.40    2.20
   2   3   8   22.50    1.80
   2   3   8   22.20    2.10
  -3  -3  -8  112.09    3.70
  -3  -3  -8  108.19    4.40
   3   3   8   94.89    6.20
   3   3   8  110.79    4.30
  -4  -3  -8  155.78    4.90
  -4  -3  -8  159.98    5.70
  -4  -3  -8  153.38    4.40
   4   3   8  162.18    5.70
  -5  -3  -8  368.06   10.80
  -5  -3  -8  361.16    9.20
  -6  -3  -8  115.19    3.40
  -6  -3  -8  108.39    4.60
  -7  -3  -8  188.08    5.00
  -7  -3  -8  186.68    6.40
  -8  -3  -8   68.89    3.20
  -8  -3  -8   70.39    2.10
  -9  -3  -8    1.10    0.80
  12  -4  -8    1.10    0.70
  11  -4  -8    6.60    1.10
  10  -4  -8   45.10    2.30
 -10   4   8   42.30    2.40
   9  -4  -8  165.68    5.20
  -9   4   8  172.98    5.50
   8  -4  -8  320.37    8.80
  -8   4   8  337.77    9.30
   7  -4  -8   27.20    1.60
  -7   4   8   27.20    1.90
  -6   4   8    9.60    1.30
  -5   4   8  174.78    6.30
  -4   4   8  392.16   12.10
  -4   4   8  423.56   11.70
  -3   4   8  136.99    5.50
  -3   4   8  136.39    4.80
   2  -4  -8  319.07    8.80
  -2   4   8  324.47   10.10
  -2   4   8  340.17    9.20
   1  -4  -8  144.49    4.40
  -1   4   8  139.19    5.50
  -1   4   8  144.19    4.60
   0  -4  -8  227.58    6.60
   0   4   8  243.08    7.90
  -1  -4  -8  901.61   22.30
   1   4   8  911.31   24.00
  -2  -4  -8   75.19    3.50
  -2  -4  -8   74.99    2.90
  -3  -4  -8  127.59    4.90
   3   4   8  108.09    4.50
  -4  -4  -8  590.24   14.40
  -4  -4  -8  586.84   16.00
  -5  -4  -8   70.39    2.40
  -5  -4  -8   66.69    3.60
  -6  -4  -8   17.40    1.20
  -6  -4  -8   21.00    2.20
  -7  -4  -8   12.40    1.70
  -7  -4  -8   11.90    1.00
  -8  -4  -8   25.90    1.90
  13  -5  -8   68.39    2.20
  12  -5  -8    0.00    0.70
  11  -5  -8   20.70    1.80
 -11   5   8   22.50    1.70
  10  -5  -8   10.20    1.30
 -10   5   8    9.20    1.30
   9  -5  -8  286.37    8.00
  -9   5   8  290.17    8.40
   8  -5  -8    0.30    0.70
  -8   5   8    1.70    0.90
   7  -5  -8   49.20    2.20
  -7   5   8   48.50    2.50
  -6   5   8  932.41   23.30
  -5   5   8   46.60    2.90
  -4   5   8  323.17    9.60
  -4   5   8  317.67   10.20
  -3   5   8  233.28    7.20
  -3   5   8  226.08    8.00
  -2   5   8   78.59    4.00
  -2   5   8   78.79    3.30
  -1   5   8  338.97   10.60
   0   5   8   19.70    2.20
  -1  -5  -8   55.39    3.00
  -2  -5  -8  111.29    4.60
   2   5   8  113.69    3.70
  -3  -5  -8   45.60    1.80
  -3  -5  -8   50.49    3.10
   3   5   8   49.20    2.10
  -4  -5  -8  111.99    4.70
  -4  -5  -8  113.89    3.30
   4   5   8  102.39    3.70
  -5  -5  -8    6.60    0.80
  -5  -5  -8    6.50    1.40
  -6  -5  -8   84.89    2.50
  -6  -5  -8   81.69    3.80
  -7  -5  -8   52.59    2.80
  -8  -5  -8    4.10    1.00
  13  -6  -8   28.40    1.40
  12  -6  -8   38.00    1.90
  11  -6  -8    2.10    1.00
 -11   6   8    2.00    0.90
  10  -6  -8   19.70    1.90
 -10   6   8   16.80    1.70
   9  -6  -8  215.88    6.40
  -9   6   8  229.28    6.90
   8  -6  -8   10.60    1.20
  -8   6   8    9.70    1.40
   7  -6  -8    7.20    1.00
  -7   6   8    6.80    1.20
   6  -6  -8   30.40    1.70
  -6   6   8   32.00    2.10
  -5   6   8   58.09    2.60
  -4   6   8   33.60    2.40
  -4   6   8   33.10    2.80
  -3   6   8  164.98    5.80
  -3   6   8  177.58    7.00
  -2   6   8   62.59    2.90
  -2   6   8   66.09    3.80
   1  -6  -8   19.20    2.10
   0  -6  -8  210.58    6.90
  -1  -6  -8  172.98    6.10
   1   6   8  161.78    4.90
  -2  -6  -8   89.49    4.30
  -2  -6  -8   98.39    2.90
   2   6   8   93.69    3.20
  -3  -6  -8   13.60    1.00
  -3  -6  -8   12.50    1.90
   3   6   8   15.20    1.30
  -4  -6  -8   31.20    1.40
  -4  -6  -8   29.80    2.60
   4   6   8   28.80    1.60
  -5  -6  -8  134.49    3.60
  -5  -6  -8  136.39    5.20
  -6  -6  -8  128.09    4.80
  -7  -6  -8    2.70    0.90
  12  -7  -8    3.80    0.90
  11  -7  -8    5.40    1.10
 -11   7   8    6.40    1.10
  10  -7  -8    4.50    1.10
 -10   7   8    5.60    1.20
   9  -7  -8   18.10    1.70
  -9   7   8   18.60    2.00
   8  -7  -8    0.90    0.80
  -8   7   8    0.50    1.00
   7  -7  -8   49.90    2.30
  -7   7   8   54.89    2.80
   6  -7  -8   11.20    1.10
  -6   7   8   13.30    1.60
   5  -7  -8  111.29    5.50
  -5   7   8  121.49    4.10
   4  -7  -8    8.00    2.00
  -4   7   8   10.30    1.20
   3  -7  -8  323.27    9.60
  -3   7   8  329.17    8.80
   2  -7  -8   30.20    2.10
   1  -7  -8   42.70    2.60
  -1   7   8   39.90    2.00
   0  -7  -8  150.88    5.60
   0   7   8  152.48    4.60
  -1  -7  -8  282.37    9.10
  -1  -7  -8  293.87    7.30
   1   7   8  291.77    7.90
  -2  -7  -8   24.50    2.40
  -2  -7  -8   26.60    1.20
   2   7   8   24.30    1.60
  -3  -7  -8    2.10    1.20
   3   7   8    2.80    0.80
  -4  -7  -8    2.60    1.30
   4   7   8    5.80    0.90
  -5  -7  -8   94.69    4.00
  -6  -7  -8   26.10    2.00
  12  -8  -8    2.00    0.80
  11  -8  -8   18.00    1.70
 -11   8   8   18.80    1.70
  10  -8  -8   14.90    1.50
 -10   8   8   13.00    1.50
   9  -8  -8   17.20    1.50
  -9   8   8   15.00    1.70
   8  -8  -8    3.80    0.90
  -8   8   8    4.00    1.20
   7  -8  -8  313.17    8.50
  -7   8   8  317.57    9.20
   6  -8  -8   77.49    5.00
   6  -8  -8   84.19    3.00
  -6   8   8   82.79    3.50
   5  -8  -8    4.80    2.10
  -5   8   8    5.60    1.00
   4  -8  -8   32.60    3.20
  -4   8   8   34.30    1.90
   3  -8  -8   72.39    3.60
  -3   8   8   74.49    2.80
   2  -8  -8   30.50    2.30
  -2   8   8   27.90    1.60
   1  -8  -8   17.70    2.10
  -1   8   8   17.60    1.40
   0  -8  -8   80.99    4.00
   0   8   8   84.69    3.00
  -1  -8  -8  259.37    8.60
   1   8   8  263.37    7.20
  -2  -8  -8   50.49    3.30
   2   8   8   48.30    2.20
  -3  -8  -8  116.59    4.90
   3   8   8  122.69    3.90
  -4  -8  -8   36.90    2.60
   4   8   8   35.10    1.70
  -5  -8  -8   69.39    3.20
  -6  -8  -8   10.10    1.30
  12  -9  -8    6.30    0.90
  11  -9  -8   15.30    1.30
 -11   9   8   10.30    1.20
  10  -9  -8   27.60    1.90
 -10   9   8   26.40    2.10
   9  -9  -8    7.10    1.10
  -9   9   8    6.40    1.30
   8  -9  -8    7.70    1.10
  -8   9   8    5.90    1.30
   7  -9  -8   50.39    2.30
   7  -9  -8   64.59    4.90
  -7   9   8   54.99    2.90
   6  -9  -8   45.80    4.40
  -6   9   8   37.10    2.30
   5  -9  -8  123.39    5.70
  -5   9   8  120.19    4.30
   4  -9  -8   28.30    3.00
  -4   9   8   26.80    1.80
   3  -9  -8    1.50    1.20
  -3   9   8    1.40    0.70
   2  -9  -8   69.09    3.60
  -2   9   8   66.59    2.70
   1  -9  -8   74.49    3.90
  -1   9   8   76.99    2.90
   0  -9  -8    0.70    1.20
   0   9   8    0.20    0.70
  -1  -9  -8  104.29    4.80
   1   9   8  104.69    3.60
  -2  -9  -8    6.60    1.60
   2   9   8    6.30    1.00
  -3  -9  -8   79.69    3.80
   3   9   8   82.39    2.90
  -4  -9  -8  134.09    4.70
   4   9   8  128.19    3.80
  -5  -9  -8    1.30    0.70
  12 -10  -8   13.40    1.00
  11 -10  -8   13.40    1.30
 -11  10   8    8.70    1.10
  10 -10  -8   57.79    2.40
 -10  10   8   56.19    2.70
   9 -10  -8   41.10    2.10
  -9  10   8   39.80    2.50
   8 -10  -8   40.60    2.10
  -8  10   8   38.70    2.60
   7 -10  -8   62.39    5.10
  -7  10   8   50.99    2.90
   6 -10  -8  168.58    7.20
  -6  10   8  166.38    5.60
   5 -10  -8    3.10    2.00
  -5  10   8    3.90    1.00
   4 -10  -8    4.90    1.70
  -4  10   8    6.30    1.10
   3 -10  -8  116.59    5.00
  -3  10   8  120.99    4.00
   2 -10  -8   38.20    3.00
  -2  10   8   38.50    2.00
   1 -10  -8   12.30    1.90
  -1  10   8    9.40    1.20
   0 -10  -8  308.47    9.80
   0  10   8  314.17    8.50
  -1 -10  -8  420.66   12.50
   1  10   8  439.06   11.20
  -2 -10  -8   25.30    2.40
   2  10   8   28.20    1.70
  -3 -10  -8   47.20    2.70
   3  10   8   44.80    1.90
  -4 -10  -8   10.90    1.40
   4  10   8   10.00    0.90
  11 -11  -8    7.70    0.90
 -11  11   8    7.90    1.00
  10 -11  -8   14.10    1.20
 -10  11   8   11.00    1.30
  -9  11   8    0.40    0.80
   8 -11  -8    0.40    2.30
  -8  11   8   -0.40    0.90
   7 -11  -8   17.10    2.90
  -7  11   8   20.40    2.00
   6 -11  -8  155.08    6.40
  -6  11   8  149.39    5.10
   5 -11  -8  468.75   13.50
  -5  11   8  475.25   12.50
   4 -11  -8   -2.30    1.20
  -4  11   8   -0.60    0.70
   3 -11  -8  205.68    7.30
  -3  11   8  214.38    6.20
   2 -11  -8  119.49    5.10
  -2  11   8  119.09    4.10
   1 -11  -8   37.00    2.90
  -1  11   8   40.40    2.10
   0 -11  -8   71.99    3.80
   0  11   8   67.09    2.70
  -1 -11  -8   10.50    1.70
   1  11   8    8.40    1.00
  -2 -11  -8    2.10    1.00
   2  11   8    2.00    0.70
  -3 -11  -8    4.30    1.00
   3  11   8    4.50    0.70
 -10  12   8    2.60    0.80
  -9  12   8  101.49    3.70
   8 -12  -8  290.67    9.10
  -8  12   8  294.37    8.30
   7 -12  -8  158.68    6.10
  -7  12   8  158.78    5.20
   6 -12  -8   55.79    3.70
  -6  12   8   63.09    2.80
   5 -12  -8    3.40    1.60
  -5  12   8    5.90    1.10
   4 -12  -8    2.70    1.40
   3 -12  -8   93.39    4.40
  -3  12   8   96.29    3.40
   2 -12  -8   10.60    1.70
  -2  12   8    9.40    1.10
   1 -12  -8   12.70    1.80
  -1  12   8   13.30    1.20
   0 -12  -8   14.00    1.80
   0  12   8   10.70    1.10
  -1 -12  -8   21.40    2.00
   1  12   8   24.50    1.40
  -2 -12  -8    1.60    0.80
   2  12   8    1.50    0.60
   9 -13  -8   39.10    2.30
  -9  13   8   43.90    2.10
   8 -13  -8    9.90    1.60
  -8  13   8   12.80    1.30
   7 -13  -8   -1.80    1.20
  -7  13   8    0.60    0.80
   6 -13  -8   38.00    2.80
  -6  13   8   46.30    2.30
   5 -13  -8   10.40    1.70
  -5  13   8   15.30    1.40
   4 -13  -8   21.00    2.30
   3 -13  -8   24.00    2.30
  -3  13   8   22.20    1.50
   2 -13  -8    8.50    1.50
  -2  13   8   10.00    1.10
   1 -13  -8    1.50    1.00
  -1  13   8    0.90    0.60
   0 -13  -8   41.30    2.40
   0  13   8   41.30    1.80
   1  13   8    7.50    0.80
   8 -14  -8    9.40    1.40
  -8  14   8    9.00    1.00
   7 -14  -8   -0.20    0.80
  -7  14   8    0.90    0.70
   6 -14  -8   -0.40    0.90
  -6  14   8    0.30    0.60
   5 -14  -8   70.39    3.30
   4 -14  -8    2.10    1.00
   3 -14  -8    0.50    1.00
  -3  14   8    0.40    0.50
   2 -14  -8   34.00    2.20
  -2  14   8   30.40    1.50
   1 -14  -8   14.50    1.70
  -1  14   8   16.00    1.00
   2  14  -9   66.19    2.40
   1  14  -9   48.70    2.40
   1  14  -9   46.40    2.00
   0  14  -9    5.40    0.90
   0  14  -9    5.60    1.20
  -1  14  -9   -0.20    0.70
  -1  14  -9    1.50    1.00
  -2  14  -9   12.20    1.50
  -3  14  -9    4.00    1.10
   3  13  -9    9.50    1.20
   3  13  -9   10.70    1.10
   2  13  -9   30.00    1.80
   2  13  -9   29.70    2.10
   1  13  -9   19.60    1.70
   1  13  -9   21.60    2.00
   0  13  -9    3.00    1.00
   0  13  -9    3.80    1.30
  -1  13  -9  126.39    4.20
  -1  13  -9  136.69    4.90
  -2  13  -9   28.30    2.40
   5  12  -9   35.90    1.20
   4  12  -9    1.70    0.80
   4  12  -9    0.70    0.80
   3  12  -9    8.60    1.20
   3  12  -9    9.20    1.40
   2  12  -9    8.70    1.60
   2  12  -9    9.70    1.30
   1  12  -9   60.49    2.70
   1  12  -9   54.89    3.20
   0  12  -9    2.80    0.80
   0  12  -9    1.90    1.00
   0  12  -9   -0.20    1.10
  -1  12  -9  124.49    4.80
  -1  12  -9  123.89    4.10
  -1  12  -9  111.59    3.70
  -2  12  -9    5.50    1.40
  -3  12  -9   71.49    3.30
   6  11  -9   31.50    1.10
   5  11  -9   36.20    1.40
   5  11  -9   37.90    2.00
   5  11  -9   35.60    1.80
   4  11  -9  201.18    6.20
   4  11  -9  189.38    5.70
   3  11  -9   18.00    2.00
   3  11  -9   18.90    1.80
   2  11  -9  116.49    4.20
   2  11  -9  127.59    4.30
   2  11  -9  124.59    4.90
   1  11  -9   16.50    1.50
   1  11  -9   19.00    2.10
   1  11  -9   16.00    1.60
   0  11  -9  194.78    6.60
   0  11  -9  194.98    5.90
   0  11  -9  190.68    5.60
  -1  11  -9  726.83   18.30
  -1  11  -9  764.12   19.50
  -1  11  -9  753.42   18.80
  -2  11  -9   42.40    2.80
  -2  11  -9   46.20    2.40
  -3  11  -9   19.70    2.00
   7  10  -9   25.10    1.00
   6  10  -9   90.09    3.20
   6  10  -9  101.19    2.70
   6  10  -9   90.79    3.00
   5  10  -9   16.80    1.70
   5  10  -9   16.60    1.50
   4  10  -9   57.49    3.10
   4  10  -9   50.39    2.50
   4  10  -9   51.89    2.50
   3  10  -9   46.60    2.50
   3  10  -9   44.60    2.40
   3  10  -9   46.20    3.10
   2  10  -9   77.99    3.20
   2  10  -9   78.89    3.30
   2  10  -9   79.19    4.00
   1  10  -9  260.67    8.30
   1  10  -9  263.97    7.60
   1  10  -9  265.77    7.50
   0  10  -9    0.60    0.60
   0  10  -9    0.90    1.20
   0  10  -9    0.40    0.80
  -1  10  -9   36.20    2.10
  -1  10  -9   35.90    2.70
  -2  10  -9   66.59    3.40
  -2  10  -9   64.39    2.80
  -8  10  -9   68.79    3.50
  -9  10  -9   66.49    3.20
   7   9  -9   19.70    1.00
   6   9  -9  120.19    3.40
   6   9  -9  111.99    4.10
   6   9  -9  113.49    3.70
   5   9  -9    4.00    1.30
   5   9  -9    3.80    1.00
   5   9  -9    5.50    1.00
   4   9  -9    3.40    1.00
   4   9  -9    5.40    1.50
   4   9  -9    6.70    1.20
   3   9  -9    9.90    1.80
   3   9  -9    7.50    1.30
   3   9  -9    6.80    1.20
   2   9  -9   33.60    2.00
   2   9  -9   32.30    2.20
   2   9  -9   33.70    2.80
   1   9  -9   26.10    1.90
   1   9  -9   23.20    1.50
   1   9  -9   23.20    2.30
   0   9  -9  855.51   21.00
   0   9  -9  846.22   21.80
   0   9  -9  832.92   20.60
  -1   9  -9  395.86   11.10
  -1   9  -9  386.26   10.40
  -2   9  -9  117.39    4.40
  -2   9  -9  115.59    4.10
  -7   9  -9  200.38    7.00
  -8   9  -9    2.80    1.00
  -8   9  -9    2.60    1.30
  -9   9  -9  378.56    9.90
  -9   9  -9  384.36   10.80
 -10   9  -9  115.49    4.40
 -10   9  -9  121.79    3.60
   7   8  -9    6.30    0.70
   7   8  -9    3.20    1.00
   6   8  -9   87.79    3.70
   6   8  -9   92.99    2.90
   6   8  -9   88.09    3.30
   5   8  -9   29.60    2.00
   5   8  -9   32.30    2.50
   5   8  -9   29.80    2.00
   4   8  -9   81.29    3.90
   4   8  -9   79.59    3.40
   4   8  -9   86.49    3.40
   3   8  -9  151.78    5.00
   3   8  -9  161.88    5.20
   3   8  -9  151.68    5.80
   2   8  -9  116.09    4.10
   2   8  -9  119.79    4.10
   2   8  -9  121.09    4.80
   1   8  -9   10.20    1.30
   1   8  -9   11.40    1.70
   1   8  -9   10.40    1.10
   0   8  -9  172.38    5.80
   0   8  -9  166.18    5.20
  -1   8  -9  286.67    8.60
  -1   8  -9  298.77    8.10
  -6   8  -9  183.78    6.70
  -6   8  -9  189.28    5.80
  -7   8  -9  279.07    7.80
  -7   8  -9  270.27    8.90
  -8   8  -9  111.19    3.90
  -8   8  -9  106.39    4.70
  -9   8  -9    6.50    1.40
  -9   8  -9    5.90    1.10
 -10   8  -9   34.80    2.20
 -10   8  -9   34.70    1.80
   8   7  -9   18.50    1.00
   7   7  -9   32.50    2.20
   7   7  -9   34.00    1.50
   6   7  -9    0.50    1.00
   6   7  -9    0.60    0.60
   6   7  -9    0.10    0.80
   5   7  -9   13.60    1.50
   5   7  -9   16.30    1.90
   5   7  -9   14.10    1.60
   4   7  -9   20.90    2.20
   4   7  -9   17.90    1.70
   4   7  -9   15.00    1.50
   3   7  -9   19.20    2.10
   3   7  -9   19.80    1.60
   3   7  -9   19.20    1.70
  -3  -7   9   15.10    2.80
   2   7  -9  351.86    9.50
   2   7  -9  350.76    9.40
   2   7  -9  348.97   10.20
   1   7  -9  112.89    3.80
   1   7  -9  111.99    4.40
   1   7  -9  115.39    3.60
   0   7  -9  257.77    7.70
  -1   7  -9  160.78    5.30
  -5   7  -9    1.40    0.90
  -6   7  -9    5.50    1.60
  -6   7  -9    7.00    1.20
  -7   7  -9  227.38    7.80
  -7   7  -9  220.18    6.10
  -7   7  -9  230.38    6.70
  -8   7  -9   18.50    1.30
  -8   7  -9   18.80    1.70
  -8   7  -9   17.00    2.20
  -9   7  -9   25.40    1.90
  -9   7  -9   22.10    2.30
 -10   7  -9    3.10    1.10
 -10   7  -9    2.30    0.80
   8   6  -9   77.69    2.40
   7   6  -9   22.10    2.10
   7   6  -9   20.00    1.30
   6   6  -9   20.40    1.40
   6   6  -9   20.00    1.70
   6   6  -9   22.30    2.20
   5   6  -9   39.10    2.70
   5   6  -9   37.70    2.20
   5   6  -9   39.50    2.20
   4   6  -9   31.10    2.00
   4   6  -9   30.30    2.40
   4   6  -9   33.10    2.00
  -4  -6   9   29.20    2.70
   3   6  -9   61.09    2.60
   3   6  -9   59.99    2.60
   3   6  -9   57.59    3.20
   3   6  -9   61.99    3.30
  -3  -6   9   57.49    4.30
   2   6  -9   24.70    2.10
   2   6  -9   24.90    2.10
   2   6  -9   24.50    1.50
   1   6  -9  111.99    4.40
   1   6  -9  111.09    3.40
   1   6  -9  109.99    4.40
   1   6  -9  106.89    4.10
  -1  -6   9  111.39    4.20
   0   6  -9  445.86   11.50
   0   6  -9  426.76   12.20
   0  -6   9  429.66   11.30
   0  -6   9  451.35   12.80
  -1   6  -9    2.70    0.50
  -1   6  -9    1.50    0.80
   1  -6   9    2.40    1.00
   1  -6   9    2.50    1.10
  -2   6  -9   91.89    4.00
   2  -6   9   87.99    4.30
   3  -6   9   22.00    2.00
  -4   6  -9  349.67    9.50
   4  -6   9  353.06   10.50
  -5   6  -9   12.70    1.40
  -5   6  -9   11.50    1.70
  -6   6  -9  301.77    9.60
  -6   6  -9  310.37    8.60
  -7   6  -9  117.39    5.00
  -7   6  -9  110.29    3.60
  -7   6  -9  116.89    4.10
  -8   6  -9   37.30    1.80
  -8   6  -9   37.20    2.90
  -8   6  -9   35.10    2.30
  -9   6  -9    1.10    1.20
  -9   6  -9    0.50    0.90
 -10   6  -9   -0.90    0.80
 -10   6  -9    0.00    0.70
   8   5  -9    3.90    0.70
  -8  -5   9    4.30    1.00
   7   5  -9  145.59    5.20
   7   5  -9  159.88    4.40
   6   5  -9    4.30    0.80
   6   5  -9    5.00    1.30
   6   5  -9    4.40    1.00
   5   5  -9   93.79    3.50
   5   5  -9   99.39    4.10
   5   5  -9  107.99    3.80
   4   5  -9    5.40    1.00
   4   5  -9    5.70    1.00
   4   5  -9    6.10    1.40
   4   5  -9    4.80    1.20
  -4  -5   9    4.00    1.30
   3   5  -9    6.60    1.30
   3   5  -9    8.40    1.40
   3   5  -9    7.00    1.00
   2   5  -9  353.66    9.30
   2   5  -9  345.97   10.10
   2   5  -9  369.96   10.30
  -2  -5   9  359.46   14.70
  -2  -5   9  346.17    9.80
  -2  -5   9  361.86   11.60
   1   5  -9  137.69    4.60
   1   5  -9  139.49    5.00
   1   5  -9  133.39    3.90
  -1  -5   9  137.29    5.70
  -1  -5   9  142.39    5.40
  -1  -5   9  136.89    4.40
   0   5  -9  548.05   13.70
   0   5  -9  530.15   14.50
   0  -5   9  549.85   15.30
   0  -5   9  528.75   13.50
   0  -5   9  533.65   14.70
  -1   5  -9  130.59    3.80
  -1   5  -9  124.79    4.70
   1  -5   9  127.69    5.20
   1  -5   9  118.69    4.60
  -2   5  -9   33.10    1.50
  -2   5  -9   32.00    2.30
   2  -5   9   33.50    2.50
   3  -5   9    0.70    0.80
   4  -5   9   32.30    2.40
  -5   5  -9  267.17    7.40
  -5   5  -9  253.77    8.30
   5  -5   9  250.47    8.30
  -6   5  -9   46.80    1.90
  -6   5  -9   44.20    2.40
  -6   5  -9   44.30    3.00
  -7   5  -9   18.10    1.70
  -7   5  -9   18.60    2.30
  -7   5  -9   17.80    1.40
  -8   5  -9   90.99    3.30
  -8   5  -9   98.79    4.50
  -8   5  -9   97.09    3.70
  -9   5  -9   27.80    1.90
  -9   5  -9   28.80    2.50
 -10   5  -9   20.20    1.50
 -10   5  -9   22.70    2.00
   8   4  -9    1.80    0.60
  -8  -4   9    1.80    0.90
   7   4  -9   21.80    2.10
   7   4  -9   19.50    1.30
   6   4  -9   33.60    2.40
   6   4  -9   32.70    2.00
   6   4  -9   32.90    1.60
   5   4  -9   33.80    2.00
   5   4  -9   33.30    2.60
   5   4  -9   36.50    1.90
   5   4  -9   33.50    2.40
  -5  -4   9   34.50    2.70
   4   4  -9   26.70    1.70
   4   4  -9   28.10    2.20
   4   4  -9   28.50    2.20
   3   4  -9  181.78    5.30
   3   4  -9  169.28    6.10
   3   4  -9  178.08    6.00
  -3  -4   9  179.48    6.80
  -3  -4   9  171.08    6.50
  -3  -4   9  173.88    5.70
   2   4  -9  199.08    6.20
   2   4  -9  196.78    6.20
   2   4  -9  190.38    5.30
  -2  -4   9  186.48    6.70
  -2  -4   9  182.28    6.90
  -2  -4   9  184.98    5.80
   1   4  -9   62.49    2.10
   1   4  -9   64.69    3.00
   1   4  -9   64.59    2.70
  -1  -4   9   64.49    2.50
  -1  -4   9   62.79    3.50
  -1  -4   9   64.29    3.20
   0   4  -9  879.71   21.50
   0   4  -9  867.31   22.20
   0  -4   9  860.51   22.90
   0  -4   9  873.31   22.30
  -1   4  -9    6.50    1.10
  -1   4  -9    4.80    0.80
   1  -4   9    6.50    1.30
  -2   4  -9   45.50    2.70
  -2   4  -9   46.90    2.00
   2  -4   9   42.40    2.70
  -3   4  -9  299.97    8.30
   3  -4   9  302.47    9.00
  -4   4  -9  349.77   10.60
   4  -4   9  380.86   10.90
  -5   4  -9    1.50    0.50
  -5   4  -9    1.00    1.00
  -5   4  -9    0.90    0.80
   5  -4   9    2.20    1.00
  -6   4  -9  167.48    5.00
  -6   4  -9  173.88    6.30
  -6   4  -9  173.58    5.40
  -7   4  -9   24.60    2.00
  -7   4  -9   23.90    1.60
  -7   4  -9   21.10    2.40
  -8   4  -9   10.90    1.80
  -8   4  -9   11.30    1.40
  -8   4  -9   14.40    1.40
  -9   4  -9   39.80    2.80
  -9   4  -9   39.50    2.20
 -10   4  -9    6.30    1.20
 -10   4  -9    5.40    0.90
 -10   4  -9    5.10    0.60
  -9  -3   9    4.60    1.00
   8   3  -9  319.37    8.00
  -8  -3   9  310.07    8.80
   7   3  -9   30.60    1.50
   7   3  -9   32.20    2.40
   6   3  -9    2.20    0.60
   6   3  -9    1.20    0.70
   6   3  -9    0.30    1.00
  -6  -3   9    0.50    1.00
   5   3  -9  184.58    6.00
   5   3  -9  177.38    6.30
   5   3  -9  185.08    5.60
  -5  -3   9  183.28    8.50
   4   3  -9   36.90    2.30
   4   3  -9   32.80    1.80
   4   3  -9   35.30    2.50
   4   3  -9   33.10    2.20
  -4  -3   9   30.90    2.10
  -4  -3   9   30.20    2.60
   3   3  -9 1100.79   26.80
   3   3  -9 1079.59   27.00
   3   3  -9 1077.09   25.90
  -3  -3   9 1051.79   27.70
  -3  -3   9 1060.49   27.50
  -3  -3   9 1028.40   26.40
   2   3  -9    8.90    1.30
   2   3  -9    9.10    1.10
   2   3  -9    7.40    0.90
  -2  -3   9    8.60    1.00
  -2  -3   9    9.40    1.50
  -2  -3   9    8.80    1.50
   1   3  -9  182.18    5.00
   1   3  -9  184.28    5.70
   1   3  -9  182.68    5.90
  -1  -3   9  191.48    6.60
  -1  -3   9  185.88    5.40
  -1  -3   9  189.08    6.20
   0   3  -9  162.58    4.40
   0   3  -9  173.08    5.60
   0   3  -9  171.78    5.20
   0  -3   9  176.28    6.20
   0  -3   9  171.68    5.60
  -1   3  -9   45.00    2.50
  -1   3  -9   45.40    2.00
   1  -3   9   45.30    2.70
  -2   3  -9  326.87    8.90
  -2   3  -9  328.47    9.70
   2  -3   9  320.87    9.80
  -3   3  -9  264.97    7.60
   3  -3   9  251.07    7.90
  -4   3  -9    1.40    0.90
  -4   3  -9    1.10    0.50
   4  -3   9    0.50    0.90
  -5   3  -9  183.98    5.70
  -5   3  -9  190.88    6.60
  -5   3  -9  190.38    5.40
   5  -3   9  196.18    6.80
  -6   3  -9   40.90    2.00
  -6   3  -9   38.50    2.30
  -6   3  -9   35.70    2.80
  -7   3  -9   38.10    2.90
  -7   3  -9   36.00    2.00
  -7   3  -9   34.10    2.20
  -8   3  -9   73.49    2.90
  -8   3  -9   74.99    3.80
  -8   3  -9   72.79    3.10
  -9   3  -9   75.89    3.60
  -9   3  -9   77.69    3.00
 -10   3  -9   54.09    1.80
 -10   3  -9   56.39    2.70
 -10   3  -9   54.99    2.20
  -9  -2   9  182.28    5.60
   8   2  -9  150.58    4.10
  -8  -2   9  145.89    5.00
   7   2  -9  160.68    4.50
  -7  -2   9  167.88    5.40
   6   2  -9   47.20    2.90
   6   2  -9   45.80    1.90
   6   2  -9   46.00    2.70
   6   2  -9   46.80    2.30
   5   2  -9  416.66   11.40
   5   2  -9  432.46   11.90
   5   2  -9  427.66   11.00
   5   2  -9  399.76   12.40
  -5  -2   9  403.56   11.80
   4   2  -9  131.19    5.10
   4   2  -9  133.79    4.20
   4   2  -9  136.09    4.80
  -4  -2   9  128.59    5.20
  -4  -2   9  126.59    4.70
  -4  -2   9  129.49    5.40
   3   2  -9   15.10    1.20
   3   2  -9   15.70    1.50
   3   2  -9   15.10    1.50
  -3  -2   9   16.40    1.80
  -3  -2   9   18.90    1.80
  -3  -2   9   16.20    1.40
   2   2  -9    6.10    1.00
   2   2  -9    7.20    0.80
   2   2  -9    6.70    1.10
  -2  -2   9    5.70    1.20
  -2  -2   9    7.10    1.00
  -2  -2   9    6.40    1.30
   1   2  -9  170.58    5.40
   1   2  -9  171.68    5.60
   1   2  -9  164.88    4.70
  -1  -2   9  171.88    5.70
  -1  -2   9  192.48    6.40
   0   2  -9 1160.98   28.40
   0   2  -9 1132.09   27.20
   0   2  -9 1158.08   28.10
   0  -2   9 1143.79   29.10
   0  -2   9 1129.79   28.20
  -1   2  -9  210.98    5.60
  -1   2  -9  225.58    6.90
  -1   2  -9  220.28    6.40
   1  -2   9  218.98    7.20
  -2   2  -9    4.80    0.90
  -2   2  -9    3.30    1.00
  -2   2  -9    4.20    0.50
   2  -2   9    4.40    1.10
  -3   2  -9  851.61   21.50
  -3   2  -9  821.62   20.20
   3  -2   9  847.42   21.70
  -4   2  -9  585.14   14.40
  -4   2  -9  571.44   15.70
   4  -2   9  584.64   15.90
  -5   2  -9  217.78    6.40
  -5   2  -9  215.68    7.30
  -5   2  -9  220.18    6.20
   5  -2   9  218.98    7.40
  -6   2  -9   11.30    1.30
  -6   2  -9   10.30    1.70
  -6   2  -9    9.70    1.30
  -7   2  -9  151.58    5.80
  -7   2  -9  153.78    4.90
  -7   2  -9  153.78    5.00
  -8   2  -9  196.98    5.80
  -8   2  -9  185.98    5.70
  -8   2  -9  194.88    6.70
  -9   2  -9   12.90    1.10
  -9   2  -9   12.40    1.30
  -9   2  -9   15.00    1.90
 -10   2  -9   -0.20    0.70
 -10   2  -9    1.00    0.40
 -10   2  -9    0.10    0.60
  -9  -1   9   70.19    3.00
   8   1  -9   14.00    1.10
  -8  -1   9   14.80    1.60
   7   1  -9   47.70    1.90
  -7  -1   9   48.80    2.60
   6   1  -9    4.60    1.20
   5   1  -9  181.08    5.90
   5   1  -9  187.18    6.20
   4   1  -9   10.40    1.40
   4   1  -9   12.30    1.50
   4   1  -9   10.90    1.20
  -4  -1   9   11.20    1.60
  -4  -1   9   11.00    1.70
  -4  -1   9   12.20    1.30
   3   1  -9  825.12   20.80
   3   1  -9  796.22   21.10
   3   1  -9  830.62   20.10
  -3  -1   9  832.12   21.40
  -3  -1   9  809.32   20.70
  -3  -1   9  816.32   21.60
   2   1  -9  123.59    4.30
   2   1  -9  121.39    3.70
   2   1  -9  125.39    4.40
  -2  -1   9  120.89    4.90
  -2  -1   9  132.89    4.70
  -2  -1   9  119.29    4.10
   1   1  -9    3.80    0.80
   1   1  -9    4.00    0.60
   1   1  -9    4.50    0.90
  -1  -1   9    3.40    1.00
  -1  -1   9    4.20    0.90
   0   1  -9  466.75   12.30
   0   1  -9  452.95   11.40
   0   1  -9  459.55   12.40
   0  -1   9  471.75   13.10
   0  -1   9  455.25   12.10
  -1   1  -9 1055.09   25.80
  -1   1  -9 1100.19   26.90
  -1   1  -9 1106.89   27.20
   1  -1   9 1063.79   27.60
  -2   1  -9   13.90    1.70
  -2   1  -9   13.50    0.90
  -2   1  -9   15.00    1.40
   2  -1   9   13.60    1.60
  -3   1  -9   63.79    2.30
  -3   1  -9   64.09    3.20
   3  -1   9   63.19    3.20
  -4   1  -9   26.30    2.20
  -4   1  -9   26.70    1.60
   4  -1   9   28.00    2.30
  -5   1  -9   40.10    2.20
  -5   1  -9   43.40    2.90
  -5   1  -9   47.30    2.20
   5  -1   9   45.60    3.00
  -6   1  -9    8.30    1.20
  -6   1  -9    7.80    1.60
  -6   1  -9    7.50    1.20
  -7   1  -9    1.20    0.80
  -7   1  -9    1.50    0.90
  -7   1  -9    1.50    1.20
  -8   1  -9    3.60    0.90
  -8   1  -9    3.30    0.70
  -8   1  -9    3.50    1.30
  -8   1  -9    1.20    0.90
  -9   1  -9   26.10    2.20
  -9   1  -9   26.10    1.40
  -9   1  -9   25.40    1.60
 -10   1  -9   24.70    1.00
 -10   1  -9   24.20    1.60
 -10   0   9  214.78    6.30
  -9   0   9  238.78    7.00
   8   0  -9    9.20    0.80
  -8   0   9   10.60    1.30
   7   0  -9   45.80    1.80
   7   0  -9   46.30    2.90
  -7   0   9   43.70    2.40
   6   0  -9  457.85   12.60
  -6   0   9  446.36   12.00
   5   0  -9   11.80    1.20
   5   0  -9   13.20    1.50
  -5   0   9   16.10    1.80
   4   0  -9   76.69    3.70
   4   0  -9   82.49    3.30
  -4   0   9   83.29    3.80
  -4   0   9   73.29    3.20
  -4   0   9   82.29    3.90
   3   0  -9   24.30    1.40
   3   0  -9   22.80    1.80
   3   0  -9   24.00    1.70
  -3   0   9   22.30    2.00
  -3   0   9   23.50    1.60
  -3   0   9   23.40    1.90
   2   0  -9  240.68    7.00
   2   0  -9  232.48    6.40
   2   0  -9  238.98    7.30
  -2   0   9  240.38    7.80
  -2   0   9  237.68    7.20
  -2   0   9  231.98    6.90
   1   0  -9  183.78    5.10
   1   0  -9  191.08    5.90
   1   0  -9  185.58    6.00
  -1   0   9  185.98    6.50
  -1   0   9  186.08    5.70
   0   0  -9  304.07    8.90
   0   0  -9  305.87    8.00
   0   0  -9  312.37    8.90
   0   0   9  326.97    9.60
  -1   0  -9  121.79    4.50
  -1   0  -9  117.29    3.50
  -1   0  -9  122.59    4.50
   1   0   9  116.19    4.80
  -2   0  -9    4.20    0.70
  -2   0  -9    3.90    1.00
   2   0   9    4.00    1.00
   2   0   9    6.00    1.30
  -3   0  -9   79.89    3.80
  -3   0  -9   82.69    2.80
   3   0   9   78.19    3.60
  -4   0  -9  107.49    3.80
  -4   0  -9  109.19    3.60
  -4   0  -9  107.39    4.40
   4   0   9  101.79    4.40
  -5   0  -9    9.30    1.10
  -5   0  -9    5.30    1.00
  -5   0  -9    7.40    1.50
  -6   0  -9   87.69    3.30
  -6   0  -9   89.09    3.40
  -6   0  -9   89.79    4.20
  -7   0  -9   77.29    2.70
  -7   0  -9   80.69    3.10
  -7   0  -9   85.59    4.00
  -7   0  -9   78.59    3.10
  -8   0  -9   32.30    1.90
  -8   0  -9   32.30    1.60
  -8   0  -9   34.20    2.60
  -9   0  -9    9.10    0.80
  -9   0  -9    9.90    1.40
 -10   1   9   77.59    3.10
   9  -1  -9    2.10    0.80
  -9   1   9    3.80    1.00
   8  -1  -9   73.99    2.90
   8  -1  -9   74.89    2.30
  -8   1   9   76.69    3.20
   7  -1  -9  167.98    4.50
   7  -1  -9  155.48    5.70
   7  -1  -9  159.08    4.90
  -7   1   9  166.18    5.30
   6  -1  -9   45.50    2.60
  -6   1   9   45.30    2.40
   5  -1  -9   47.80    2.20
   5  -1  -9   50.49    2.60
  -5   1   9   48.30    2.90
   4  -1  -9  175.08    5.50
   4  -1  -9  166.08    5.00
   4  -1  -9  164.98    6.00
  -4   1   9  156.78    5.50
  -4   1   9  173.78    6.00
  -4   1   9  168.38    6.20
   3  -1  -9   94.39    3.20
   3  -1  -9   93.79    4.00
   3  -1  -9   95.59    3.50
  -3   1   9   92.99    3.80
  -3   1   9   95.19    4.20
  -3   1   9   92.29    3.60
   2  -1  -9   63.39    2.70
   2  -1  -9   64.99    3.10
   2  -1  -9   60.59    2.30
  -2   1   9   62.99    3.30
  -2   1   9   62.89    2.80
  -2   1   9   63.29    2.80
   1  -1  -9  108.59    4.20
   1  -1  -9  107.89    3.30
   1  -1  -9  104.99    3.90
  -1   1   9  101.49    3.70
  -1   1   9  107.19    4.50
   0  -1  -9    9.80    1.30
   0  -1  -9    8.00    0.90
   0  -1  -9    6.70    1.10
   0   1   9   10.70    1.60
  -1  -1  -9    6.50    1.20
  -1  -1  -9   11.40    1.00
  -1  -1  -9    7.80    1.20
   1   1   9    7.60    1.40
  -2  -1  -9    4.30    1.10
  -2  -1  -9    4.10    0.80
   2   1   9    4.30    1.10
   2   1   9    4.00    1.00
  -3  -1  -9   39.30    2.50
  -3  -1  -9   39.40    1.90
  -3  -1  -9   38.20    2.70
   3   1   9   40.80    2.50
  -4  -1  -9    2.10    1.00
  -4  -1  -9    2.00    0.70
  -4  -1  -9    1.50    0.80
   4   1   9    5.10    1.30
  -5  -1  -9    5.60    1.40
  -5  -1  -9    5.10    1.00
  -5  -1  -9    6.50    1.10
  -6  -1  -9    5.40    1.00
  -6  -1  -9    4.80    1.40
  -6  -1  -9    5.00    0.80
  -7  -1  -9   13.90    1.20
  -7  -1  -9   17.50    2.30
  -7  -1  -9   15.20    1.40
  -7  -1  -9   14.30    1.50
  -8  -1  -9   95.09    2.90
  -8  -1  -9  100.19    4.10
  -9  -1  -9   87.69    3.40
  -9  -1  -9   87.29    2.50
  11  -2  -9   54.49    2.30
  10  -2  -9   52.59    2.50
 -10   2   9   57.39    2.70
   9  -2  -9   31.60    1.90
  -9   2   9   30.00    2.10
   8  -2  -9  156.38    4.80
  -8   2   9  153.58    5.20
   7  -2  -9   61.09    2.50
   7  -2  -9   60.59    3.10
   7  -2  -9   64.29    2.10
  -7   2   9   64.29    2.90
   6  -2  -9  206.88    6.70
  -6   2   9  214.28    6.30
   5  -2  -9   40.20    2.20
  -5   2   9   42.80    2.70
   4  -2  -9    9.60    1.20
   4  -2  -9    9.00    1.10
  -4   2   9    7.90    1.50
  -4   2   9   10.70    1.50
   3  -2  -9   47.70    2.80
   3  -2  -9   47.30    2.30
   3  -2  -9   50.09    2.10
  -3   2   9   49.20    2.60
  -3   2   9   49.90    3.00
  -3   2   9   47.80    2.50
   2  -2  -9  429.76   11.20
   2  -2  -9  443.96   11.70
   2  -2  -9  427.56   12.30
  -2   2   9  436.66   11.80
  -2   2   9  442.36   12.80
   1  -2  -9   40.10    1.80
   1  -2  -9   37.00    2.10
   1  -2  -9   38.40    2.40
  -1   2   9   40.20    2.00
  -1   2   9   40.60    2.70
   0  -2  -9  120.99    3.80
   0  -2  -9  123.09    4.80
   0  -2  -9  124.29    4.50
   0   2   9  119.09    5.10
  -1  -2  -9  127.89    3.90
  -1  -2  -9  122.99    5.00
   1   2   9  118.39    5.00
   1   2   9  124.29    4.40
  -2  -2  -9   26.80    2.30
  -2  -2  -9   30.10    1.70
   2   2   9   29.60    2.10
   2   2   9   25.60    2.20
  -3  -2  -9  341.87    9.10
  -3  -2  -9  335.77   10.00
   3   2   9  339.27   10.00
  -4  -2  -9  285.17    7.80
  -4  -2  -9  283.87    8.70
  -4  -2  -9  270.77    7.70
   4   2   9  275.07    8.70
  -5  -2  -9  213.08    5.80
  -5  -2  -9  226.38    7.40
  -5  -2  -9  224.58    6.50
  -5  -2  -9  209.78    6.20
  -6  -2  -9    9.50    1.20
  -6  -2  -9    9.70    1.70
  -6  -2  -9    8.70    1.00
  -7  -2  -9  462.55   13.00
  -7  -2  -9  470.95   11.60
  -8  -2  -9    4.60    0.70
  -8  -2  -9    4.60    1.20
  -9  -2  -9   18.60    1.50
  12  -3  -9   56.39    2.10
  11  -3  -9   45.40    2.20
 -11   3   9   45.80    2.30
  10  -3  -9    0.90    0.90
 -10   3   9    1.50    0.90
   9  -3  -9    2.80    0.90
  -9   3   9    2.50    1.00
   8  -3  -9   76.39    3.00
  -8   3   9   77.69    3.30
   7  -3  -9    6.50    0.70
   7  -3  -9    7.20    1.00
  -7   3   9    7.60    1.20
  -6   3   9  118.29    4.20
   5  -3  -9   74.99    3.10
  -5   3   9   74.69    3.70
   4  -3  -9    5.60    1.00
  -4   3   9    6.20    1.30
  -4   3   9    5.00    1.10
   3  -3  -9  289.37    8.10
   3  -3  -9  288.17    7.90
  -3   3   9  282.77    8.50
  -3   3   9  286.17    9.30
   2  -3  -9  207.98    7.10
   2  -3  -9  210.98    6.30
   2  -3  -9  212.28    6.00
  -2   3   9  213.88    7.50
  -2   3   9  202.18    6.60
  -2   3   9  211.18    6.50
   1  -3  -9  205.38    5.90
   1  -3  -9  203.48    6.30
   1  -3  -9  208.28    7.10
  -1   3   9  203.08    7.30
   0  -3  -9 1672.43   39.40
   0  -3  -9 1649.73   40.20
   0  -3  -9 1668.03   41.00
   0   3   9 1565.64   40.90
  -1  -3  -9    4.30    0.80
  -1  -3  -9    4.10    1.20
   1   3   9    4.40    1.00
   1   3   9    6.50    1.40
  -2  -3  -9    6.80    1.00
  -2  -3  -9    7.80    1.40
   2   3   9    8.00    1.30
  -3  -3  -9  108.19    4.50
  -3  -3  -9  109.39    3.70
   3   3   9  105.49    4.30
   3   3   9  100.29    3.30
  -4  -3  -9   15.20    2.00
  -4  -3  -9   11.90    1.00
  -4  -3  -9   12.20    1.40
  -5  -3  -9   22.50    2.40
  -5  -3  -9   23.70    1.40
  -6  -3  -9   54.29    2.00
  -6  -3  -9   53.29    3.20
  -7  -3  -9   24.70    1.30
  -7  -3  -9   26.50    2.30
  -8  -3  -9   17.60    0.90
  -8  -3  -9   15.00    1.70
  12  -4  -9    0.20    0.70
  11  -4  -9    4.40    1.00
 -11   4   9    3.50    0.90
  10  -4  -9  233.58    6.70
 -10   4   9  229.68    6.90
   9  -4  -9    2.70    1.00
  -9   4   9    3.00    1.10
   8  -4  -9  196.58    5.90
  -8   4   9  200.78    6.20
   7  -4  -9  209.68    6.00
  -7   4   9  211.18    6.50
   6  -4  -9  187.08    6.00
  -6   4   9  188.18    5.90
  -5   4   9  182.88    5.60
  -4   4   9   14.20    1.90
  -4   4   9   12.40    1.60
  -3   4   9  128.69    4.70
  -3   4   9  124.79    5.40
   2  -4  -9  311.67    8.50
  -2   4   9  315.97    8.90
  -2   4   9  305.57   10.00
   1  -4  -9  227.78    6.60
  -1   4   9  236.08    8.10
   0   4   9  247.98    8.40
  -1  -4  -9   70.09    2.80
  -1  -4  -9   69.69    3.40
  -2  -4  -9  305.27    8.30
  -2  -4  -9  304.17    9.30
   2   4   9  292.57    8.00
  -3  -4  -9  496.65   12.10
  -3  -4  -9  481.55   13.70
   3   4   9  486.75   12.40
  -4  -4  -9  140.29    5.40
  -4  -4  -9  137.49    4.00
  -5  -4  -9    0.60    0.60
  -5  -4  -9    0.30    1.10
  -6  -4  -9  125.19    3.60
  -6  -4  -9  129.59    5.00
  -7  -4  -9  154.78    4.00
  -7  -4  -9  149.09    5.20
  -8  -4  -9    7.10    1.10
  12  -5  -9  130.19    3.90
  11  -5  -9   12.40    1.30
 -11   5   9    8.40    1.20
  10  -5  -9    6.20    1.20
 -10   5   9    6.00    1.20
   9  -5  -9   11.50    1.30
  -9   5   9   11.80    1.50
   8  -5  -9   36.10    2.10
  -8   5   9   37.30    2.40
   7  -5  -9   10.40    1.20
  -7   5   9    6.20    1.20
   6  -5  -9  139.49    4.30
  -6   5   9  139.59    4.70
  -5   5   9   60.99    2.70
  -4   5   9   23.40    2.40
  -4   5   9   25.60    3.20
  -3   5   9  343.47   11.10
  -3   5   9  348.37   10.10
  -2   5   9    6.50    1.50
   0  -5  -9  142.99    5.30
  -1  -5  -9   32.60    2.50
   1   5   9   37.90    1.80
  -2  -5  -9    0.30    0.90
  -2  -5  -9    2.30    0.60
   2   5   9    0.80    0.60
  -3  -5  -9   16.10    1.20
  -3  -5  -9   18.00    2.10
   3   5   9   16.70    1.30
  -4  -5  -9    5.10    1.40
  -4  -5  -9    5.90    0.80
   4   5   9    6.20    1.00
  -5  -5  -9   88.79    4.10
  -5  -5  -9   89.39    2.70
  -6  -5  -9  214.18    5.40
  -6  -5  -9  212.08    6.90
  -7  -5  -9    1.10    0.80
  12  -6  -9   39.40    1.90
  11  -6  -9   22.00    1.80
 -11   6   9   22.70    1.70
  10  -6  -9  164.98    5.10
 -10   6   9  158.18    5.30
   9  -6  -9   23.50    1.90
  -9   6   9   22.70    2.00
   8  -6  -9   12.20    1.30
  -8   6   9   10.80    1.50
   7  -6  -9   33.20    1.90
  -7   6   9   31.60    2.30
   6  -6  -9 1029.80   25.40
  -6   6   9 1060.39   26.00
   5  -6  -9  244.48    6.70
  -5   6   9  241.28    7.10
  -4   6   9   24.40    1.60
   3  -6  -9   16.70    1.50
   2  -6  -9  135.59    4.90
   1  -6  -9  640.04   17.80
  -1   6   9  717.23   18.20
   0  -6  -9   44.40    1.70
   0  -6  -9   41.30    2.80
   0   6   9   43.50    2.00
  -1  -6  -9  233.18    6.00
  -1  -6  -9  218.48    7.60
   1   6   9  226.58    6.40
  -2  -6  -9   32.30    1.50
  -2  -6  -9   29.20    2.60
   2   6   9   32.80    1.70
  -3  -6  -9  216.58    7.30
  -3  -6  -9  212.88    5.60
   3   6   9  210.08    6.00
  -4  -6  -9   76.89    2.40
  -4  -6  -9   78.29    3.90
   4   6   9   73.69    2.70
  -5  -6  -9   10.50    1.60
  -5  -6  -9    9.70    0.80
  -6  -6  -9    4.30    1.20
  -7  -6  -9   19.00    1.50
  12  -7  -9   15.50    1.30
  11  -7  -9    4.10    1.00
 -11   7   9    3.80    1.00
  10  -7  -9   10.00    1.30
 -10   7   9    6.90    1.30
   9  -7  -9    3.40    1.00
  -9   7   9    3.90    1.10
   8  -7  -9    6.60    1.10
  -8   7   9    5.90    1.30
   7  -7  -9   52.39    2.40
  -7   7   9   50.89    2.70
   6  -7  -9  352.56    9.40
  -6   7   9  357.56    9.90
   5  -7  -9  169.38    5.10
  -5   7   9  177.18    5.50
   4  -7  -9  122.49    4.80
   4  -7  -9  123.49    3.90
  -4   7   9  133.89    4.30
   3  -7  -9    4.10    1.00
  -3   7   9    3.40    0.80
   2  -7  -9    2.20    0.90
  -2   7   9    1.10    0.60
   1  -7  -9    3.80    0.60
   1  -7  -9    3.90    1.20
  -1   7   9    4.50    0.80
   0  -7  -9   32.00    2.60
   0  -7  -9   30.10    1.30
   0   7   9   32.20    1.80
  -1  -7  -9   17.00    2.20
  -1  -7  -9   16.60    1.00
   1   7   9   19.00    1.40
  -2  -7  -9   15.00    1.00
  -2  -7  -9   15.70    2.10
   2   7   9   14.90    1.40
  -3  -7  -9  155.88    5.90
   3   7   9  148.29    4.60
  -4  -7  -9    2.40    1.20
   4   7   9    1.70    0.70
  -5  -7  -9   65.59    3.20
  -6  -7  -9   72.29    3.00
  12  -8  -9   49.20    2.00
  11  -8  -9    2.10    0.80
 -11   8   9    1.30    0.80
  10  -8  -9  133.79    4.20
 -10   8   9  121.49    4.40
   9  -8  -9  141.89    4.50
  -9   8   9  136.69    4.90
   8  -8  -9   17.80    1.60
  -8   8   9   14.90    1.70
   7  -8  -9   77.99    3.00
  -7   8   9   82.29    3.60
   6  -8  -9  376.86   10.10
  -6   8   9  392.56   10.70
   5  -8  -9   78.49    4.30
  -5   8   9   85.99    3.40
   4  -8  -9   90.39    4.10
  -4   8   9   92.69    3.40
   3  -8  -9    2.80    1.10
  -3   8   9    2.30    0.80
   2  -8  -9   14.30    1.90
  -2   8   9   15.60    1.40
   1  -8  -9   63.49    3.50
  -1   8   9   61.89    2.50
   0  -8  -9   62.89    3.70
   0   8   9   65.69    2.70
  -1  -8  -9   18.40    2.40
   1   8   9   20.30    1.50
  -2  -8  -9  492.75   13.90
   2   8   9  478.95   12.40
  -3  -8  -9   11.10    1.80
   3   8   9   10.10    1.10
  -4  -8  -9    2.40    1.10
   4   8   9    2.40    0.70
  -5  -8  -9    0.40    0.80
  12  -9  -9   59.29    2.10
  11  -9  -9   49.00    2.10
 -11   9   9   46.00    2.20
  10  -9  -9   18.90    1.60
 -10   9   9   20.50    1.80
   9  -9  -9   21.50    1.70
  -9   9   9   17.50    1.90
   8  -9  -9   27.50    1.80
  -8   9   9   24.10    2.20
   7  -9  -9   72.79    2.90
  -7   9   9   76.89    3.40
   6  -9  -9   34.60    3.50
  -6   9   9   40.60    2.40
   5  -9  -9   15.10    2.20
  -5   9   9   16.90    1.70
   4  -9  -9   69.39    3.70
  -4   9   9   71.69    2.90
   3  -9  -9   14.50    1.90
  -3   9   9   17.20    1.50
   2  -9  -9   97.59    4.40
  -2   9   9   90.99    3.30
   1  -9  -9  298.37    9.40
  -1   9   9  284.57    8.00
   0  -9  -9  251.37    8.40
   0   9   9  255.57    7.10
  -1  -9  -9    0.80    1.20
   1   9   9    1.20    0.80
  -2  -9  -9  178.68    6.40
   2   9   9  178.78    5.30
  -3  -9  -9    1.60    1.00
   3   9   9    0.10    0.60
  -4  -9  -9   66.99    3.00
   4   9   9   66.69    2.20
  11 -10  -9   67.19    2.40
 -11  10   9   60.39    2.40
  10 -10  -9   10.00    1.10
 -10  10   9    6.50    1.10
   9 -10  -9   81.99    3.00
  -9  10   9   78.79    3.30
   8 -10  -9   27.50    1.80
  -8  10   9   30.30    2.20
   7 -10  -9  104.89    5.20
  -7  10   9  121.69    4.30
   6 -10  -9    8.20    2.10
  -6  10   9    9.70    1.40
   5 -10  -9    9.10    1.80
  -5  10   9    9.00    1.30
   4 -10  -9  103.09    4.60
  -4  10   9  108.49    3.90
   3 -10  -9    5.00    1.50
  -3  10   9    8.80    1.20
   2 -10  -9   34.50    2.90
  -2  10   9   37.30    2.00
   1 -10  -9  165.68    6.40
  -1  10   9  173.18    5.20
   0 -10  -9  104.59    4.70
   0  10   9  102.19    3.60
  -1 -10  -9   79.39    4.00
   1  10   9   81.69    3.00
  -2 -10  -9    4.10    1.20
   2  10   9    2.80    0.80
  -3 -10  -9   28.40    2.00
   3  10   9   30.10    1.50
   4  10   9    9.30    0.80
  11 -11  -9   61.99    2.60
  10 -11  -9    4.30    0.90
 -10  11   9    3.20    0.90
  -9  11   9    3.50    1.00
  -8  11   9    4.90    1.10
   7 -11  -9  178.08    6.50
  -7  11   9  195.68    5.90
   6 -11  -9   -3.30    1.20
  -6  11   9   -0.10    0.80
   5 -11  -9  253.37    8.30
  -5  11   9  269.57    7.50
   4 -11  -9  143.39    5.60
   3 -11  -9   27.70    2.70
  -3  11   9   30.50    1.90
   2 -11  -9   21.20    2.40
  -2  11   9   20.80    1.60
   1 -11  -9  143.39    5.60
  -1  11   9  144.29    4.50
   0 -11  -9   28.90    2.50
   0  11   9   34.30    1.80
  -1 -11  -9    9.90    1.50
   1  11   9   11.70    1.10
  -2 -11  -9    4.00    1.10
   2  11   9    4.70    0.70
   3  11   9   -0.30    0.40
 -10  12   9   19.90    1.40
  -9  12   9  163.18    5.00
   8 -12  -9   36.40    2.40
  -8  12   9   40.40    2.20
   7 -12  -9  119.89    4.70
  -7  12   9  129.29    4.30
   6 -12  -9    3.90    1.40
  -6  12   9    4.50    1.00
   5 -12  -9   26.20    2.50
  -5  12   9   33.50    2.00
   4 -12  -9    0.20    1.10
   3 -12  -9    2.50    1.30
  -3  12   9    3.40    0.80
   2 -12  -9    4.40    1.40
  -2  12   9    4.20    0.80
   1 -12  -9  147.89    5.40
  -1  12   9  144.89    4.40
   0 -12  -9   25.90    2.20
   0  12   9   22.00    1.40
  -1 -12  -9   38.50    2.20
   1  12   9   39.30    1.70
   2  12   9  108.59    3.10
  -9  13   9    0.90    0.60
   8 -13  -9   12.40    1.40
  -8  13   9   11.20    1.20
   7 -13  -9   18.30    1.80
  -7  13   9   20.50    1.50
   6 -13  -9   13.90    1.80
  -6  13   9   18.30    1.40
   5 -13  -9    3.30    1.20
   4 -13  -9    8.50    1.50
   3 -13  -9  109.39    4.40
  -3  13   9  113.59    3.50
   2 -13  -9   16.80    1.90
  -2  13   9   15.40    1.20
   1 -13  -9  107.29    4.00
  -1  13   9  100.29    3.20
   0 -13  -9    2.20    0.80
   0  13   9    2.20    0.60
   6 -14  -9    6.20    1.10
   5 -14  -9    0.50    0.80
   4 -14  -9   -0.30    0.70
   3 -14  -9    5.20    1.10
  -3  14   9    4.80    0.90
  -2  14   9    5.40    0.60
   1  14 -10   21.10    1.30
   0  14 -10    4.70    1.00
   0  14 -10    4.10    0.80
  -1  14 -10   14.80    1.20
  -1  14 -10   13.90    1.50
  -2  14 -10  150.88    4.80
  -3  14 -10   35.80    2.50
   3  13 -10    0.70    0.60
   2  13 -10   11.30    1.10
   2  13 -10   10.20    1.30
   1  13 -10   53.69    2.70
   1  13 -10   50.69    2.30
   0  13 -10    4.40    1.00
   0  13 -10    4.20    1.20
  -1  13 -10   23.80    2.10
  -1  13 -10   26.70    1.70
  -2  13 -10   15.70    1.70
   4  12 -10   30.90    1.80
   4  12 -10   32.60    1.30
   4  12 -10   32.10    1.60
   3  12 -10  331.17    8.60
   3  12 -10  317.97    9.00
   2  12 -10    1.00    1.10
   2  12 -10    3.20    0.90
   1  12 -10   29.00    2.00
   1  12 -10   22.10    2.30
   0  12 -10   48.00    2.40
   0  12 -10   54.39    3.10
  -1  12 -10  492.65   12.60
  -1  12 -10  477.85   13.20
  -2  12 -10    3.50    1.20
   5  11 -10   24.20    1.10
   5  11 -10   23.10    1.60
   5  11 -10   23.10    1.40
   4  11 -10   97.79    3.40
   4  11 -10  101.79    3.80
   3  11 -10   77.79    3.60
   3  11 -10   77.79    3.10
   2  11 -10    1.10    0.80
   2  11 -10    1.50    1.20
   2  11 -10    1.00    0.90
   1  11 -10    3.60    1.10
   1  11 -10    9.00    1.70
   1  11 -10    4.30    0.90
   0  11 -10  160.98    4.90
   0  11 -10  169.38    5.20
   0  11 -10  162.68    5.90
  -1  11 -10   29.30    2.00
  -1  11 -10   26.70    2.40
  -1  11 -10   28.70    1.50
  -2  11 -10    5.10    1.30
   6  10 -10    7.80    1.00
   6  10 -10    7.20    0.70
   6  10 -10    6.40    0.80
   5  10 -10   54.39    2.60
   5  10 -10   51.09    1.90
   5  10 -10   53.09    2.30
   4  10 -10  121.29    4.60
   4  10 -10  116.09    4.10
   3  10 -10  184.18    5.60
   3  10 -10  189.38    6.30
   3  10 -10  168.58    5.60
   2  10 -10   46.00    2.60
   2  10 -10   47.60    2.40
   2  10 -10   46.70    3.20
   1  10 -10    1.90    1.00
   1  10 -10    2.00    0.80
   1  10 -10    0.80    1.20
   0  10 -10    5.90    1.50
   0  10 -10    8.60    1.30
   0  10 -10    8.30    1.00
  -1  10 -10  147.79    5.30
  -1  10 -10  142.09    4.70
  -2  10 -10   36.90    2.20
  -2  10 -10   34.70    2.50
   7   9 -10    3.10    0.50
   6   9 -10  132.29    4.20
   6   9 -10  137.99    3.80
   6   9 -10  141.99    4.60
   5   9 -10   35.60    2.50
   5   9 -10   30.00    2.00
   5   9 -10   33.20    1.60
   4   9 -10   40.70    2.40
   4   9 -10   41.30    2.30
   4   9 -10   46.80    3.00
   3   9 -10  208.88    7.10
   3   9 -10  206.38    6.40
   3   9 -10  209.68    6.40
   2   9 -10   10.80    1.90
   2   9 -10   13.70    1.40
   2   9 -10   15.60    1.60
   1   9 -10   61.59    2.60
   1   9 -10   65.79    2.90
   1   9 -10   63.39    3.50
   0   9 -10  296.87    8.10
   0   9 -10  284.57    8.70
   0   9 -10  278.37    7.60
  -1   9 -10    0.70    1.10
  -1   9 -10    4.00    1.00
  -2   9 -10   40.00    2.20
  -8   9 -10   79.79    3.00
  -8   9 -10   79.19    3.60
  -9   9 -10   47.10    2.50
  -9   9 -10   51.59    2.10
   7   8 -10  117.99    3.20
  -7  -8  10  109.99    3.70
   6   8 -10   31.30    1.90
   6   8 -10   36.30    1.60
   6   8 -10   35.50    2.40
   5   8 -10   16.10    1.60
   5   8 -10   16.10    1.60
   5   8 -10   19.10    2.00
   4   8 -10   24.20    1.90
   4   8 -10   27.90    2.00
   4   8 -10   27.00    2.60
   3   8 -10   36.40    2.90
   3   8 -10   34.90    2.10
   3   8 -10   34.10    2.20
   2   8 -10  283.97    8.80
   2   8 -10  279.67    8.00
   2   8 -10  279.47    7.90
   1   8 -10   29.40    1.70
   1   8 -10   26.60    2.40
   1   8 -10   28.30    1.90
   0   8 -10  206.58    5.80
   0   8 -10  218.08    6.30
   0   8 -10  211.68    6.80
  -1   8 -10  103.79    3.70
  -1   8 -10  109.89    4.20
  -2   8 -10    9.50    1.20
  -6   8 -10   19.40    1.70
  -7   8 -10   31.00    2.60
  -7   8 -10   28.70    2.00
  -8   8 -10   67.19    3.50
  -8   8 -10   73.69    2.90
  -9   8 -10    8.30    1.40
  -9   8 -10    9.10    1.10
 -10   8 -10    7.00    0.80
   8   7 -10    0.30    0.40
   7   7 -10   36.30    2.30
   7   7 -10   40.50    1.60
   6   7 -10    2.00    0.90
   6   7 -10    2.20    0.70
   6   7 -10    0.40    1.00
   5   7 -10  165.28    5.40
   5   7 -10  161.98    5.30
   5   7 -10  178.88    6.00
   4   7 -10    2.00    1.00
   4   7 -10    1.80    1.30
   4   7 -10    3.00    0.90
   3   7 -10   13.50    1.90
   3   7 -10   13.40    1.50
   3   7 -10   14.80    1.60
   2   7 -10   19.90    1.70
   2   7 -10   22.20    1.60
   2   7 -10   21.90    2.30
   1   7 -10  240.68    6.90
   1   7 -10  240.38    6.70
   1   7 -10  244.48    7.60
   0   7 -10   12.10    1.30
   0   7 -10    8.70    1.40
  -1   7 -10    3.80    0.90
  -2   7 -10  340.57    9.50
  -5   7 -10    2.10    0.90
  -6   7 -10  336.67    9.10
  -6   7 -10  318.97   10.00
  -7   7 -10  141.89    5.60
  -7   7 -10  141.79    4.70
  -7   7 -10  140.59    4.10
  -8   7 -10  255.07    8.10
  -8   7 -10  251.57    7.20
  -9   7 -10   11.30    1.20
  -9   7 -10   11.40    1.60
 -10   7 -10    1.30    0.60
   8   6 -10   29.70    1.30
  -8  -6  10   29.10    1.80
   7   6 -10  115.89    4.30
   7   6 -10  115.99    3.40
   6   6 -10    9.70    1.30
   6   6 -10   10.80    1.60
   6   6 -10    9.30    1.30
   6   6 -10   11.00    1.00
   5   6 -10   12.80    1.50
   5   6 -10   11.60    1.40
   5   6 -10   14.00    1.80
   4   6 -10   95.19    3.70
   4   6 -10   93.49    3.60
   4   6 -10   98.49    4.20
   3   6 -10  107.99    3.90
   3   6 -10  113.79    3.90
   3   6 -10  111.89    4.60
   3   6 -10  109.19    4.80
   2   6 -10  125.99    4.30
   2   6 -10  133.29    4.20
   2   6 -10  126.39    4.90
   2   6 -10  130.09    5.20
   1   6 -10    4.20    1.10
   1   6 -10    4.90    1.00
   1   6 -10    2.00    0.90
   1   6 -10    2.70    0.60
   0   6 -10  265.07    8.40
   0   6 -10  260.97    7.80
  -1   6 -10   16.50    1.90
  -2   6 -10  150.08    5.80
   3  -6  10  132.79    5.20
  -4   6 -10  111.29    3.90
  -5   6 -10   38.00    2.20
  -6   6 -10  151.58    4.90
  -6   6 -10  148.09    4.30
  -6   6 -10  146.49    5.80
  -7   6 -10   10.10    1.40
  -7   6 -10    9.60    1.80
  -7   6 -10   10.10    1.10
  -8   6 -10    1.50    1.20
  -8   6 -10    1.70    1.00
  -9   6 -10   40.50    2.60
  -9   6 -10   41.00    2.10
 -10   6 -10    3.00    0.90
 -10   6 -10    3.50    0.70
   8   5 -10    1.30    0.60
  -8  -5  10    1.60    0.90
   7   5 -10    8.80    1.50
   7   5 -10    7.90    0.90
   6   5 -10   33.40    2.10
   6   5 -10   34.70    1.70
   6   5 -10   35.80    2.60
   5   5 -10  114.09    4.00
   5   5 -10  114.99    4.10
   5   5 -10  118.39    4.70
   4   5 -10    4.10    1.00
   4   5 -10    2.00    0.80
   4   5 -10    3.90    1.20
   3   5 -10  221.08    6.40
   3   5 -10  221.68    7.10
   3   5 -10  219.58    6.50
   3   5 -10  225.78    7.40
   2   5 -10  303.47    9.10
   2   5 -10  305.37    9.40
   2   5 -10  323.07    8.40
   1   5 -10 1853.61   46.00
   1   5 -10 1930.11   46.60
   1   5 -10 1910.01   45.10
   0   5 -10  103.59    4.30
   0   5 -10  105.59    3.60
   0  -5  10   97.29    4.30
   0  -5  10  101.09    3.50
  -1   5 -10    2.00    0.90
  -1   5 -10    3.80    0.70
  -2   5 -10  143.19    5.60
  -3   5 -10   72.59    3.20
   3  -5  10   72.49    3.60
  -4   5 -10   89.79    3.40
   4  -5  10   89.89    4.20
  -5   5 -10  122.99    4.10
  -5   5 -10  117.09    4.90
  -5   5 -10  113.89    4.10
  -6   5 -10   27.50    2.10
  -6   5 -10   30.80    2.70
  -6   5 -10   29.60    1.60
  -7   5 -10   46.70    3.10
  -7   5 -10   48.20    2.10
  -7   5 -10   46.80    2.60
  -8   5 -10  181.78    5.40
  -8   5 -10  187.78    6.60
  -8   5 -10  196.88    5.80
  -9   5 -10    2.10    1.10
  -9   5 -10    1.90    0.90
 -10   5 -10    0.30    0.70
 -10   5 -10    0.30    0.60
  -9  -4  10   16.10    1.40
   8   4 -10  238.18    6.10
  -8  -4  10  227.98    6.90
   7   4 -10  115.29    4.40
   7   4 -10  113.79    3.50
   6   4 -10    1.20    0.60
   6   4 -10    1.50    0.70
   6   4 -10    1.70    1.10
   5   4 -10   40.40    2.10
   5   4 -10   36.50    2.60
   5   4 -10   38.70    2.20
   4   4 -10  569.64   15.30
   4   4 -10  586.34   15.90
   4   4 -10  562.94   14.60
   4   4 -10  578.64   14.80
   3   4 -10   10.60    1.60
   3   4 -10   10.50    1.20
   3   4 -10   11.00    1.50
   2   4 -10   43.30    2.70
   2   4 -10   43.40    1.90
   2   4 -10   45.90    2.70
   2   4 -10   42.50    2.40
  -2  -4  10   43.10    2.20
   1   4 -10  124.49    4.70
   1   4 -10  126.99    3.70
   1   4 -10  125.19    4.40
  -1  -4  10  122.29    4.90
  -1  -4  10  123.39    4.10
  -1  -4  10  121.99    5.40
   0   4 -10   11.80    0.80
   0   4 -10   13.70    1.20
   0   4 -10   12.60    1.60
   0  -4  10   14.60    1.90
   0  -4  10   12.00    1.50
  -1   4 -10  339.77    9.20
  -1   4 -10  345.57   10.20
   1  -4  10  339.97   10.60
  -2   4 -10   31.90    2.50
  -2   4 -10   31.60    1.70
   2  -4  10   29.00    2.40
   3  -4  10  607.04   16.50
  -4   4 -10  132.49    3.90
  -4   4 -10  139.39    4.50
   4  -4  10  133.79    5.30
  -5   4 -10    4.60    0.70
  -5   4 -10    4.30    1.30
  -5   4 -10    3.70    1.00
  -6   4 -10  199.98    5.70
  -6   4 -10  200.08    6.10
  -6   4 -10  203.98    7.10
  -7   4 -10   40.10    2.30
  -7   4 -10   38.20    2.00
  -7   4 -10   36.50    2.90
  -8   4 -10    1.10    0.70
  -8   4 -10    0.80    0.90
  -8   4 -10    1.00    1.10
  -9   4 -10   22.00    1.60
  -9   4 -10   20.30    2.00
 -10   4 -10   11.10    1.00
 -10   4 -10   10.40    1.40
 -10   4 -10    9.50    0.70
  -9  -3  10   70.99    2.80
   8   3 -10    1.00    0.60
  -8  -3  10    1.00    1.00
   7   3 -10   16.30    1.30
  -7  -3  10   18.60    1.90
   6   3 -10   15.70    1.80
   6   3 -10   12.00    1.00
   6   3 -10   12.20    1.40
   5   3 -10  183.78    6.50
   5   3 -10  185.58    6.00
   5   3 -10  167.28    5.40
   5   3 -10  181.88    5.60
   4   3 -10  478.05   12.50
   4   3 -10  484.45   13.40
   4   3 -10  471.65   12.90
   3   3 -10   65.59    3.10
   3   3 -10   68.69    3.30
   3   3 -10   70.79    3.40
   3   3 -10   78.19    2.80
  -3  -3  10   65.79    3.00
   2   3 -10  137.29    4.90
   2   3 -10  126.89    4.70
   2   3 -10  133.09    4.00
  -2  -3  10  132.19    5.20
  -2  -3  10  127.79    5.50
  -2  -3  10  126.79    4.40
   1   3 -10  386.76   10.60
   1   3 -10  384.36    9.80
   1   3 -10  396.16   11.00
  -1  -3  10  404.86   11.90
  -1  -3  10  375.06   11.10
  -1  -3  10  372.76   10.30
   0   3 -10   57.09    2.60
   0   3 -10   55.09    1.90
   0   3 -10   59.59    3.00
   0  -3  10   55.29    3.30
  -1   3 -10   39.10    2.50
  -1   3 -10   38.50    2.00
  -1   3 -10   36.80    1.40
   1  -3  10   38.80    2.70
  -2   3 -10   52.79    3.00
  -2   3 -10   49.00    2.40
  -2   3 -10   48.30    1.70
   2  -3  10   50.29    3.10
  -3   3 -10  250.47    6.60
   3  -3  10  254.87    8.10
  -4   3 -10   11.70    1.00
  -4   3 -10    9.20    1.60
  -4   3 -10    7.80    1.10
   4  -3  10    8.50    1.50
  -5   3 -10  171.58    5.40
  -5   3 -10  177.38    5.10
  -5   3 -10  167.08    6.20
  -6   3 -10    6.80    1.20
  -6   3 -10    8.00    1.10
  -6   3 -10    8.00    1.60
  -7   3 -10  243.38    6.80
  -7   3 -10  235.28    6.90
  -7   3 -10  232.08    7.80
  -8   3 -10   74.89    3.10
  -8   3 -10   77.09    3.10
  -8   3 -10   82.29    3.90
  -9   3 -10    8.00    1.40
  -9   3 -10    8.10    1.10
 -10   3 -10   16.00    0.80
 -10   3 -10   15.40    1.10
 -10   3 -10   14.80    2.00
  -9  -2  10    1.80    0.90
   8   2 -10   38.80    1.70
  -8  -2  10   35.00    2.30
   7   2 -10   68.99    2.50
  -7  -2  10   72.59    3.20
   6   2 -10  187.18    5.80
   6   2 -10  192.88    6.30
   6   2 -10  186.88    5.20
   5   2 -10    1.90    1.00
   5   2 -10    2.30    0.70
   5   2 -10    2.20    1.00
   4   2 -10    5.90    1.20
   4   2 -10    6.90    1.30
   4   2 -10    8.00    1.10
   4   2 -10    6.10    1.30
  -4  -2  10    6.80    1.20
   3   2 -10    1.50    0.80
   3   2 -10    1.50    0.60
   3   2 -10    3.00    0.90
  -3  -2  10    1.90    0.70
  -3  -2  10    1.60    1.00
  -3  -2  10    1.30    0.80
   2   2 -10 1073.79   26.50
   2   2 -10 1081.99   25.50
   2   2 -10 1049.00   26.50
  -2  -2  10 1054.19   27.40
  -2  -2  10 1039.70   26.70
  -2  -2  10 1011.80   26.10
   1   2 -10  209.18    6.70
   1   2 -10  211.58    6.50
   1   2 -10  201.38    5.60
  -1  -2  10  205.08    6.60
  -1  -2  10  210.18    7.30
   0   2 -10   71.79    3.00
   0   2 -10   69.59    2.30
   0   2 -10   72.19    3.30
   0  -2  10   66.79    3.60
  -1   2 -10   16.30    1.40
  -1   2 -10   16.50    1.80
  -1   2 -10   15.80    0.90
   1  -2  10   14.80    1.80
  -2   2 -10  780.32   20.30
  -2   2 -10  795.02   19.20
  -2   2 -10  806.92   21.00
   2  -2  10  784.42   21.10
  -3   2 -10  104.19    3.30
   3  -2  10  107.39    4.50
  -4   2 -10  695.73   16.80
  -4   2 -10  651.73   18.00
  -4   2 -10  685.13   17.10
   4  -2  10  676.03   18.30
  -5   2 -10   30.30    2.00
  -5   2 -10   31.60    2.60
  -5   2 -10   32.50    1.80
  -6   2 -10   30.10    2.60
  -6   2 -10   26.70    2.00
  -6   2 -10   26.90    1.80
  -7   2 -10   10.10    1.20
  -7   2 -10   10.10    1.30
  -7   2 -10   11.20    1.80
  -8   2 -10  198.28    6.60
  -8   2 -10  195.88    5.80
  -9   2 -10    3.60    0.60
  -9   2 -10    2.80    1.00
  -9   2 -10    2.60    0.80
 -10   2 -10   19.30    0.90
 -10  -1  10    6.60    1.00
  -9  -1  10  172.78    5.50
   8   1 -10    0.90    0.60
  -8  -1  10   -0.10    0.90
   7   1 -10   54.19    2.10
  -7  -1  10   54.29    2.80
   6   1 -10    1.70    0.60
   6   1 -10    1.80    0.80
   6   1 -10    2.40    1.00
  -6  -1  10    1.60    0.90
   5   1 -10    4.70    1.20
   5   1 -10    5.30    1.10
   5   1 -10    3.90    0.90
   4   1 -10   65.79    3.20
   4   1 -10   70.49    2.70
   4   1 -10   65.59    3.00
   4   1 -10   66.19    3.50
  -4  -1  10   68.39    3.80
  -4  -1  10   65.89    3.10
   3   1 -10    6.30    1.10
   3   1 -10    5.30    1.10
   3   1 -10    6.00    0.90
  -3  -1  10    5.20    1.20
  -3  -1  10    6.80    1.40
  -3  -1  10    5.30    1.00
   2   1 -10  756.92   19.10
   2   1 -10  735.93   19.20
   2   1 -10  733.53   18.10
  -2  -1  10  712.73   18.80
  -2  -1  10  751.62   19.30
  -2  -1  10  731.73   19.90
   1   1 -10  188.48    6.20
   1   1 -10  192.78    5.30
   1   1 -10  192.48    6.20
  -1  -1  10  195.18    6.90
  -1  -1  10  190.48    6.10
   0   1 -10  237.58    7.40
   0   1 -10  236.08    7.20
   0   1 -10  231.68    6.30
   0  -1  10  239.48    8.00
  -1   1 -10  451.05   12.30
  -1   1 -10  456.75   12.60
  -1   1 -10  436.26   11.20
   1  -1  10  437.36   13.00
  -2   1 -10  109.99    3.40
  -2   1 -10  106.39    4.60
  -2   1 -10  109.59    4.30
   2  -1  10  105.39    4.70
  -3   1 -10   50.39    2.10
  -3   1 -10   49.00    2.80
   3  -1  10   51.89    3.00
  -4   1 -10  147.99    5.60
  -4   1 -10  153.58    4.80
  -4   1 -10  155.08    4.70
   4  -1  10  144.09    5.70
  -5   1 -10    1.10    0.80
  -5   1 -10    0.30    1.00
  -5   1 -10    2.60    0.80
  -6   1 -10   13.70    2.00
  -6   1 -10   12.90    1.50
  -6   1 -10   11.40    1.40
  -7   1 -10   16.40    1.50
  -7   1 -10   18.90    1.60
  -7   1 -10   18.60    2.30
  -8   1 -10   35.00    2.60
  -8   1 -10   35.50    1.60
  -8   1 -10   34.80    2.00
  -9   1 -10   12.30    1.00
  -9   1 -10   13.50    1.60
  -9   1 -10   11.90    1.20
 -10   0  10    1.00    0.80
  -9   0  10  140.69    4.80
   8   0 -10   76.39    2.50
  -8   0  10   83.49    3.40
   7   0 -10   61.99    2.20
   7   0 -10   58.89    2.50
  -7   0  10   59.99    2.90
   6   0 -10    1.90    1.00
   6   0 -10    2.40    0.80
   6   0 -10    1.50    0.60
  -6   0  10    2.20    0.90
   5   0 -10  352.56    9.60
   5   0 -10  350.16   10.20
  -5   0  10  352.96    9.70
   4   0 -10  241.28    6.60
   4   0 -10  232.88    7.10
   4   0 -10  211.98    7.50
  -4   0  10  216.38    7.10
  -4   0  10  225.68    7.60
  -4   0  10  225.08    7.90
   3   0 -10  124.59    3.90
   3   0 -10  112.09    4.70
   3   0 -10  123.39    4.50
  -3   0  10  121.79    4.70
  -3   0  10  119.79    4.40
  -3   0  10  119.69    5.10
   2   0 -10   15.40    1.10
   2   0 -10   11.80    1.40
   2   0 -10   12.80    1.40
  -2   0  10   13.40    1.40
  -2   0  10   11.80    1.70
  -2   0  10   14.40    1.40
   1   0 -10   98.79    4.00
   1   0 -10  110.19    3.30
   1   0 -10  102.39    4.00
  -1   0  10  100.59    4.50
  -1   0  10   96.69    3.70
   0   0 -10    3.50    0.90
   0   0 -10    3.20    0.60
   0   0 -10    3.60    1.00
   0   0  10    6.60    1.40
  -1   0 -10   14.60    1.10
  -1   0 -10   13.70    1.70
  -1   0 -10   13.80    1.50
   1   0  10   14.90    1.80
  -2   0 -10  465.65   13.60
  -2   0 -10  494.15   12.40
   2   0  10  493.75   13.40
   2   0  10  486.35   14.10
  -3   0 -10   39.00    2.10
  -3   0 -10   41.50    2.00
  -3   0 -10   37.70    2.50
   3   0  10   39.90    2.70
  -4   0 -10   37.20    2.10
  -4   0 -10   40.20    2.10
  -4   0 -10   36.90    2.60
   4   0  10   40.00    3.40
  -5   0 -10    9.20    1.20
  -5   0 -10    8.30    1.60
  -5   0 -10   11.60    1.30
  -6   0 -10   78.89    3.90
  -6   0 -10   80.89    3.20
  -6   0 -10   78.09    3.10
  -7   0 -10    0.60    0.60
  -7   0 -10   -0.30    1.00
  -7   0 -10    0.70    0.80
  -7   0 -10    0.70    0.70
  -8   0 -10    9.70    1.50
  -8   0 -10   10.90    1.10
  -8   0 -10   11.70    1.00
  -9   0 -10   10.50    0.90
  -9   0 -10   11.60    1.40
 -10   1  10  130.49    4.40
   9  -1 -10   18.60    1.60
  -9   1  10   19.10    1.80
   8  -1 -10   51.29    1.80
   8  -1 -10   54.89    2.40
  -8   1  10   52.79    2.80
   7  -1 -10  403.56   10.10
   7  -1 -10  399.76   10.60
  -7   1  10  412.46   11.10
   6  -1 -10   57.09    2.40
   6  -1 -10   59.69    3.10
   6  -1 -10   60.49    2.20
  -6   1  10   60.49    2.80
   5  -1 -10  180.68    5.50
   5  -1 -10  177.48    6.00
  -5   1  10  180.38    5.60
   4  -1 -10   56.49    2.40
   4  -1 -10   56.49    2.80
   4  -1 -10   53.49    3.40
  -4   1  10   52.89    3.00
  -4   1  10   56.49    3.10
  -4   1  10   57.59    3.40
   3  -1 -10   28.30    1.90
   3  -1 -10   25.10    2.10
   3  -1 -10   28.90    1.60
  -3   1  10   27.10    2.00
  -3   1  10   26.90    2.30
  -3   1  10   27.00    1.90
   2  -1 -10   14.30    1.50
   2  -1 -10   16.80    1.20
   2  -1 -10   12.00    1.50
  -2   1  10   15.50    1.50
  -2   1  10   14.00    1.80
  -2   1  10   13.90    1.40
   1  -1 -10   30.20    2.20
   1  -1 -10   32.90    2.10
   1  -1 -10   31.00    1.60
  -1   1  10   32.40    2.50
   0  -1 -10  228.28    7.40
   0  -1 -10  217.78    7.10
   0  -1 -10  220.28    6.20
   0   1  10  225.88    7.80
  -1  -1 -10  164.28    5.90
  -1  -1 -10  166.88    4.90
  -1  -1 -10  167.18    6.10
   1   1  10  160.48    6.30
  -2  -1 -10    1.80    0.90
  -2  -1 -10    2.70    0.70
  -2  -1 -10    6.10    1.30
   2   1  10    2.50    1.00
  -3  -1 -10  279.47    8.70
  -3  -1 -10  280.37    7.80
  -3  -1 -10  293.47    7.80
   3   1  10  270.17    8.70
  -4  -1 -10   63.69    2.70
  -4  -1 -10   63.79    3.40
  -4  -1 -10   63.99    2.70
  -5  -1 -10   26.00    1.80
  -5  -1 -10   30.30    2.60
  -5  -1 -10   32.40    2.00
  -6  -1 -10    9.50    1.20
  -6  -1 -10   10.10    1.30
  -6  -1 -10   11.30    1.80
  -6  -1 -10   10.90    1.00
  -7  -1 -10  227.88    6.00
  -7  -1 -10  218.88    6.30
  -7  -1 -10  233.88    7.40
  -8  -1 -10  238.88    7.40
  -8  -1 -10  251.07    6.30
  -9  -1 -10   11.80    1.30
  -9  -1 -10   13.00    0.70
 -11   2  10    1.30    0.70
  10  -2 -10   17.10    1.60
 -10   2  10   15.90    1.70
   9  -2 -10  146.09    4.70
  -9   2  10  150.78    5.10
   8  -2 -10   62.39    2.70
   8  -2 -10   63.39    2.20
  -8   2  10   62.09    3.00
   7  -2 -10  885.81   21.90
   7  -2 -10  879.41   21.30
  -7   2  10  898.71   22.40
   6  -2 -10   36.00    1.90
   6  -2 -10   33.40    2.30
   6  -2 -10   37.50    1.60
  -6   2  10   34.30    2.10
   5  -2 -10    4.00    1.00
  -5   2  10    3.10    0.80
   4  -2 -10   15.00    1.50
   4  -2 -10   15.40    1.40
  -4   2  10   19.10    1.90
  -4   2  10   14.80    2.00
   3  -2 -10   15.90    1.30
   3  -2 -10   13.80    1.50
   3  -2 -10   14.20    1.70
  -3   2  10   15.40    1.50
  -3   2  10   16.80    1.60
  -3   2  10   16.30    2.00
   2  -2 -10  196.38    5.60
   2  -2 -10  195.78    6.10
   2  -2 -10  189.38    6.70
  -2   2  10  195.58    7.10
  -2   2  10  186.48    6.00
  -2   2  10  185.78    6.30
   1  -2 -10   92.99    4.20
   1  -2 -10   95.99    3.30
   1  -2 -10   92.19    3.70
  -1   2  10   87.79    4.40
   0  -2 -10   20.20    1.40
   0  -2 -10   16.50    1.70
   0  -2 -10   17.50    1.90
   0   2  10   18.20    2.10
  -1  -2 -10  480.45   14.00
  -1  -2 -10  492.25   12.50
   1   2  10  471.45   13.10
  -2  -2 -10  289.87    8.70
  -2  -2 -10  283.27    7.80
   2   2  10  271.17    8.60
  -3  -2 -10   29.60    2.40
  -3  -2 -10   30.30    1.80
  -3  -2 -10   29.80    1.80
   3   2  10   28.10    2.30
   3   2  10   27.30    1.50
  -4  -2 -10  287.27    8.90
  -4  -2 -10  275.07    7.40
  -4  -2 -10  296.67    8.10
  -4  -2 -10  283.07    7.90
  -5  -2 -10  220.38    7.30
  -5  -2 -10  212.08    6.40
  -5  -2 -10  218.18    5.80
  -5  -2 -10  207.48    6.10
  -6  -2 -10    5.50    1.50
  -6  -2 -10    6.10    0.80
  -7  -2 -10    8.70    0.90
  -7  -2 -10    9.10    1.50
  -8  -2 -10    1.80    0.90
  -8  -2 -10    1.20    0.50
  12  -3 -10    2.30    0.80
  11  -3 -10  184.78    5.30
 -11   3  10  184.38    5.40
  10  -3 -10  174.58    5.30
 -10   3  10  178.08    5.60
   9  -3 -10   46.50    2.40
  -9   3  10   45.10    2.60
   8  -3 -10  103.59    3.70
  -8   3  10  104.89    4.10
   7  -3 -10    6.80    0.80
   7  -3 -10   11.10    1.30
  -7   3  10    8.00    1.30
   6  -3 -10   93.39    3.30
   6  -3 -10   95.29    2.90
  -6   3  10   93.09    3.60
  -5   3  10  267.07    7.60
   4  -3 -10  181.08    6.00
  -4   3  10  174.08    7.20
  -4   3  10  176.08    6.90
   3  -3 -10    4.90    1.00
   3  -3 -10    3.80    0.80
  -3   3  10    4.90    1.30
  -3   3  10    5.10    1.10
   2  -3 -10    3.50    0.80
   2  -3 -10    1.90    0.80
  -2   3  10    0.70    0.60
  -2   3  10    1.10    0.90
   1  -3 -10  859.91   23.40
   1  -3 -10  887.41   21.80
   1  -3 -10  914.11   22.60
  -1   3  10  860.41   23.60
   0  -3 -10   14.60    1.30
   0  -3 -10   13.90    1.80
   0   3  10   15.00    1.60
  -1  -3 -10  107.79    4.50
  -1  -3 -10  122.09    4.00
   1   3  10  110.89    4.40
  -2  -3 -10   71.79    3.60
  -2  -3 -10   77.29    3.00
  -2  -3 -10   69.09    2.80
   2   3  10   69.39    3.40
   2   3  10   72.59    2.70
  -3  -3 -10   54.19    2.10
  -3  -3 -10   56.49    3.20
  -3  -3 -10   58.29    2.50
  -3  -3 -10   57.79    2.60
   3   3  10   56.39    2.30
  -4  -3 -10  104.99    3.30
  -4  -3 -10  107.39    3.90
  -4  -3 -10  115.49    4.70
  -5  -3 -10    5.50    1.40
  -5  -3 -10    6.50    0.90
  -6  -3 -10    0.90    1.10
  -6  -3 -10    1.20    0.60
  -7  -3 -10  111.29    4.30
  -7  -3 -10  117.29    3.20
  -8  -3 -10  100.99    2.60
  -8  -3 -10  103.59    3.60
  12  -4 -10   96.39    3.00
  11  -4 -10   11.20    1.20
 -11   4  10   10.00    1.20
  10  -4 -10    4.90    1.10
 -10   4  10    1.80    1.00
   9  -4 -10   45.80    2.40
  -9   4  10   43.90    2.60
   8  -4 -10  772.62   19.40
  -8   4  10  785.22   19.90
   7  -4 -10  339.57    9.20
  -7   4  10  350.26    9.80
   6  -4 -10   52.29    1.90
   6  -4 -10   52.49    2.30
  -6   4  10   53.09    2.60
   5  -4 -10   30.20    1.70
  -5   4  10   31.20    1.90
  -4   4  10   48.40    2.20
  -3   4  10    9.20    1.40
   1  -4 -10   77.49    3.00
   0  -4 -10   42.70    2.10
   0  -4 -10   38.80    2.60
  -1  -4 -10  294.47    9.20
  -1  -4 -10  286.87    8.20
  -1  -4 -10  308.77    8.20
   1   4  10  302.37    8.00
  -2  -4 -10   65.09    3.40
  -2  -4 -10   61.89    2.90
  -2  -4 -10   64.79    2.30
   2   4  10   65.49    2.50
  -3  -4 -10    1.90    1.10
  -3  -4 -10    2.30    0.60
   3   4  10    0.70    0.70
  -4  -4 -10    4.60    1.40
  -4  -4 -10    3.20    0.70
  -5  -4 -10   45.20    1.80
  -5  -4 -10   48.20    3.00
  -6  -4 -10   12.50    1.70
  -6  -4 -10   13.60    1.00
  -7  -4 -10   56.19    2.70
  -7  -4 -10   53.29    1.60
  12  -5 -10   13.00    1.20
  11  -5 -10   62.69    2.50
 -11   5  10   57.59    2.50
  10  -5 -10   72.19    3.00
 -10   5  10   70.89    3.10
   9  -5 -10   66.19    2.80
  -9   5  10   67.89    3.20
   8  -5 -10    3.00    1.00
  -8   5  10    5.40    1.20
   7  -5 -10    1.00    0.80
  -7   5  10    6.50    1.20
   6  -5 -10    2.50    0.80
  -6   5  10    2.10    0.90
   5  -5 -10  178.98    4.90
   5  -5 -10  176.08    5.20
  -5   5  10  170.78    5.40
  -4   5  10   18.50    1.40
   2  -5 -10   78.59    4.60
   1  -5 -10  387.26   11.40
  -1   5  10  410.26   10.40
   0  -5 -10   35.00    2.60
   0  -5 -10   38.80    1.60
   0   5  10   38.90    1.90
  -1  -5 -10    9.20    0.90
  -1  -5 -10    8.40    1.50
   1   5  10   10.20    1.10
  -2  -5 -10   15.30    2.00
  -2  -5 -10   16.50    1.20
   2   5  10   16.00    1.30
  -3  -5 -10  446.66   10.90
  -3  -5 -10  437.76   12.70
   3   5  10  432.36   11.30
  -4  -5 -10  266.57    6.70
  -4  -5 -10  267.07    8.30
   4   5  10  234.68    7.30
  -5  -5 -10    7.10    1.40
  -5  -5 -10    7.90    0.80
  -6  -5 -10   81.69    2.30
  -6  -5 -10   81.29    3.50
  -7  -5 -10  101.29    3.60
  12  -6 -10   74.19    2.60
  11  -6 -10   65.69    2.60
 -11   6  10   57.49    2.60
  10  -6 -10   52.39    2.50
 -10   6  10   44.70    2.50
   9  -6 -10   37.40    2.20
  -9   6  10   34.80    2.40
   8  -6 -10  254.87    7.30
  -8   6  10  260.97    7.80
   7  -6 -10   53.79    2.50
  -7   6  10   54.49    2.80
   6  -6 -10   60.09    2.60
  -6   6  10   61.59    2.90
   5  -6 -10    1.10    0.70
  -5   6  10    2.00    0.80
   4  -6 -10   76.59    2.50
   4  -6 -10   78.29    2.90
  -4   6  10   76.79    3.00
  -4   6  10   89.59    3.20
   3  -6 -10   72.69    2.30
   3  -6 -10   70.89    2.70
  -3   6  10   68.69    2.70
   2  -6 -10  125.09    4.90
   2  -6 -10  134.99    3.70
  -2   6  10  124.69    4.10
   1  -6 -10    1.70    1.00
   1  -6 -10    2.70    0.60
  -1   6  10    2.70    0.80
   0  -6 -10    5.00    0.70
   0  -6 -10    3.80    1.20
   0   6  10    4.20    0.80
  -1  -6 -10   20.20    1.20
  -1  -6 -10   19.10    2.30
   1   6  10   20.90    1.50
  -2  -6 -10   53.49    2.00
  -2  -6 -10   55.69    3.40
   2   6  10   52.79    2.30
  -3  -6 -10   32.70    2.70
  -3  -6 -10   33.10    1.50
   3   6  10   31.40    1.80
  -4  -6 -10   75.89    3.70
  -4  -6 -10   74.09    2.30
   4   6  10   71.69    2.60
  -5  -6 -10   32.10    2.40
  -6  -6 -10    1.40    0.90
  12  -7 -10    4.10    0.80
  11  -7 -10    7.60    1.10
 -11   7  10    4.80    0.90
  10  -7 -10   61.99    2.70
 -10   7  10   59.79    2.80
   9  -7 -10   12.40    1.30
  -9   7  10   11.60    1.50
   8  -7 -10   22.90    1.80
  -8   7  10   19.70    2.00
   7  -7 -10   52.59    2.50
  -7   7  10   55.89    2.90
   6  -7 -10    7.90    1.10
  -6   7  10    8.00    1.30
   5  -7 -10  102.39    3.60
  -5   7  10  105.19    3.80
   4  -7 -10   95.79    3.20
  -4   7  10   93.79    3.40
  -4   7  10   91.19    3.30
   3  -7 -10  107.59    4.40
  -3   7  10  110.29    3.70
   2  -7 -10  367.86    9.20
   2  -7 -10  362.16   10.90
  -2   7  10  383.66    9.90
   1  -7 -10   72.29    2.30
   1  -7 -10   69.29    3.70
  -1   7  10   75.39    2.80
   0  -7 -10    5.90    1.50
   0  -7 -10    4.40    0.60
   0   7  10    5.00    0.90
  -1  -7 -10   27.50    1.30
  -1  -7 -10   28.50    2.60
   1   7  10   27.00    1.80
  -2  -7 -10   30.10    2.70
  -2  -7 -10   28.40    1.30
   2   7  10   30.60    1.80
  -3  -7 -10    2.60    1.20
   3   7  10    3.60    0.80
  -4  -7 -10    1.80    1.10
   4   7  10    1.70    0.60
  -5  -7 -10   24.00    1.90
  12  -8 -10    2.50    0.60
  11  -8 -10    4.80    1.00
 -11   8  10    5.60    1.00
  10  -8 -10   69.99    2.80
 -10   8  10   65.99    2.90
   9  -8 -10   19.70    1.70
  -9   8  10   21.60    2.00
   8  -8 -10  116.19    4.00
  -8   8  10  118.39    4.40
   7  -8 -10  131.09    4.20
  -7   8  10  128.19    4.70
   6  -8 -10    0.10    0.70
  -6   8  10    0.60    0.80
   5  -8 -10  124.09    4.00
  -5   8  10  119.79    4.20
   4  -8 -10   10.80    1.60
  -4   8  10   14.20    1.30
   3  -8 -10    6.20    1.40
  -3   8  10    4.20    0.90
   2  -8 -10    2.30    1.20
  -2   8  10    2.00    0.80
   1  -8 -10   83.19    4.20
  -1   8  10   78.29    3.00
   0  -8 -10   34.20    2.90
   0   8  10   34.20    1.90
  -1  -8 -10  607.24   16.80
   1   8  10  608.54   15.30
  -2  -8 -10   18.50    2.30
   2   8  10   19.40    1.50
  -3  -8 -10    2.80    1.20
   3   8  10    1.80    0.70
  -4  -8 -10   72.09    3.20
   4   8  10   69.09    2.40
  -5  -8 -10  191.78    5.70
  11  -9 -10   53.39    2.20
 -11   9  10   53.29    2.30
  10  -9 -10  110.09    3.60
 -10   9  10  108.79    3.90
   9  -9 -10   20.30    1.60
  -9   9  10   20.00    1.90
   8  -9 -10   46.00    2.20
  -8   9  10   47.60    2.60
   7  -9 -10   34.20    2.00
  -7   9  10   33.70    2.30
  -6   9  10   12.00    1.50
   5  -9 -10   33.90    2.60
  -5   9  10   38.80    2.20
   4  -9 -10   29.10    2.50
  -4   9  10   32.00    1.80
   3  -9 -10   72.49    3.80
  -3   9  10   76.29    2.90
   2  -9 -10  800.92   21.10
  -2   9  10  789.32   19.80
   1  -9 -10  115.19    5.00
  -1   9  10  115.29    3.90
   0  -9 -10   11.50    1.90
   0   9  10    9.50    1.10
  -1  -9 -10  111.49    4.80
   1   9  10  107.39    3.60
  -2  -9 -10  171.88    6.10
   2   9  10  173.58    5.00
  -3  -9 -10   39.10    2.40
   3   9  10   37.50    1.70
  -4  -9 -10    7.50    1.10
   4   9  10    8.20    0.80
  11 -10 -10   58.09    2.10
  10 -10 -10    4.20    0.80
 -10  10  10    4.00    0.90
   9 -10 -10    2.00    0.80
  -9  10  10    3.30    1.00
   8 -10 -10  356.56    9.40
  -8  10  10  361.06    9.90
  -7  10  10   57.69    2.80
   6 -10 -10   16.30    2.00
  -6  10  10   18.10    1.70
   5 -10 -10  199.68    6.90
  -5  10  10  209.48    6.20
   4 -10 -10    9.10    1.70
  -4  10  10   10.60    1.30
   3 -10 -10   37.60    2.90
  -3  10  10   25.60    1.70
   2 -10 -10   15.10    2.00
  -2  10  10   15.20    1.50
   1 -10 -10    3.40    1.40
  -1  10  10    4.60    0.90
   0 -10 -10   31.20    2.60
   0  10  10   30.30    1.80
  -1 -10 -10   57.59    3.20
   1  10  10   58.69    2.40
  -2 -10 -10   28.40    2.20
   2  10  10   27.90    1.50
  -3 -10 -10   24.50    1.80
   3  10  10   22.00    1.20
 -10  11  10    6.90    1.00
  -9  11  10    5.20    1.00
  -8  11  10   73.49    3.00
  -7  11  10   55.79    2.60
   6 -11 -10   16.20    1.90
  -6  11  10   20.00    1.60
   5 -11 -10   22.00    2.30
  -5  11  10   24.90    1.80
   4 -11 -10   19.30    2.20
   3 -11 -10   34.10    2.70
  -3  11  10   34.30    1.90
   2 -11 -10   91.79    4.30
  -2  11  10   98.59    3.40
   1 -11 -10    2.70    1.20
  -1  11  10    2.10    0.80
   0 -11 -10    0.40    1.00
   0  11  10   -0.30    0.60
  -1 -11 -10    0.80    0.90
   1  11  10   -0.20    0.60
  -2 -11 -10    2.10    0.80
   2  11  10    3.90    0.60
  -9  12  10    1.70    0.70
  -8  12  10  121.79    4.00
   7 -12 -10   12.80    1.50
  -7  12  10   14.90    1.40
   6 -12 -10   -0.90    0.80
  -6  12  10    0.00    0.60
   5 -12 -10   14.10    1.80
   4 -12 -10    7.30    1.50
   3 -12 -10    5.20    1.30
  -3  12  10    5.30    0.80
   2 -12 -10   12.20    1.70
  -2  12  10   14.40    1.20
   1 -12 -10    3.50    1.10
  -1  12  10    4.70    0.80
   0 -12 -10   74.39    3.20
   0  12  10   81.59    2.60
   1  12  10   71.49    2.30
  -8  13  10    4.20    0.90
   7 -13 -10    2.00    0.80
  -7  13  10    2.50    0.70
   6 -13 -10   11.50    1.50
   5 -13 -10    3.30    1.10
   4 -13 -10   22.20    2.00
   3 -13 -10  103.19    4.00
  -3  13  10   95.89    3.00
   2 -13 -10  192.48    6.10
  -2  13  10  193.68    5.20
   1 -13 -10    4.50    1.00
  -1  13  10    4.50    0.60
   0  14 -11    9.20    1.30
   2  13 -11  111.39    3.40
   2  13 -11  104.59    3.60
   1  13 -11    4.40    0.90
   1  13 -11    3.00    1.00
   0  13 -11    3.30    0.90
   0  13 -11    3.00    1.00
  -1  13 -11   18.20    1.40
  -1  13 -11   17.50    1.80
  -2  13 -11    3.40    1.00
   4  12 -11   19.30    1.20
   4  12 -11   22.70    1.00
   3  12 -11    0.10    0.70
   3  12 -11   -1.30    0.70
   2  12 -11   23.50    1.70
   2  12 -11   21.20    1.90
   1  12 -11    4.50    1.00
   1  12 -11    4.00    1.20
   0  12 -11   34.90    2.00
   0  12 -11   29.30    2.30
  -1  12 -11    2.40    0.90
  -1  12 -11    2.40    1.20
  -2  12 -11    0.50    0.90
   5  11 -11    3.90    0.50
   5  11 -11    4.10    0.70
   4  11 -11   21.10    1.70
   4  11 -11   17.80    1.40
   4  11 -11   18.70    1.10
   3  11 -11  325.87    9.20
   3  11 -11  324.07    8.80
   2  11 -11   80.99    3.70
   2  11 -11   81.89    3.20
   1  11 -11    0.90    1.20
   1  11 -11    1.30    0.90
   0  11 -11  140.99    5.20
   0  11 -11  144.59    4.60
   0  11 -11  134.49    4.30
  -1  11 -11  280.97    7.80
  -1  11 -11  272.57    8.30
   6  10 -11   41.60    1.40
   5  10 -11  199.58    5.70
   5  10 -11  202.88    6.00
   5  10 -11  198.18    5.20
   4  10 -11  161.08    5.10
   4  10 -11  170.88    5.60
   3  10 -11   29.90    2.00
   3  10 -11   25.40    2.40
   2  10 -11  119.09    4.00
   2  10 -11  103.09    4.50
   2  10 -11  105.39    3.80
   1  10 -11    3.10    1.40
   1  10 -11    2.80    0.80
   1  10 -11    4.80    1.10
   0  10 -11   87.39    3.40
   0  10 -11   80.39    3.80
   0  10 -11   78.69    2.90
  -1  10 -11  142.79    4.60
  -1  10 -11  133.09    5.10
  -2  10 -11   85.79    4.00
   7   9 -11    7.80    0.60
   6   9 -11    5.30    0.90
   6   9 -11    4.80    1.10
   6   9 -11    4.80    0.60
   5   9 -11   23.10    1.30
   5   9 -11   24.00    1.70
   5   9 -11   25.40    2.10
   4   9 -11   37.90    2.10
   4   9 -11   37.30    2.20
   4   9 -11   38.60    2.70
   3   9 -11  210.88    6.30
   3   9 -11  203.88    6.30
   3   9 -11  210.48    7.00
   2   9 -11  125.79    4.40
   2   9 -11  131.39    4.50
   2   9 -11  130.29    5.20
   1   9 -11   91.29    4.30
   1   9 -11   95.09    3.40
   1   9 -11   96.89    3.70
   0   9 -11   68.09    3.50
   0   9 -11   66.99    3.00
   0   9 -11   66.99    2.60
  -1   9 -11   15.70    1.50
  -1   9 -11   12.80    1.70
  -2   9 -11   39.40    2.20
  -8   9 -11    0.90    0.70
   7   8 -11    2.70    0.50
  -7  -8  11    2.30    0.70
   6   8 -11   23.30    1.70
   6   8 -11   25.80    2.10
   6   8 -11   22.40    1.30
   5   8 -11  395.56   11.00
   5   8 -11  425.46   11.40
   5   8 -11  410.96   10.80
   5   8 -11  400.46   10.30
   4   8 -11  152.58    5.40
   4   8 -11  137.19    4.70
   4   8 -11  135.39    4.70
   3   8 -11    1.40    1.00
   3   8 -11    2.60    0.90
   3   8 -11    3.30    1.30
   2   8 -11   61.59    2.80
   2   8 -11   58.49    2.60
   2   8 -11   53.69    3.30
   1   8 -11  152.78    5.00
   1   8 -11  152.48    4.70
   1   8 -11  159.28    5.80
   0   8 -11  443.46   11.70
   0   8 -11  447.26   12.30
   0   8 -11  432.96   11.20
  -1   8 -11   31.70    2.00
  -2   8 -11  200.18    6.00
  -6   8 -11  112.09    3.90
  -7   8 -11   67.69    2.80
  -8   8 -11   40.00    2.50
  -8   8 -11   40.90    2.10
  -9   8 -11   89.99    2.90
   8   7 -11    2.00    0.40
  -8  -7  11    2.10    0.70
   7   7 -11   94.29    2.80
  -7  -7  11   91.49    3.40
   6   7 -11   11.70    1.00
   6   7 -11   13.10    1.70
   6   7 -11   12.00    1.30
   5   7 -11   29.50    2.00
   5   7 -11   35.60    2.10
   5   7 -11   34.20    2.70
   5   7 -11   32.30    1.60
   4   7 -11  174.38    5.60
   4   7 -11  174.48    6.10
   4   7 -11  170.78    5.50
   3   7 -11   56.79    2.70
   3   7 -11   64.39    3.40
   3   7 -11   68.09    2.90
   2   7 -11   12.60    1.80
   2   7 -11    6.80    1.20
   2   7 -11    9.10    1.20
   1   7 -11    4.30    1.00
   1   7 -11    3.70    0.80
   1   7 -11    2.00    1.20
   0   7 -11    4.50    1.00
   0   7 -11    4.10    0.80
   0   7 -11    5.80    1.30
  -1   7 -11    9.60    1.20
  -2   7 -11   70.69    2.80
  -5   7 -11   32.80    2.10
  -6   7 -11   42.00    2.40
  -7   7 -11    3.20    1.00
  -7   7 -11    4.30    1.30
  -8   7 -11    0.90    1.00
  -8   7 -11    1.20    0.90
  -9   7 -11   66.79    2.90
  -9   7 -11   68.49    2.50
   8   6 -11   15.70    1.00
  -8  -6  11   16.30    1.40
   7   6 -11   65.29    2.20
  -7  -6  11   64.19    2.90
   6   6 -11   37.90    2.70
   6   6 -11   33.50    2.10
   6   6 -11   35.50    2.10
   6   6 -11   34.60    1.70
   5   6 -11   98.69    3.70
   5   6 -11   99.09    3.80
   5   6 -11   98.69    4.30
   4   6 -11   13.30    1.50
   4   6 -11   15.20    1.60
   4   6 -11   14.90    1.90
   3   6 -11    5.90    1.00
   3   6 -11    4.30    1.10
   3   6 -11    6.50    1.40
   2   6 -11    2.50    0.80
   2   6 -11    2.00    0.90
   2   6 -11    1.80    1.10
   1   6 -11   99.59    4.50
   1   6 -11  101.89    3.60
   1   6 -11   96.89    3.30
   1   6 -11  100.09    4.10
   0   6 -11    4.70    1.00
   0   6 -11    3.00    0.60
   0   6 -11    1.80    1.00
  -1   6 -11    1.80    1.00
  -1   6 -11    2.30    0.80
  -2   6 -11   25.40    2.90
  -2   6 -11   26.00    1.70
  -3   6 -11   23.40    1.80
  -4   6 -11   30.80    2.10
  -5   6 -11   58.09    2.80
  -6   6 -11    8.80    1.30
  -6   6 -11    8.70    1.00
  -6   6 -11   10.60    1.70
  -7   6 -11   83.39    2.90
  -7   6 -11   94.49    3.50
  -7   6 -11   89.59    4.10
  -8   6 -11   63.49    3.20
  -8   6 -11   61.39    2.60
  -9   6 -11    0.50    0.70
  -9   6 -11    1.20    0.90
  -9  -5  11   28.80    1.50
   8   5 -11  111.79    3.20
  -8  -5  11  111.09    3.90
   7   5 -11    5.00    0.80
  -7  -5  11    4.10    1.10
   6   5 -11   56.69    3.10
   6   5 -11   47.10    3.10
   6   5 -11   48.10    2.50
   5   5 -11    6.90    1.20
   5   5 -11    7.40    1.50
   5   5 -11    6.00    1.10
   4   5 -11   15.30    1.50
   4   5 -11   16.50    1.90
   4   5 -11   14.90    1.50
   3   5 -11   44.50    2.80
   3   5 -11   52.39    2.40
   3   5 -11   48.00    2.40
   2   5 -11   42.70    2.00
   2   5 -11   43.90    2.20
   2   5 -11   39.70    2.50
   2   5 -11   43.50    2.90
   1   5 -11  201.08    6.10
   1   5 -11  214.38    6.60
   1   5 -11  216.58    5.90
   1   5 -11  204.18    7.20
   0   5 -11  198.78    6.90
   0   5 -11  197.68    5.80
   0   5 -11  197.28    5.40
  -1   5 -11    5.70    1.30
  -1   5 -11    4.60    0.90
  -2   5 -11   41.60    2.00
  -2   5 -11   41.70    3.00
  -2   5 -11   38.70    2.10
  -3   5 -11  167.68    5.20
  -4   5 -11    6.20    1.10
  -5   5 -11  280.07    8.00
  -5   5 -11  280.97    7.40
  -6   5 -11  177.58    6.40
  -6   5 -11  189.98    5.70
  -6   5 -11  175.38    5.20
  -7   5 -11  218.18    7.30
  -7   5 -11  218.98    6.40
  -7   5 -11  210.68    6.00
  -8   5 -11   16.70    2.00
  -8   5 -11   19.70    1.70
  -9   5 -11  107.19    3.50
  -9   5 -11  108.79    4.00
  -9  -4  11   15.70    1.40
   8   4 -11   92.59    2.80
  -8  -4  11   87.89    3.50
   7   4 -11   62.79    2.30
  -7  -4  11   62.59    3.00
   6   4 -11    1.90    0.80
   6   4 -11    4.20    1.30
   6   4 -11    1.30    0.60
   5   4 -11  271.67    8.20
   5   4 -11  263.97    7.70
   5   4 -11  258.97    7.50
   4   4 -11  126.99    4.80
   4   4 -11  122.69    4.20
   4   4 -11  129.49    4.40
   3   4 -11    2.50    1.00
   3   4 -11    2.50    1.10
   3   4 -11    2.20    0.90
   3   4 -11    1.50    0.70
   2   4 -11   74.19    3.30
   2   4 -11   76.89    3.80
   2   4 -11   70.69    2.90
   2   4 -11   79.29    2.80
   1   4 -11  400.16   11.70
   1   4 -11  405.56   10.30
   0   4 -11  106.89    4.60
   0   4 -11  114.19    3.30
  -1   4 -11  108.39    4.70
  -1   4 -11  106.49    3.20
  -2   4 -11   12.80    1.30
  -2   4 -11   13.60    1.70
  -2   4 -11   15.50    2.00
  -3   4 -11  110.19    3.80
  -3   4 -11  107.49    3.30
   3  -4  11  106.49    4.70
  -4   4 -11  331.37    9.10
  -4   4 -11  326.57    8.50
  -5   4 -11   30.50    2.50
  -5   4 -11   34.80    1.70
  -6   4 -11    1.30    0.90
  -6   4 -11    0.30    0.60
  -6   4 -11    2.10    1.20
  -7   4 -11  417.86   11.00
  -7   4 -11  431.86   11.20
  -7   4 -11  422.46   12.20
  -8   4 -11    4.90    1.00
  -8   4 -11    3.50    1.20
  -9   4 -11   12.20    1.60
  -9   4 -11   10.60    1.10
  -9  -3  11   79.39    3.00
   8   3 -11  467.95   11.40
  -8  -3  11  456.35   12.30
   7   3 -11   44.40    1.90
  -7  -3  11   46.40    2.70
   6   3 -11   22.70    1.40
   6   3 -11   20.10    1.70
   6   3 -11   21.90    2.20
   5   3 -11   18.10    1.60
   5   3 -11   18.20    1.60
   5   3 -11   19.10    2.00
   4   3 -11   43.50    2.20
   4   3 -11   45.00    2.20
   4   3 -11   40.00    2.80
   4   3 -11   37.40    2.50
   3   3 -11  415.86   12.00
   3   3 -11  423.96   10.80
   3   3 -11  396.96   11.30
   3   3 -11  406.36   11.00
   2   3 -11   38.90    2.60
   2   3 -11   34.90    1.80
   2   3 -11   32.30    2.10
   1   3 -11   67.49    3.30
   1   3 -11   61.59    2.30
  -1  -3  11   56.69    3.10
   0   3 -11  457.25   11.60
   0   3 -11  470.75   13.20
  -1   3 -11  149.29    4.20
  -1   3 -11  146.69    5.70
  -2   3 -11   98.19    3.00
  -2   3 -11  104.29    4.70
  -2   3 -11   98.89    3.50
  -3   3 -11   95.99    3.50
  -3   3 -11   95.79    3.10
   3  -3  11   99.79    4.40
  -4   3 -11   94.79    3.20
  -4   3 -11   90.79    4.30
  -5   3 -11  216.98    6.10
  -5   3 -11  207.78    7.20
  -5   3 -11  210.88    6.30
  -6   3 -11  202.88    7.00
  -6   3 -11  206.08    6.00
  -6   3 -11  206.48    6.20
  -7   3 -11  127.79    5.10
  -7   3 -11  118.89    4.00
  -7   3 -11  130.89    4.30
  -8   3 -11   23.00    2.20
  -8   3 -11   25.90    1.80
  -9   3 -11   55.09    2.60
  -9   3 -11   48.10    1.70
  -9   3 -11   50.69    2.10
 -10  -2  11  107.79    3.50
  -9  -2  11    6.20    1.10
   8   2 -11  221.48    5.90
  -8  -2  11  227.78    6.80
   7   2 -11    4.30    0.80
  -7  -2  11    3.70    1.20
   6   2 -11   58.79    2.20
   6   2 -11   56.19    2.70
  -6  -2  11   58.79    2.90
   5   2 -11   10.10    1.50
   5   2 -11    9.10    1.20
   5   2 -11   10.30    1.30
   5   2 -11    9.50    0.90
   4   2 -11   56.59    2.90
   4   2 -11   57.49    2.60
   4   2 -11   58.29    3.20
   4   2 -11   53.39    2.40
   3   2 -11    6.00    0.90
   3   2 -11    7.30    1.40
   3   2 -11    6.70    1.20
   2   2 -11  718.33   17.40
   2   2 -11  695.73   18.50
   2   2 -11  698.73   18.50
  -2  -2  11  685.43   18.70
  -2  -2  11  694.63   18.50
   1   2 -11   53.69    2.00
   1   2 -11   52.59    2.90
   1   2 -11   52.09    2.70
  -1  -2  11   46.90    2.40
   0   2 -11    4.10    0.90
   0   2 -11    4.50    0.70
   0   2 -11    3.80    1.10
  -1   2 -11  483.45   12.20
  -1   2 -11  500.35   14.00
  -2   2 -11  258.07    6.80
  -2   2 -11  251.77    8.50
  -2   2 -11  245.68    7.10
  -3   2 -11  272.37    7.40
  -3   2 -11  264.57    7.60
   3  -2  11  279.37    8.80
  -4   2 -11  180.48    5.20
  -4   2 -11  168.48    6.20
  -4   2 -11  171.48    5.40
  -5   2 -11   46.90    2.40
  -5   2 -11   44.90    2.20
  -5   2 -11   48.50    3.10
  -6   2 -11    4.50    1.00
  -6   2 -11    5.10    1.10
  -6   2 -11    3.50    1.30
  -7   2 -11   49.40    3.10
  -7   2 -11   48.20    2.30
  -7   2 -11   50.69    2.50
  -8   2 -11   61.49    3.10
  -8   2 -11   57.09    2.50
  -9   2 -11    1.00    0.80
  -9   2 -11    1.20    0.60
  -9   2 -11    0.40    0.50
 -10  -1  11    0.70    0.80
  -9  -1  11   11.40    1.40
   8   1 -11    4.10    0.70
  -8  -1  11    5.20    1.10
   7   1 -11  518.35   13.00
  -7  -1  11  531.45   14.00
   6   1 -11    8.00    0.90
  -6  -1  11    6.40    1.20
   5   1 -11   76.59    3.10
   5   1 -11   74.19    3.70
   5   1 -11   73.19    3.00
   5   1 -11   76.39    3.00
   5   1 -11   77.19    2.60
  -5  -1  11   72.49    3.10
   4   1 -11   31.40    2.10
   4   1 -11   29.30    2.30
   4   1 -11   27.40    1.80
   3   1 -11  182.98    5.30
   3   1 -11  177.98    5.60
   3   1 -11  179.88    6.10
   3   1 -11  173.68    6.30
  -3  -1  11  168.98    5.90
   2   1 -11 1082.69   25.50
   2   1 -11 1049.79   26.80
   2   1 -11 1060.69   26.60
  -2  -1  11 1043.50   26.60
  -2  -1  11  996.20   26.30
   1   1 -11    0.80    0.70
   1   1 -11    1.40    0.90
   1   1 -11    2.50    0.60
   0   1 -11  244.18    6.60
   0   1 -11  244.68    7.70
   0   1 -11  244.68    7.90
  -1   1 -11    7.20    0.90
  -1   1 -11    5.40    1.30
  -2   1 -11    3.80    0.80
  -2   1 -11    3.00    0.70
   2  -1  11    4.50    1.20
  -3   1 -11  165.88    5.00
  -3   1 -11  165.68    5.10
  -3   1 -11  162.78    5.90
   3  -1  11  166.58    6.20
  -4   1 -11   56.59    2.50
  -4   1 -11   56.09    2.60
  -4   1 -11   53.89    3.20
  -5   1 -11   36.20    2.00
  -5   1 -11   35.80    2.20
  -5   1 -11   33.90    2.60
  -6   1 -11    6.20    1.50
  -6   1 -11    4.90    1.10
  -7   1 -11   58.99    2.80
  -7   1 -11   63.39    3.40
  -7   1 -11   63.19    2.70
  -8   1 -11   27.10    1.60
  -8   1 -11   28.30    1.30
  -8   1 -11   25.50    2.10
  -9   1 -11  137.99    4.50
  -9   1 -11  143.89    3.70
  -9   1 -11  137.19    3.90
 -10   0  11   14.60    1.50
  -9   0  11  171.28    5.50
   8   0 -11  116.79    3.40
  -8   0  11  114.29    4.30
   7   0 -11   45.90    1.90
   7   0 -11   45.70    2.20
  -7   0  11   48.70    2.60
   6   0 -11  130.29    3.80
   6   0 -11  126.49    4.20
  -6   0  11  128.69    4.60
   5   0 -11   15.80    1.90
   5   0 -11   15.60    1.50
   5   0 -11   18.50    1.60
   5   0 -11   13.90    1.30
  -5   0  11   17.20    1.70
   4   0 -11  287.27    7.80
   4   0 -11  275.47    8.50
   4   0 -11  267.17    9.10
  -4   0  11  283.57    9.10
  -4   0  11  267.97    7.80
   3   0 -11  632.94   17.40
   3   0 -11  656.13   16.00
   3   0 -11  638.04   16.90
  -3   0  11  606.14   16.80
   2   0 -11    1.20    0.80
   2   0 -11    0.10    0.50
   2   0 -11    1.30    0.80
  -2   0  11    0.80    0.60
  -2   0  11    0.70    0.70
   1   0 -11  120.59    4.80
   1   0 -11  125.29    4.80
   1   0 -11  126.49    3.90
   0   0 -11   84.09    2.90
   0   0 -11   83.89    3.80
   0   0 -11   77.99    3.70
  -1   0 -11  111.99    3.70
  -1   0 -11  113.19    4.80
  -2   0 -11  443.76   14.50
  -2   0 -11  519.85   13.20
  -2   0 -11  539.35   13.10
   2   0  11  519.95   14.30
  -3   0 -11    2.10    1.10
  -3   0 -11    5.90    1.10
  -3   0 -11    1.80    0.80
  -4   0 -11  187.68    5.70
  -4   0 -11  193.28    6.70
  -4   0 -11  184.88    5.70
  -5   0 -11    1.50    0.80
  -5   0 -11    1.30    1.10
  -5   0 -11    0.80    0.70
  -6   0 -11  114.99    4.10
  -6   0 -11  120.49    4.00
  -6   0 -11  120.49    4.90
  -7   0 -11   52.89    3.10
  -7   0 -11   51.69    2.00
  -7   0 -11   55.49    2.40
  -8   0 -11   44.60    2.50
  -8   0 -11   40.50    1.90
  -8   0 -11   42.10    1.60
  -9   0 -11   17.60    0.80
 -11   1  11  221.98    6.10
 -10   1  11   41.90    2.20
   9  -1 -11   20.50    1.70
  -9   1  11   26.30    2.10
   8  -1 -11    4.80    0.70
   8  -1 -11    5.00    1.00
  -8   1  11    3.10    1.10
   7  -1 -11  121.39    3.60
   7  -1 -11  118.69    4.00
  -7   1  11  120.19    4.40
   6  -1 -11   52.09    2.00
   6  -1 -11   51.49    2.40
  -6   1  11   54.29    2.60
   5  -1 -11  104.49    4.40
   5  -1 -11  111.29    4.00
   5  -1 -11  106.49    3.60
   5  -1 -11  114.89    4.30
  -5   1  11  103.59    3.90
   4  -1 -11   23.40    2.00
   4  -1 -11   25.50    1.70
  -4   1  11   24.10    1.60
   3  -1 -11  444.46   12.00
   3  -1 -11  443.36   11.20
   3  -1 -11  425.86   12.60
  -3   1  11  408.16   12.00
  -3   1  11  395.56   13.10
   2  -1 -11   28.80    2.10
   2  -1 -11   27.80    1.60
   2  -1 -11   28.00    2.20
  -2   1  11   26.50    2.00
  -2   1  11   26.30    2.00
   1  -1 -11    6.30    1.20
   1  -1 -11    7.80    1.00
   1  -1 -11    6.20    1.20
   0  -1 -11   89.69    3.20
   0  -1 -11   83.49    3.90
   0  -1 -11   82.89    4.00
  -1  -1 -11   61.19    2.50
   1   1  11   55.69    3.00
  -2  -1 -11   49.40    2.30
  -2  -1 -11   48.30    2.80
  -2  -1 -11   47.10    2.30
  -2  -1 -11   53.39    2.40
   2   1  11   45.90    2.90
  -3  -1 -11   46.60    2.30
  -3  -1 -11   51.39    3.00
  -3  -1 -11   48.90    2.40
  -4  -1 -11    0.80    1.00
  -4  -1 -11    0.20    0.70
  -4  -1 -11    1.10    0.70
  -5  -1 -11   18.30    1.60
  -5  -1 -11   17.30    1.60
  -5  -1 -11   16.70    2.20
  -5  -1 -11   18.40    1.40
  -6  -1 -11   57.89    2.60
  -6  -1 -11   57.39    2.20
  -6  -1 -11   61.69    3.40
  -6  -1 -11   62.49    2.60
  -7  -1 -11   59.59    2.10
  -7  -1 -11   59.19    3.10
  -7  -1 -11   54.09    2.30
  -8  -1 -11   70.19    3.00
  -8  -1 -11   74.49    2.20
 -11   2  11    6.10    0.90
  10  -2 -11   21.20    1.60
 -10   2  11   22.10    1.80
   9  -2 -11   37.20    2.20
  -9   2  11   41.60    2.50
   8  -2 -11   29.70    1.30
   8  -2 -11   29.00    1.90
  -8   2  11   33.40    2.30
   7  -2 -11  145.89    4.10
   7  -2 -11  141.89    4.70
  -7   2  11  151.08    5.10
   6  -2 -11   18.60    1.50
   6  -2 -11   17.40    1.90
   6  -2 -11   17.50    1.30
  -6   2  11   18.90    1.80
   5  -2 -11   10.20    1.50
   5  -2 -11   12.50    1.10
   5  -2 -11   12.10    1.20
  -5   2  11   10.60    1.30
   4  -2 -11  101.59    3.70
   4  -2 -11   96.59    4.00
  -4   2  11   96.49    3.50
   3  -2 -11  208.68    6.80
   3  -2 -11  209.48    6.20
   2  -2 -11  206.28    5.90
   2  -2 -11  194.88    7.10
   2  -2 -11  202.88    6.60
  -2   2  11  187.98    6.60
   1  -2 -11   41.90    2.10
   1  -2 -11   42.90    2.90
   1  -2 -11   41.50    2.60
   0  -2 -11   65.09    2.70
   0  -2 -11   65.79    3.40
   0  -2 -11   58.69    4.00
  -1  -2 -11    9.50    1.20
  -1  -2 -11   10.00    1.20
  -1  -2 -11    8.80    1.50
  -1  -2 -11   11.40    1.30
   1   2  11    9.10    1.50
  -2  -2 -11  314.47    8.60
  -2  -2 -11  328.97    8.80
  -2  -2 -11  310.77    8.70
  -2  -2 -11  321.17    9.60
   2   2  11  304.77    9.60
  -3  -2 -11  511.05   14.30
  -3  -2 -11  522.65   13.30
  -3  -2 -11  528.15   13.50
   3   2  11  504.95   13.00
  -4  -2 -11   16.30    1.60
  -4  -2 -11   13.20    1.80
  -4  -2 -11   16.60    1.60
  -4  -2 -11   15.40    1.20
  -5  -2 -11   62.79    2.60
  -5  -2 -11   64.19    3.50
  -5  -2 -11   63.49    2.30
  -5  -2 -11   60.49    2.70
  -6  -2 -11   69.39    2.40
  -6  -2 -11   71.99    3.50
  -7  -2 -11    2.10    1.00
  -7  -2 -11    3.50    0.60
  -8  -2 -11    4.30    0.50
  -8  -2 -11    4.90    0.90
  11  -3 -11   54.59    2.20
 -11   3  11   56.49    2.40
  10  -3 -11    3.30    1.00
 -10   3  11    3.90    1.00
   9  -3 -11   36.10    2.10
  -9   3  11   38.90    2.40
   8  -3 -11   13.60    1.40
  -8   3  11   17.80    1.90
   7  -3 -11   35.70    1.60
   7  -3 -11   35.60    2.00
  -7   3  11   36.30    2.40
   6  -3 -11    1.40    0.60
   6  -3 -11    0.00    0.70
  -6   3  11    0.00    0.80
   5  -3 -11  106.19    3.30
   5  -3 -11  106.99    3.60
  -5   3  11  101.89    3.80
   4  -3 -11  121.09    3.90
  -4   3  11  119.59    4.00
   3  -3 -11  519.15   13.60
   2  -3 -11  291.27    8.20
   1  -3 -11  142.99    4.70
   0  -3 -11   93.99    3.40
   0  -3 -11   97.89    3.60
   0  -3 -11  102.99    3.60
  -1  -3 -11  169.58    6.00
  -1  -3 -11  172.48    5.30
  -1  -3 -11  173.08    5.40
  -1  -3 -11  165.38    5.10
  -2  -3 -11   68.69    3.60
  -2  -3 -11   70.59    2.90
  -2  -3 -11   63.19    2.30
  -2  -3 -11   68.79    2.80
   2   3  11   69.89    2.60
  -3  -3 -11   59.99    2.30
  -3  -3 -11   65.39    3.50
  -3  -3 -11   65.59    2.80
  -3  -3 -11   59.69    2.60
   3   3  11   65.89    2.50
  -4  -3 -11    8.80    0.90
  -4  -3 -11    7.50    1.60
  -5  -3 -11   57.49    2.20
  -5  -3 -11   60.89    3.40
  -6  -3 -11  130.19    5.00
  -6  -3 -11  137.59    3.80
  -7  -3 -11   56.39    1.80
  -7  -3 -11   59.19    2.80
  12  -4 -11   14.40    1.10
  11  -4 -11    2.40    0.80
 -11   4  11    3.20    0.90
  10  -4 -11   54.49    2.50
 -10   4  11   50.39    2.60
   9  -4 -11   72.99    3.00
  -9   4  11   78.39    3.40
   8  -4 -11    2.00    0.90
  -8   4  11    0.50    0.90
   7  -4 -11   83.99    3.20
  -7   4  11   85.59    3.60
   6  -4 -11  357.86    9.00
   6  -4 -11  356.36    9.60
  -6   4  11  360.76   10.00
   5  -4 -11  357.36    8.80
   5  -4 -11  340.37    9.20
  -5   4  11  332.57    9.40
   4  -4 -11    4.50    0.90
   4  -4 -11    5.90    1.10
   4  -4 -11    6.50    0.80
  -4   4  11    6.80    1.00
   3  -4 -11    3.70    0.80
   3  -4 -11    4.20    1.10
   2  -4 -11    1.90    0.70
   2  -4 -11    2.10    0.90
   1  -4 -11  275.77    7.90
   1  -4 -11  272.77    7.30
   1  -4 -11  271.67    7.50
   1  -4 -11  277.77    7.90
   0  -4 -11  294.77    8.10
   0  -4 -11  301.37    7.70
   0  -4 -11  297.97    8.40
   0  -4 -11  315.17    8.50
   0  -4 -11  292.57    9.20
  -1  -4 -11    7.70    0.80
  -1  -4 -11    6.40    1.20
  -1  -4 -11    6.90    1.00
  -1  -4 -11    6.00    1.40
   1   4  11    6.00    0.90
  -2  -4 -11  204.38    7.00
  -2  -4 -11  209.78    5.60
   2   4  11  202.28    5.90
  -3  -4 -11  446.66   11.00
  -3  -4 -11  451.35   12.70
   3   4  11  421.06   11.20
  -4  -4 -11    2.90    0.70
  -4  -4 -11    1.80    1.20
  -5  -4 -11   11.30    1.70
  -5  -4 -11   13.60    1.10
  -6  -4 -11   80.29    3.50
  -6  -4 -11   79.89    2.40
  -7  -4 -11    3.00    0.90
  12  -5 -11  136.89    3.90
  11  -5 -11  134.29    4.10
 -11   5  11  133.79    4.30
  10  -5 -11   19.50    1.70
 -10   5  11   17.90    1.80
   9  -5 -11  141.89    4.60
  -9   5  11  139.59    4.90
   8  -5 -11  152.18    4.80
  -8   5  11  144.49    5.10
   7  -5 -11    9.00    1.20
  -7   5  11   10.80    1.40
   6  -5 -11    3.30    0.90
   6  -5 -11    1.30    0.50
  -6   5  11    0.90    0.80
   5  -5 -11    3.60    0.70
   5  -5 -11    5.20    1.00
  -5   5  11    4.70    1.00
   4  -5 -11   42.40    2.10
   4  -5 -11   48.40    1.90
   4  -5 -11   46.40    2.40
  -4   5  11   44.60    2.20
   3  -5 -11  174.38    5.50
   3  -5 -11  174.88    4.80
   3  -5 -11  166.18    5.10
   2  -5 -11  104.69    3.10
   2  -5 -11  102.59    3.80
   2  -5 -11   98.79    3.40
   1  -5 -11   61.79    3.40
   1  -5 -11   62.69    2.50
   1  -5 -11   62.99    2.20
  -1   5  11   67.39    2.60
   0  -5 -11    3.50    0.90
   0  -5 -11    3.90    0.70
   0  -5 -11    6.60    1.40
   0   5  11    3.50    0.80
  -1  -5 -11   70.99    2.40
  -1  -5 -11   66.09    3.60
   1   5  11   71.99    2.80
  -2  -5 -11    0.50    0.60
  -2  -5 -11    3.50    1.30
   2   5  11    1.80    0.80
  -3  -5 -11    2.40    0.70
  -3  -5 -11    0.90    1.10
   3   5  11    1.70    0.70
  -4  -5 -11  208.18    5.40
  -4  -5 -11  201.58    6.90
  -5  -5 -11   14.10    1.90
  -5  -5 -11   14.00    1.00
  -6  -5 -11  354.36    9.80
  12  -6 -11    4.70    0.70
  11  -6 -11   40.70    2.00
 -11   6  11   40.10    2.00
 -10   6  11    3.90    1.00
   9  -6 -11  113.59    4.00
  -9   6  11  111.39    4.20
   8  -6 -11  171.88    5.30
  -8   6  11  168.68    5.60
   7  -6 -11  156.68    4.90
  -7   6  11  152.98    5.30
   6  -6 -11  271.47    7.60
  -6   6  11  269.37    7.90
   5  -6 -11    3.40    0.90
  -5   6  11    5.20    1.00
   4  -6 -11   10.80    1.20
   4  -6 -11   13.40    1.10
  -4   6  11   16.20    1.80
  -4   6  11   13.00    1.30
   3  -6 -11    3.30    0.60
   3  -6 -11    4.10    0.90
  -3   6  11    3.20    0.80
   2  -6 -11  142.49    5.50
   2  -6 -11  144.09    4.50
   2  -6 -11  145.39    4.10
  -2   6  11  140.99    4.50
   1  -6 -11    4.50    0.70
   1  -6 -11   12.80    1.80
  -1   6  11    3.40    0.80
   0  -6 -11   10.80    1.00
   0  -6 -11   10.10    1.70
   0   6  11   11.30    1.20
  -1  -6 -11  107.99    4.80
  -1  -6 -11  113.89    3.30
   1   6  11  110.39    3.70
  -2  -6 -11   97.79    4.40
  -2  -6 -11   93.09    2.90
   2   6  11   96.89    3.40
  -3  -6 -11   21.10    1.20
  -3  -6 -11   22.20    2.30
   3   6  11   19.60    1.50
  -4  -6 -11   12.70    1.70
  -4  -6 -11   13.30    0.90
   4   6  11   13.40    1.20
  -5  -6 -11   14.90    1.80
  -6  -6 -11   -0.30    0.60
  12  -7 -11   32.50    1.50
  11  -7 -11   30.80    1.70
 -11   7  11   26.00    1.60
  10  -7 -11  162.38    4.80
 -10   7  11  152.58    5.00
   9  -7 -11   61.59    2.70
  -9   7  11   59.79    2.90
   8  -7 -11   17.60    1.70
  -8   7  11   18.80    1.90
   7  -7 -11   53.69    2.50
  -7   7  11   57.99    2.90
   6  -7 -11   65.99    2.80
  -6   7  11   72.39    3.10
   5  -7 -11  112.99    3.80
  -5   7  11  112.79    4.00
   4  -7 -11  117.49    3.90
  -4   7  11  115.29    3.90
   3  -7 -11   42.60    2.80
  -3   7  11   42.80    2.10
   2  -7 -11   88.89    2.60
   2  -7 -11   83.19    4.10
  -2   7  11   83.89    3.20
   1  -7 -11   44.60    1.70
  -1   7  11   46.10    2.20
   0  -7 -11    3.70    1.30
   0  -7 -11    3.20    0.60
   0   7  11    1.90    0.80
  -1  -7 -11   19.40    2.40
  -1  -7 -11   21.40    1.10
   1   7  11   22.10    1.60
  -2  -7 -11   90.99    2.70
  -2  -7 -11   96.19    4.30
   2   7  11   98.09    3.30
  -3  -7 -11    2.90    1.20
   3   7  11    2.30    0.70
  -4  -7 -11    0.70    0.90
   4   7  11    2.50    0.60
  -5  -7 -11   74.09    3.00
  11  -8 -11   39.20    1.80
 -11   8  11   36.80    1.80
  10  -8 -11   24.10    1.70
 -10   8  11   20.80    1.70
   9  -8 -11  163.88    5.00
  -9   8  11  161.78    5.30
   8  -8 -11    8.60    1.20
  -8   8  11    9.30    1.30
   7  -8 -11   56.09    2.50
  -7   8  11   50.99    2.70
   6  -8 -11  112.59    3.80
  -6   8  11  109.09    4.00
   5  -8 -11  132.79    4.30
  -5   8  11  138.69    4.50
   4  -8 -11   28.60    2.40
  -4   8  11   33.20    1.80
   3  -8 -11   47.70    3.00
  -3   8  11   45.00    2.20
   2  -8 -11   33.40    2.70
  -2   8  11   33.40    1.90
   1  -8 -11  157.68    6.10
  -1   8  11  164.48    5.00
   0  -8 -11   32.90    2.70
   0   8  11   31.40    1.80
  -1  -8 -11   89.29    4.20
   1   8  11   87.69    3.20
  -2  -8 -11  218.58    7.10
   2   8  11  210.78    6.00
  -3  -8 -11    6.60    1.30
   3   8  11    7.30    0.90
  -4  -8 -11   11.30    1.40
  11  -9 -11   11.40    1.00
 -11   9  11    8.70    1.00
  10  -9 -11    3.30    0.80
 -10   9  11    1.70    0.80
   9  -9 -11   88.29    3.10
  -9   9  11   84.19    3.40
   8  -9 -11    4.90    1.00
  -8   9  11    3.30    1.00
   7  -9 -11  175.38    5.20
  -7   9  11  177.38    5.60
   6  -9 -11   12.50    1.80
  -6   9  11   13.60    1.50
  -5   9  11   78.79    3.10
   4  -9 -11   51.59    3.10
  -4   9  11   52.49    2.30
   3  -9 -11   94.39    4.30
  -3   9  11   89.19    3.30
   2  -9 -11    8.70    1.70
  -2   9  11    8.30    1.10
   1  -9 -11   44.60    3.10
  -1   9  11   44.90    2.20
   0  -9 -11    5.40    1.50
   0   9  11    5.60    1.00
  -1  -9 -11  237.08    7.70
   1   9  11  247.98    6.70
  -2  -9 -11    0.90    0.90
   2   9  11    1.40    0.70
  -3  -9 -11   31.30    2.00
   3   9  11   31.50    1.40
  10 -10 -11  113.29    3.40
 -10  10  11  112.19    3.70
   9 -10 -11   58.09    2.30
  -9  10  11   62.59    2.70
   8 -10 -11   60.69    2.40
  -8  10  11   60.39    2.70
  -7  10  11  187.08    5.70
  -6  10  11   61.39    2.70
   5 -10 -11   17.60    2.10
   4 -10 -11   34.50    2.70
  -4  10  11   39.10    1.90
   3 -10 -11    0.10    1.10
  -3  10  11    0.70    0.70
   2 -10 -11   44.70    3.00
  -2  10  11   45.50    2.10
   1 -10 -11    6.50    1.50
  -1  10  11    6.40    1.00
   0 -10 -11    0.70    1.00
   0  10  11    1.80    0.70
  -1 -10 -11    1.40    1.00
   1  10  11    0.40    0.60
  -2 -10 -11    4.70    1.00
   2  10  11    4.40    0.70
  -9  11  11   36.60    1.90
  -8  11  11   74.79    2.90
  -7  11  11   84.09    3.10
   6 -11 -11   10.10    1.50
  -6  11  11   11.40    1.20
   5 -11 -11   47.30    2.80
   4 -11 -11   22.80    2.20
   3 -11 -11   84.79    3.90
  -3  11  11   80.59    2.90
   2 -11 -11    1.30    1.10
  -2  11  11    1.30    0.70
   1 -11 -11    1.30    1.00
  -1  11  11    3.20    0.80
   0 -11 -11   36.10    2.30
   0  11  11   36.80    1.70
  -1 -11 -11   29.00    1.90
   1  11  11   28.10    1.40
  -8  12  11    0.90    0.60
  -7  12  11    3.70    0.80
   6 -12 -11   21.70    1.80
   5 -12 -11   10.60    1.50
   4 -12 -11   11.80    1.50
   3 -12 -11    5.90    1.20
  -3  12  11    6.30    0.80
   2 -12 -11    0.60    0.90
  -2  12  11    1.50    0.60
   1 -12 -11   20.80    1.80
  -1  12  11   20.50    1.20
   0  12  11   34.60    1.40
   5 -13 -11    6.40    1.10
   4 -13 -11   87.29    3.40
   3 -13 -11   47.90    2.30
  -3  13  11   45.20    1.70
  -2  13  11   10.30    0.80
   1  13 -12   44.50    1.90
   0  13 -12    5.20    0.80
   0  13 -12    4.20    0.90
  -1  13 -12   25.20    1.40
  -1  13 -12   24.80    1.70
   3  12 -12   27.60    1.50
   2  12 -12   42.70    2.20
   2  12 -12   45.80    2.10
   1  12 -12    0.40    0.90
   1  12 -12   -0.80    0.70
   0  12 -12   31.60    1.90
   0  12 -12   34.20    2.10
  -1  12 -12   23.40    1.90
  -1  12 -12   24.60    1.70
   4  11 -12   66.19    2.50
   4  11 -12   66.99    2.70
   4  11 -12   69.59    2.10
   3  11 -12    1.90    1.00
   3  11 -12    1.70    0.80
   2  11 -12    6.00    1.10
   2  11 -12    6.30    1.30
   1  11 -12    5.70    1.30
   1  11 -12    5.60    1.10
   0  11 -12   96.29    3.50
   0  11 -12   88.89    3.80
  -1  11 -12   18.80    1.90
  -1  11 -12   20.50    1.70
   5  10 -12   22.90    1.10
   5  10 -12   19.50    1.40
   5  10 -12   24.10    1.70
   4  10 -12  160.28    5.20
   4  10 -12  151.38    4.30
   4  10 -12  158.88    4.80
   3  10 -12   16.00    1.50
   3  10 -12   16.80    1.80
   2  10 -12   20.30    1.80
   2  10 -12   21.90    2.20
   1  10 -12    1.00    1.20
   1  10 -12    2.80    1.00
   1  10 -12    2.50    0.70
   0  10 -12   22.20    1.80
   0  10 -12   20.20    2.00
   0  10 -12   20.90    1.40
  -1  10 -12    2.00    0.90
   6   9 -12    2.20    0.50
   6   9 -12    2.60    0.70
  -6  -9  12    2.70    0.70
   5   9 -12   15.90    1.40
   5   9 -12   15.50    1.10
   5   9 -12   14.80    1.60
   4   9 -12  167.08    5.70
   4   9 -12  172.08    5.30
   3   9 -12   13.80    1.80
   3   9 -12   13.10    1.40
   3   9 -12   11.40    1.30
   2   9 -12    2.20    0.80
   2   9 -12    1.90    1.20
   2   9 -12    1.60    1.00
   1   9 -12   24.80    2.30
   1   9 -12   26.00    2.00
   1   9 -12   25.40    1.60
   0   9 -12  489.95   13.60
   0   9 -12  520.85   13.10
   0   9 -12  489.95   12.70
  -1   9 -12    2.20    1.00
  -2   9 -12   29.90    2.10
   7   8 -12   18.40    1.00
  -7  -8  12   19.00    1.30
   6   8 -12   47.80    2.20
   6   8 -12   52.59    2.60
   6   8 -12   53.19    1.90
   5   8 -12   10.10    1.30
   5   8 -12   10.10    0.90
   5   8 -12   10.70    1.50
   4   8 -12   44.50    2.90
   4   8 -12   42.80    2.30
   4   8 -12   48.00    2.50
   3   8 -12   95.19    4.20
   3   8 -12   91.79    3.50
   3   8 -12   95.69    3.70
   2   8 -12   31.00    2.10
   2   8 -12   28.40    2.50
   2   8 -12   28.40    1.80
   1   8 -12   57.19    2.80
   1   8 -12   55.69    2.40
   1   8 -12   59.89    3.20
   0   8 -12  167.68    5.70
   0   8 -12  161.88    4.80
   0   8 -12  164.68    5.30
  -1   8 -12   71.39    3.00
  -2   8 -12  117.29    4.00
  -6   8 -12  170.68    5.20
  -7   8 -12    2.00    0.80
  -8   8 -12   16.20    1.30
   8   7 -12    0.70    0.30
   7   7 -12    8.30    0.80
  -7  -7  12    8.50    1.10
   6   7 -12    0.30    0.50
   6   7 -12   -0.20    1.00
   6   7 -12   -0.20    0.80
   5   7 -12  290.97    8.40
   5   7 -12  325.57    9.00
   5   7 -12  301.57    8.40
   5   7 -12  288.47    7.80
   4   7 -12   35.20    2.10
   4   7 -12   37.90    2.80
   4   7 -12   36.70    2.30
   3   7 -12   16.80    2.00
   3   7 -12   17.20    1.60
   2   7 -12   24.00    1.70
   2   7 -12   20.50    2.10
   2   7 -12   25.00    1.90
   1   7 -12  591.84   16.20
   1   7 -12  615.24   15.70
   1   7 -12  622.24   15.40
   0   7 -12  346.87    9.50
   0   7 -12  346.77    9.00
  -1   7 -12   56.19    2.60
  -2   7 -12   92.29    3.40
  -5   7 -12    5.80    1.10
  -6   7 -12   31.00    2.00
  -7   7 -12   37.20    2.10
  -8   7 -12   70.49    2.60
  -8   7 -12   64.39    3.30
   8   6 -12    1.10    0.40
  -8  -6  12    2.50    0.70
   7   6 -12   58.99    2.10
  -7  -6  12   58.59    2.70
   6   6 -12   65.19    2.30
   6   6 -12   55.99    2.90
   6   6 -12   55.79    2.60
   6   6 -12   65.59    3.30
   5   6 -12   -0.50    0.80
   5   6 -12    0.40    0.60
   5   6 -12    0.80    1.20
   5   6 -12    1.00    0.80
   4   6 -12  137.89    4.70
   4   6 -12  137.59    4.70
   4   6 -12  144.19    5.30
   3   6 -12   13.00    1.50
   3   6 -12   15.20    1.80
   3   6 -12   14.00    1.40
   2   6 -12    2.20    0.80
   2   6 -12    6.10    1.40
   2   6 -12    2.50    0.90
   1   6 -12    2.60    1.00
   1   6 -12    2.20    0.70
   1   6 -12    3.20    1.10
   0   6 -12  142.99    4.30
   0   6 -12  151.38    4.80
  -1   6 -12    6.40    1.10
  -2   6 -12  215.78    6.30
  -3   6 -12   24.70    1.90
  -4   6 -12   12.70    1.40
  -5   6 -12    2.40    1.00
  -6   6 -12  571.44   14.70
  -6   6 -12  627.54   15.30
  -7   6 -12   31.50    2.00
  -7   6 -12   33.00    2.40
  -8   6 -12   56.59    2.80
  -8   6 -12   56.09    2.30
  -9   6 -12   12.10    1.10
  -9  -5  12   43.00    2.40
   8   5 -12    0.20    0.50
  -8  -5  12    0.70    0.80
   7   5 -12   17.40    1.30
  -7  -5  12   15.20    1.60
   6   5 -12   18.50    1.60
   6   5 -12   21.30    1.40
   6   5 -12   17.70    1.90
   6   5 -12   19.30    1.60
   5   5 -12   83.29    3.40
   5   5 -12   83.59    3.40
   5   5 -12   89.89    4.00
   4   5 -12  166.48    5.70
   4   5 -12  156.98    5.10
   4   5 -12  159.68    5.20
   3   5 -12   13.70    1.50
   3   5 -12   12.40    1.60
   3   5 -12   17.10    1.50
   2   5 -12   19.30    2.00
   2   5 -12   18.90    1.50
   2   5 -12   17.10    1.60
   1   5 -12 1232.48   31.30
   1   5 -12 1254.17   30.10
   1   5 -12 1253.07   30.50
   0   5 -12  150.78    4.30
   0   5 -12  142.49    4.70
  -1   5 -12   29.90    1.90
  -1   5 -12   30.50    1.50
  -2   5 -12   25.80    1.80
  -2   5 -12   24.50    1.80
  -3   5 -12   23.00    1.80
  -4   5 -12  141.79    4.10
  -4   5 -12  140.49    4.70
  -5   5 -12    0.40    0.90
  -5   5 -12    0.80    0.60
  -6   5 -12    1.50    1.10
  -6   5 -12    0.30    0.60
  -6   5 -12    0.80    0.90
  -7   5 -12  121.49    4.10
  -7   5 -12  123.39    4.70
  -8   5 -12  111.09    3.60
  -8   5 -12  106.89    4.10
  -9   5 -12   12.80    1.10
  -9  -4  12   -0.10    0.60
   8   4 -12   13.10    1.10
  -8  -4  12   11.30    1.40
   7   4 -12  379.96    9.60
  -7  -4  12  377.76   10.50
   6   4 -12   72.89    3.10
   6   4 -12   77.49    2.60
   6   4 -12   70.59    3.50
   5   4 -12   37.50    2.70
   5   4 -12   43.50    2.30
   5   4 -12   44.40    2.30
   4   4 -12  161.38    5.00
   4   4 -12  147.99    4.90
   4   4 -12  147.59    5.40
   3   4 -12   10.90    1.60
   3   4 -12    8.60    1.20
   3   4 -12    9.10    1.20
   2   4 -12  532.95   14.40
   2   4 -12  545.65   13.80
   2   4 -12  547.45   14.00
   1   4 -12  311.27    8.60
   1   4 -12  314.17    8.20
   1   4 -12  306.97    9.80
   0   4 -12  317.87    8.10
   0   4 -12  293.97    8.70
   0   4 -12  313.57    8.60
   0   4 -12  309.07    9.80
  -1   4 -12    4.10    1.30
  -1   4 -12    2.70    0.90
  -1   4 -12    3.70    0.90
  -1   4 -12    3.20    0.60
  -2   4 -12   19.00    1.10
  -2   4 -12   18.70    1.60
  -2   4 -12   16.90    1.50
  -3   4 -12    4.90    0.80
  -3   4 -12    3.90    1.00
  -4   4 -12    5.00    1.10
  -4   4 -12    5.60    0.90
  -5   4 -12  407.26   10.70
  -5   4 -12  423.46   11.10
  -6   4 -12  154.28    4.70
  -6   4 -12  160.98    5.80
  -6   4 -12  157.58    5.00
  -7   4 -12   11.10    1.60
  -7   4 -12   10.60    1.30
  -8   4 -12   69.99    3.20
  -8   4 -12   72.59    2.70
  -9   4 -12    0.40    0.50
  -9  -3  12  164.18    5.00
   8   3 -12    0.60    0.60
  -8  -3  12    0.90    0.90
   7   3 -12   55.39    2.20
  -7  -3  12   55.59    2.90
   6   3 -12  105.99    3.30
   6   3 -12  100.09    3.80
  -6  -3  12  109.79    4.10
   5   3 -12   69.99    3.40
   5   3 -12   70.29    3.00
   5   3 -12   64.79    2.50
   5   3 -12   70.79    3.00
   4   3 -12   18.30    1.60
   4   3 -12   18.50    2.00
   4   3 -12   18.30    1.60
   3   3 -12   43.30    2.50
   3   3 -12   39.40    2.20
   3   3 -12   46.10    3.80
   3   3 -12   43.00    2.10
   2   3 -12   66.59    3.50
   2   3 -12   55.79    2.70
   2   3 -12   60.49    2.70
   2   3 -12   63.19    2.50
   1   3 -12  294.17    9.40
   1   3 -12  300.47    8.30
   1   3 -12  309.37    8.00
   1   3 -12  285.47    8.20
   0   3 -12   89.39    3.30
   0   3 -12   94.79    4.30
   0   3 -12   90.39    3.00
   0   3 -12   87.39    3.30
  -1   3 -12  100.19    3.60
  -1   3 -12  105.49    3.30
  -1   3 -12  102.39    4.70
  -1   3 -12  102.09    3.60
  -2   3 -12   22.70    1.70
  -2   3 -12   23.20    1.70
  -2   3 -12   21.80    1.30
  -3   3 -12   49.70    2.10
  -3   3 -12   46.10    2.40
  -4   3 -12    1.20    0.90
  -4   3 -12    2.30    0.70
  -5   3 -12    5.30    1.10
  -5   3 -12    6.90    1.50
  -5   3 -12    7.50    1.00
  -6   3 -12  108.09    3.70
  -6   3 -12  107.89    4.60
  -6   3 -12  111.89    3.90
  -7   3 -12   45.00    2.80
  -7   3 -12   46.30    2.30
  -8   3 -12   66.19    3.00
  -8   3 -12   66.49    2.50
  -9   3 -12   26.20    1.10
  -9   3 -12   26.60    1.30
 -10  -2  12   10.10    1.00
  -9  -2  12   29.00    1.90
   8   2 -12   67.39    2.30
  -8  -2  12   70.69    3.10
   7   2 -12   12.70    1.10
  -7  -2  12   19.30    2.00
   6   2 -12    7.10    1.20
   6   2 -12    8.30    1.00
  -6  -2  12    4.10    1.20
   5   2 -12    1.00    0.60
   5   2 -12    1.20    0.80
   5   2 -12    0.60    0.80
  -5  -2  12    0.50    0.90
   4   2 -12   23.40    2.00
   4   2 -12   20.20    1.60
   4   2 -12   21.10    1.70
   3   2 -12   46.40    2.50
   3   2 -12   50.89    2.30
   3   2 -12   46.30    2.30
   3   2 -12   41.70    2.10
   3   2 -12   44.40    2.90
   2   2 -12  110.09    3.80
   2   2 -12  114.29    3.70
   2   2 -12  109.69    4.70
   2   2 -12  108.89    3.80
   1   2 -12    9.90    1.60
   1   2 -12    9.20    1.00
   1   2 -12    8.50    1.10
   1   2 -12    8.30    1.10
   0   2 -12   11.10    1.20
   0   2 -12   10.90    1.10
   0   2 -12    9.70    1.20
   0   2 -12    8.80    1.60
  -1   2 -12   16.90    1.20
  -1   2 -12   12.80    1.40
  -1   2 -12   15.20    2.10
  -1   2 -12   12.80    1.30
  -2   2 -12  106.69    3.40
  -2   2 -12   96.19    3.60
  -2   2 -12   96.69    3.60
  -3   2 -12  191.58    5.60
  -3   2 -12  187.88    5.80
  -4   2 -12    1.40    0.70
  -4   2 -12    1.30    0.90
  -4   2 -12    0.00    1.00
  -5   2 -12  341.97   10.50
  -5   2 -12  357.96    9.50
  -5   2 -12  361.76    9.70
  -6   2 -12   82.59    3.90
  -6   2 -12   85.99    3.30
  -6   2 -12   84.29    3.20
  -7   2 -12    0.50    0.80
  -7   2 -12    0.00    0.90
  -8   2 -12    7.60    0.70
  -8   2 -12   10.00    1.00
  -8   2 -12    6.10    1.20
 -10  -1  12  240.18    6.70
  -9  -1  12   63.59    2.80
   8   1 -12    3.50    0.70
  -8  -1  12    3.50    1.00
   7   1 -12   51.29    2.00
  -7  -1  12   50.59    2.80
   6   1 -12   56.59    2.20
  -6  -1  12   56.19    2.90
   5   1 -12   45.10    2.20
   5   1 -12   44.50    1.90
   5   1 -12   50.39    2.50
   5   1 -12   47.60    2.40
  -5  -1  12   47.20    2.50
   4   1 -12  257.77    7.40
   4   1 -12  272.87    7.50
   4   1 -12  255.87    8.40
   4   1 -12  264.07    7.30
  -4  -1  12  246.78    7.50
   3   1 -12  338.67   10.30
   3   1 -12  350.46    9.20
   3   1 -12  333.17    9.10
   3   1 -12  338.97    9.30
  -3  -1  12  333.67    9.20
   2   1 -12  861.21   22.10
   2   1 -12  822.32   20.90
   2   1 -12  845.62   20.70
   2   1 -12  817.82   20.80
   1   1 -12   98.99    3.50
   1   1 -12  100.89    3.30
   1   1 -12   95.69    4.30
   1   1 -12   92.09    3.50
   0   1 -12   28.60    1.80
   0   1 -12   29.90    1.60
   0   1 -12   29.30    2.40
   0   1 -12   28.40    1.70
  -1   1 -12   54.59    3.40
  -1   1 -12   50.69    2.50
  -1   1 -12   55.09    2.50
  -1   1 -12   55.59    2.30
  -2   1 -12  126.19    4.30
  -2   1 -12  135.99    4.20
  -2   1 -12  115.39    4.20
  -3   1 -12   71.59    2.80
  -3   1 -12   70.69    3.00
  -4   1 -12  120.09    4.20
  -4   1 -12  125.19    4.10
  -4   1 -12  119.49    4.90
  -5   1 -12    7.50    1.20
  -5   1 -12    7.90    1.10
  -5   1 -12    9.10    1.60
  -6   1 -12   41.80    2.80
  -6   1 -12   42.70    2.20
  -6   1 -12   42.90    2.30
  -7   1 -12   84.09    2.60
  -7   1 -12   84.39    3.70
  -7   1 -12   88.09    3.10
  -8   1 -12   93.09    3.50
  -8   1 -12   86.69    2.90
  -8   1 -12   92.09    2.60
 -10   0  12   24.70    1.70
  -9   0  12  281.87    8.10
   8   0 -12    2.10    0.60
  -8   0  12    3.00    1.00
   7   0 -12    5.00    0.80
   7   0 -12    6.00    1.10
  -7   0  12    6.00    1.20
   6   0 -12   89.99    3.00
   6   0 -12   93.29    3.40
  -6   0  12   93.69    3.70
   5   0 -12    0.70    0.80
   5   0 -12    0.90    0.70
   5   0 -12   -0.40    0.70
   5   0 -12    0.00    0.50
  -5   0  12    0.50    0.80
   4   0 -12   31.10    1.80
   4   0 -12   30.30    1.90
   4   0 -12   29.60    2.00
   4   0 -12   30.60    2.40
   4   0 -12   29.80    1.80
  -4   0  12   31.90    1.90
   3   0 -12   54.19    2.40
   3   0 -12   50.79    2.30
   3   0 -12   50.49    3.00
   3   0 -12   47.20    2.40
  -3   0  12   48.70    2.30
   2   0 -12   59.19    2.70
   2   0 -12   66.39    3.40
   2   0 -12   69.09    2.70
   2   0 -12   64.89    2.60
   1   0 -12   77.69    3.10
   1   0 -12   82.59    3.00
   1   0 -12   88.59    3.10
   1   0 -12   75.99    3.80
   0   0 -12    3.80    0.80
   0   0 -12    2.90    0.80
   0   0 -12    2.50    1.10
   0   0 -12    1.70    0.70
  -1   0 -12   36.00    2.00
  -1   0 -12   38.00    2.10
  -1   0 -12   40.70    2.10
  -1   0 -12   39.30    2.90
  -2   0 -12   65.39    2.70
  -2   0 -12   61.09    2.70
  -2   0 -12   62.89    2.70
  -3   0 -12   64.09    3.40
  -3   0 -12   65.69    2.80
  -3   0 -12   65.69    2.80
  -4   0 -12   60.99    3.40
  -4   0 -12   54.39    2.60
  -4   0 -12   56.39    2.70
  -5   0 -12  610.64   15.80
  -5   0 -12  643.84   16.90
  -5   0 -12  615.44   15.90
  -6   0 -12   43.90    1.80
  -6   0 -12   45.80    2.50
  -6   0 -12   41.20    2.20
  -6   0 -12   43.50    2.80
  -7   0 -12    3.70    0.60
  -7   0 -12    5.50    1.20
  -7   0 -12    4.30    0.90
  -8   0 -12   12.00    1.00
  -8   0 -12   13.20    1.40
  -8   0 -12   16.80    0.90
 -11   1  12  159.68    4.60
 -10   1  12  270.97    7.60
   9  -1 -12    3.60    0.90
  -9   1  12    4.70    1.10
   8  -1 -12    1.10    0.80
   8  -1 -12    2.30    0.60
  -8   1  12    3.00    1.10
   7  -1 -12  167.78    4.70
   7  -1 -12  176.58    5.30
  -7   1  12  167.48    5.60
   6  -1 -12  190.48    5.20
   6  -1 -12  186.18    5.60
  -6   1  12  184.48    5.90
   5  -1 -12   12.70    1.50
   5  -1 -12   11.50    1.40
   5  -1 -12   10.00    1.00
   5  -1 -12   10.30    1.20
  -5   1  12   12.40    1.40
   4  -1 -12   94.59    3.60
   4  -1 -12   95.99    3.60
   4  -1 -12   90.89    4.10
   4  -1 -12   94.29    3.00
   4  -1 -12   95.89    3.40
  -4   1  12   87.89    3.40
   3  -1 -12  122.39    4.20
   3  -1 -12  127.19    5.00
   3  -1 -12  120.39    4.20
   3  -1 -12  123.59    4.00
   2  -1 -12  197.48    5.90
   2  -1 -12  196.88    6.10
   2  -1 -12  199.98    6.90
   2  -1 -12  211.28    6.10
   1  -1 -12  614.74   15.80
   1  -1 -12  634.84   15.70
   1  -1 -12  616.84   15.60
   1  -1 -12  597.44   16.80
   0  -1 -12   17.50    1.60
   0  -1 -12   18.40    1.50
   0  -1 -12   15.30    2.00
   0  -1 -12   17.50    1.50
  -1  -1 -12   23.20    1.70
  -1  -1 -12   25.00    1.70
  -1  -1 -12   24.70    1.80
   1   1  12   23.00    2.20
  -2  -1 -12  167.58    6.00
  -2  -1 -12  167.58    5.30
  -2  -1 -12  172.38    5.30
  -2  -1 -12  177.68    5.40
  -3  -1 -12   29.80    2.40
  -3  -1 -12   30.60    1.90
  -3  -1 -12   29.40    2.00
   3   1  12   30.30    1.70
  -4  -1 -12   29.10    2.50
  -4  -1 -12   30.30    2.00
  -4  -1 -12   31.20    2.00
  -5  -1 -12   31.10    2.50
  -5  -1 -12   28.50    1.90
  -5  -1 -12   30.80    1.90
  -5  -1 -12   26.60    1.50
  -6  -1 -12    3.10    0.80
  -6  -1 -12    1.70    1.10
  -6  -1 -12    2.60    0.70
  -7  -1 -12   38.30    2.40
  -7  -1 -12   41.50    2.40
  -7  -1 -12   41.00    1.60
  -8  -1 -12   29.40    1.10
 -11   2  12   19.60    1.40
  10  -2 -12  182.48    5.40
 -10   2  12  193.78    5.70
   9  -2 -12    7.00    1.10
  -9   2  12    6.70    1.30
   8  -2 -12   30.50    1.30
   8  -2 -12   32.70    2.00
  -8   2  12   31.00    2.30
   7  -2 -12   11.30    1.00
   7  -2 -12   11.20    1.30
  -7   2  12   12.00    1.50
   6  -2 -12  383.76   10.30
   6  -2 -12  393.96    9.90
  -6   2  12  387.26   10.70
   5  -2 -12    9.10    1.00
   5  -2 -12    9.60    1.20
  -5   2  12    6.70    1.10
   4  -2 -12  328.07   10.00
   4  -2 -12  335.17    9.30
   4  -2 -12  341.97    9.00
   4  -2 -12  342.17    8.60
   4  -2 -12  326.87    9.30
  -4   2  12  320.87    9.00
   3  -2 -12  663.93   16.50
   3  -2 -12  652.03   16.80
   3  -2 -12  637.94   16.70
   3  -2 -12  642.04   17.50
   3  -2 -12  675.43   16.80
   2  -2 -12  100.89    3.50
   2  -2 -12   96.89    3.60
   2  -2 -12   92.29    3.60
   2  -2 -12   91.99    4.10
   1  -2 -12  104.99    3.70
   1  -2 -12   97.29    3.70
   1  -2 -12  100.49    3.50
   1  -2 -12   90.49    4.30
   0  -2 -12   56.59    3.40
   0  -2 -12   59.09    2.60
   0  -2 -12   60.69    2.70
   0  -2 -12   63.29    2.70
  -1  -2 -12  267.57    7.60
  -1  -2 -12  261.17    7.60
  -1  -2 -12  263.97    7.50
  -2  -2 -12   22.90    1.80
  -2  -2 -12   20.30    2.10
  -2  -2 -12   20.90    1.70
  -3  -2 -12   69.39    2.40
  -3  -2 -12   66.69    3.50
  -3  -2 -12   72.79    3.00
  -3  -2 -12   68.99    2.90
   3   2  12   68.29    2.60
  -4  -2 -12   73.49    3.70
  -4  -2 -12   72.29    2.90
  -4  -2 -12   72.89    2.50
  -4  -2 -12   75.29    3.10
  -5  -2 -12   50.69    2.30
  -5  -2 -12   51.59    3.10
  -5  -2 -12   51.99    2.00
  -6  -2 -12    9.20    1.50
  -6  -2 -12    6.90    0.80
  -7  -2 -12    0.20    0.40
  -7  -2 -12    1.00    0.80
  11  -3 -12   40.50    1.80
 -11   3  12   42.90    1.90
  10  -3 -12  400.86   10.50
 -10   3  12  409.86   10.80
   9  -3 -12   63.49    2.70
  -9   3  12   62.09    3.00
   8  -3 -12   94.69    3.50
  -8   3  12   92.09    3.80
   7  -3 -12   42.40    2.30
   7  -3 -12   43.40    1.70
  -7   3  12   45.40    2.60
   6  -3 -12    8.70    1.00
   6  -3 -12    6.30    1.10
  -6   3  12   10.00    1.40
   5  -3 -12    3.40    0.90
   5  -3 -12    4.00    0.70
  -5   3  12    2.90    0.90
   4  -3 -12   98.49    3.00
   4  -3 -12   89.69    3.60
   4  -3 -12   89.79    3.30
  -4   3  12   90.89    3.40
   3  -3 -12   14.60    1.20
   3  -3 -12   16.50    1.70
   3  -3 -12   17.10    1.40
   3  -3 -12   14.80    1.50
   2  -3 -12  595.94   15.00
   2  -3 -12  622.94   15.90
   2  -3 -12  608.74   15.80
   2  -3 -12  623.64   15.50
   1  -3 -12  258.07    7.30
   1  -3 -12  243.78    7.00
   1  -3 -12  248.78    7.30
   1  -3 -12  250.07    6.60
   0  -3 -12  127.09    4.30
   0  -3 -12  122.99    3.70
   0  -3 -12  119.59    4.00
   0  -3 -12  122.09    4.30
  -1  -3 -12   17.20    1.50
  -1  -3 -12   18.40    2.00
  -1  -3 -12   18.00    1.60
  -1  -3 -12   19.80    1.70
  -1  -3 -12   15.70    1.20
  -2  -3 -12  247.78    7.30
  -2  -3 -12  249.28    6.60
  -2  -3 -12  249.88    8.10
  -2  -3 -12  249.38    7.20
   2   3  12  259.47    7.00
  -3  -3 -12    6.90    1.50
  -3  -3 -12    7.10    1.10
  -3  -3 -12    7.10    1.10
  -3  -3 -12    6.60    0.90
   3   3  12    9.20    1.00
  -4  -3 -12   25.60    2.40
  -4  -3 -12   26.10    1.50
  -4  -3 -12   25.90    1.80
  -5  -3 -12    7.50    0.80
  -5  -3 -12    7.20    1.40
  -6  -3 -12   28.10    2.10
  -6  -3 -12   26.50    1.20
  -7  -3 -12   83.89    3.10
  -7  -3 -12   80.29    2.20
  11  -4 -12   95.29    3.20
 -11   4  12   98.19    3.30
  10  -4 -12   66.09    2.70
 -10   4  12   62.29    2.80
   9  -4 -12   60.69    2.70
  -9   4  12   60.19    2.90
   8  -4 -12   12.80    1.40
  -8   4  12   12.20    1.60
   7  -4 -12   31.20    2.10
  -7   4  12   35.90    2.30
   6  -4 -12   98.99    3.60
   6  -4 -12   98.89    3.00
  -6   4  12   95.99    3.80
   5  -4 -12  267.07    7.60
   5  -4 -12  280.27    7.10
  -5   4  12  266.77    7.70
   4  -4 -12  144.39    4.50
   4  -4 -12  142.39    4.10
   4  -4 -12  148.89    4.90
  -4   4  12  135.79    4.50
   3  -4 -12   68.79    2.40
   3  -4 -12   74.29    3.10
   3  -4 -12   70.09    2.80
   2  -4 -12    4.90    1.10
   2  -4 -12    7.20    1.10
   2  -4 -12    5.70    0.80
   1  -4 -12   45.50    1.90
   1  -4 -12   48.60    2.50
   1  -4 -12   43.20    2.10
   0  -4 -12  294.17    7.60
   0  -4 -12  285.87    8.00
   0  -4 -12  283.67    8.90
   0   4  12  296.67    8.00
  -1  -4 -12  100.59    4.40
  -1  -4 -12   91.09    3.50
  -1  -4 -12   99.19    3.10
   1   4  12   98.09    3.40
  -2  -4 -12  165.78    4.70
  -2  -4 -12  163.18    5.10
  -2  -4 -12  175.18    6.20
   2   4  12  171.58    5.10
  -3  -4 -12   62.09    2.20
  -3  -4 -12   56.49    3.30
   3   4  12   58.29    2.40
  -4  -4 -12   60.19    3.30
  -4  -4 -12   63.39    2.20
  -5  -4 -12  206.08    6.70
  -5  -4 -12  217.48    5.50
  -6  -4 -12    0.30    0.40
  -6  -4 -12    0.30    0.70
  11  -5 -12   89.39    3.00
 -11   5  12   87.29    3.10
  10  -5 -12   65.09    2.70
 -10   5  12   61.79    2.70
   9  -5 -12   24.60    1.90
  -9   5  12   24.40    2.00
   8  -5 -12    8.90    1.20
  -8   5  12    8.10    1.40
   7  -5 -12   11.90    1.40
  -7   5  12    9.90    1.40
   6  -5 -12   82.09    2.60
   6  -5 -12   90.09    3.40
  -6   5  12   84.79    3.40
   5  -5 -12   43.80    2.20
   5  -5 -12   47.60    1.90
  -5   5  12   43.90    2.30
   4  -5 -12    7.50    1.10
   4  -5 -12    9.10    1.40
   4  -5 -12    8.60    0.90
   3  -5 -12  118.49    4.00
   3  -5 -12  119.39    3.50
   3  -5 -12  116.89    4.20
   2  -5 -12  162.98    4.50
   2  -5 -12  159.88    5.00
  -2   5  12  162.08    4.90
   1  -5 -12   31.50    1.50
   1  -5 -12   28.20    2.40
   1  -5 -12   27.50    1.80
  -1   5  12   30.00    1.80
   0  -5 -12  227.38    6.60
   0  -5 -12  228.88    7.70
   0  -5 -12  238.28    6.20
   0   5  12  232.28    6.60
  -1  -5 -12  215.78    7.30
  -1  -5 -12  220.68    5.90
   1   5  12  217.88    6.30
  -2  -5 -12    2.50    1.20
  -2  -5 -12    2.20    0.70
   2   5  12    2.20    0.80
  -3  -5 -12    1.40    0.60
  -3  -5 -12    2.00    1.10
   3   5  12    2.10    0.70
  -4  -5 -12    2.50    0.60
  -4  -5 -12    2.40    1.10
  -5  -5 -12   58.79    2.90
  -5  -5 -12   58.19    1.70
  -6  -5 -12   47.40    2.20
  11  -6 -12   48.90    2.10
 -11   6  12   47.10    2.10
  10  -6 -12   13.80    1.30
 -10   6  12   13.90    1.40
   9  -6 -12   13.50    1.40
  -9   6  12   12.40    1.50
   8  -6 -12   29.50    2.00
  -8   6  12   30.30    2.20
   7  -6 -12    9.90    1.30
  -7   6  12    9.30    1.40
   6  -6 -12   45.20    2.30
  -6   6  12   47.30    2.50
   5  -6 -12  161.28    5.00
  -5   6  12  156.18    5.10
   4  -6 -12  282.67    8.00
   4  -6 -12  300.47    7.40
  -4   6  12  284.27    7.90
   3  -6 -12    6.40    1.00
   3  -6 -12    5.60    0.70
  -3   6  12    6.90    1.00
   2  -6 -12    0.90    0.50
   2  -6 -12    1.90    0.80
  -2   6  12    2.00    0.70
   1  -6 -12    0.80    1.00
   1  -6 -12    0.20    0.50
  -1   6  12    0.60    0.70
   0  -6 -12    3.20    1.20
   0  -6 -12    1.90    0.60
   0   6  12    4.40    0.90
  -1  -6 -12  142.59    5.50
  -1  -6 -12  145.89    4.00
   1   6  12  142.89    4.50
  -2  -6 -12   73.19    2.30
  -2  -6 -12   66.39    3.50
   2   6  12   66.99    2.70
  -3  -6 -12   20.30    1.10
  -3  -6 -12   21.60    2.20
   3   6  12   19.30    1.40
  -4  -6 -12    5.60    1.20
  -5  -6 -12    1.80    0.80
  11  -7 -12   55.99    2.20
 -11   7  12   52.89    2.20
  10  -7 -12   10.70    1.20
 -10   7  12   11.90    1.30
   9  -7 -12   68.09    2.80
  -9   7  12   66.19    3.00
   8  -7 -12    0.30    0.80
  -8   7  12    0.90    0.90
   7  -7 -12    9.20    1.30
  -7   7  12    5.80    1.10
   6  -7 -12    5.20    1.00
  -6   7  12    4.70    1.10
   5  -7 -12   16.90    1.60
  -5   7  12   17.60    1.60
   4  -7 -12   63.19    2.70
  -4   7  12   64.59    2.60
   3  -7 -12   20.30    1.60
  -3   7  12   21.10    1.60
   2  -7 -12  166.18    6.20
   2  -7 -12  173.38    4.60
  -2   7  12  183.88    5.30
   1  -7 -12   96.99    4.40
   1  -7 -12   94.29    2.80
  -1   7  12   98.09    3.40
   0  -7 -12   20.50    1.10
   0  -7 -12   20.40    2.30
   0   7  12   20.40    1.60
  -1  -7 -12   10.30    0.80
  -1  -7 -12   11.20    1.70
   1   7  12   10.40    1.10
  -2  -7 -12   64.09    3.40
   2   7  12   68.29    2.60
  -3  -7 -12  170.98    5.70
   3   7  12  169.88    4.80
  -4  -7 -12   12.20    1.50
  11  -8 -12   82.99    2.70
  10  -8 -12    2.70    0.80
 -10   8  12    2.90    0.80
   9  -8 -12   16.40    1.50
  -9   8  12   16.40    1.60
   8  -8 -12   32.00    1.90
  -8   8  12   32.20    2.10
   7  -8 -12   87.79    3.20
  -7   8  12   87.99    3.40
   6  -8 -12    3.80    0.90
  -6   8  12    5.10    1.00
   5  -8 -12   83.39    3.10
  -4   8  12    2.00    0.80
   3  -8 -12   65.69    3.50
  -3   8  12   67.59    2.70
   2  -8 -12  286.37    9.00
  -2   8  12  282.57    7.80
   1  -8 -12   40.70    2.90
  -1   8  12   44.30    2.10
   0  -8 -12   24.00    2.40
   0   8  12   26.20    1.70
  -1  -8 -12  106.09    4.40
   1   8  12  106.59    3.50
  -2  -8 -12  225.88    7.20
   2   8  12  236.38    6.30
  -3  -8 -12    9.00    1.30
   3   8  12   11.30    1.00
  10  -9 -12   72.59    2.50
 -10   9  12   66.09    2.60
   9  -9 -12   11.60    1.10
  -9   9  12   11.70    1.30
   8  -9 -12   48.50    2.20
  -8   9  12   49.90    2.40
   7  -9 -12    4.60    0.90
  -7   9  12    2.70    0.90
   6  -9 -12    7.40    1.10
  -6   9  12    5.90    1.00
   4  -9 -12  138.29    5.30
  -4   9  12  139.29    4.30
   3  -9 -12   82.19    3.90
  -3   9  12   83.99    3.00
   2  -9 -12   30.70    2.50
  -2   9  12   31.20    1.80
   1  -9 -12  141.79    5.50
  -1   9  12  147.19    4.50
   0  -9 -12   20.00    2.10
   0   9  12   21.10    1.50
  -1  -9 -12   87.69    3.80
   1   9  12   95.99    3.10
  -2  -9 -12    6.40    1.20
   2   9  12    9.40    0.90
   3   9  12  223.98    6.20
  10 -10 -12   21.00    1.20
   9 -10 -12   29.20    1.50
  -9  10  12   26.90    1.60
   8 -10 -12  144.69    4.50
  -8  10  12  144.59    4.50
  -7  10  12  125.89    4.10
  -6  10  12   -0.60    0.60
  -4  10  12    6.20    0.90
   3 -10 -12  110.79    4.50
  -3  10  12  102.79    3.50
   2 -10 -12    2.60    1.10
  -2  10  12    1.70    0.70
   1 -10 -12   37.50    2.50
  -1  10  12   35.90    1.80
   0 -10 -12   48.80    2.70
   0  10  12   52.19    2.10
  -1 -10 -12  127.29    4.40
   1  10  12  133.49    3.80
   2  10  12    4.20    0.60
  -8  11  12    0.20    0.60
  -7  11  12   13.00    1.20
   5 -11 -12    2.10    0.90
   4 -11 -12   21.10    1.90
  -4  11  12   21.30    2.00
   3 -11 -12   16.30    1.80
  -3  11  12   19.20    1.30
   2 -11 -12   52.19    2.80
  -2  11  12   49.70    2.00
   1 -11 -12    8.40    1.30
  -1  11  12    9.00    0.90
   0 -11 -12    0.80    0.70
   0  11  12    0.50    0.50
   5 -12 -12    0.70    0.80
   4 -12 -12    2.30    0.90
   3 -12 -12   30.70    1.90
  -3  12  12   28.80    1.30
   2 -12 -12   46.30    2.30
  -2  12  12   42.60    1.60
   2  12 -13   88.99    2.90
   1  12 -13   67.39    2.50
   1  12 -13   64.89    2.60
   0  12 -13   62.69    2.30
   0  12 -13   54.49    2.40
  -1  12 -13    2.60    0.70
   3  11 -13   25.40    1.70
   3  11 -13   23.40    1.50
   2  11 -13   61.09    2.50
   2  11 -13   63.79    2.80
   1  11 -13  200.48    5.80
   1  11 -13  197.68    6.10
   0  11 -13  101.29    3.80
   0  11 -13  113.39    3.70
  -1  11 -13    4.90    1.00
   5  10 -13  126.29    3.80
   5  10 -13  137.99    3.50
   4  10 -13   40.60    2.10
   4  10 -13   35.50    1.90
   4  10 -13   38.40    1.50
   3  10 -13   37.50    2.30
   3  10 -13   39.60    2.10
   2  10 -13   27.80    2.10
   2  10 -13   30.10    1.90
   1  10 -13   11.10    1.50
   1  10 -13    8.20    1.20
   0  10 -13    2.60    1.00
   0  10 -13    1.70    1.00
  -1  10 -13    1.20    0.90
   6   9 -13   11.60    0.80
   5   9 -13    4.70    0.90
   5   9 -13    4.80    1.10
   5   9 -13    4.40    0.60
   4   9 -13    8.20    1.20
   3   9 -13   24.50    2.20
   3   9 -13   26.80    1.90
   2   9 -13   14.30    1.70
   2   9 -13   17.20    1.60
   1   9 -13   47.20    2.50
   1   9 -13   46.50    2.70
   1   9 -13   42.50    2.00
   0   9 -13    2.90    0.70
   0   9 -13    3.60    1.20
   0   9 -13    2.40    1.00
  -1   9 -13   56.79    2.60
   7   8 -13    1.90    0.40
   6   8 -13   72.79    2.60
   6   8 -13   79.19    2.40
  -6  -8  13   81.19    2.90
   5   8 -13   77.89    2.60
   5   8 -13   80.99    3.00
   5   8 -13   83.39    3.40
   4   8 -13   74.39    3.40
   4   8 -13   75.39    3.10
   3   8 -13   10.00    1.60
   3   8 -13    9.00    1.20
   3   8 -13   11.00    1.40
   2   8 -13    8.90    1.30
   2   8 -13    5.90    1.00
   2   8 -13    5.10    1.30
   1   8 -13    6.80    1.00
   1   8 -13    6.40    1.20
   1   8 -13    5.80    1.30
   0   8 -13  187.08    5.30
   0   8 -13  191.48    5.80
  -1   8 -13    3.40    1.00
  -2   8 -13   11.50    1.30
  -6   8 -13    4.70    1.10
  -7   8 -13    9.10    1.00
   7   7 -13    4.50    0.60
  -7  -7  13    4.10    0.80
   6   7 -13    7.40    1.00
   6   7 -13    5.30    0.70
  -6  -7  13    5.30    1.00
   5   7 -13   14.30    1.70
   5   7 -13   12.70    1.40
   5   7 -13   12.70    1.00
   4   7 -13    1.80    0.80
   4   7 -13    1.40    1.00
   4   7 -13    2.00    1.20
   3   7 -13  120.19    4.70
   3   7 -13  115.59    4.10
   3   7 -13  120.89    4.30
   2   7 -13    4.60    0.90
   2   7 -13    4.00    1.10
   2   7 -13    2.20    1.10
   1   7 -13   36.80    2.50
   1   7 -13   44.30    2.40
   1   7 -13   41.20    2.00
   0   7 -13  176.48    5.50
   0   7 -13  173.28    5.00
  -1   7 -13   15.70    1.60
  -2   7 -13   40.80    2.20
  -5   7 -13    5.90    1.10
  -6   7 -13    8.40    1.20
  -7   7 -13   51.49    2.20
  -8   7 -13   19.10    1.30
   8   6 -13    4.60    0.50
  -8  -6  13    3.80    0.70
   7   6 -13    7.30    0.80
  -7  -6  13    7.10    1.10
   6   6 -13    2.40    0.90
   6   6 -13    1.80    0.60
  -6  -6  13    1.50    0.90
   5   6 -13  233.58    6.70
   5   6 -13  217.48    6.10
   5   6 -13  222.08    6.70
   5   6 -13  241.98    7.30
   4   6 -13   99.89    3.80
   4   6 -13   99.49    4.20
   4   6 -13  102.09    3.70
   3   6 -13    3.70    0.90
   3   6 -13    5.20    1.10
   3   6 -13    4.60    1.30
   2   6 -13    1.80    0.70
   2   6 -13    0.80    0.90
   2   6 -13    2.00    1.10
   1   6 -13  172.08    5.50
   1   6 -13  175.88    5.20
   0   6 -13   47.00    2.40
   0   6 -13   43.10    1.90
  -1   6 -13    4.30    1.00
  -1   6 -13    5.50    0.70
  -2   6 -13   73.59    3.00
  -3   6 -13  140.09    4.60
  -4   6 -13  186.78    5.70
  -5   6 -13  174.58    5.10
  -5   6 -13  178.48    5.40
  -6   6 -13   40.40    2.20
  -7   6 -13  122.99    3.90
  -8   6 -13    2.10    0.70
   8   5 -13   50.79    1.60
  -8  -5  13   46.70    2.20
   7   5 -13    1.40    0.60
  -7  -5  13    1.10    0.90
   6   5 -13  133.79    5.00
   6   5 -13  137.99    4.60
   6   5 -13  151.28    4.20
  -6  -5  13  156.98    5.10
   5   5 -13    2.00    0.80
   5   5 -13    1.80    1.00
   5   5 -13    4.60    1.30
   5   5 -13    2.50    0.70
   4   5 -13    5.00    1.00
   4   5 -13    3.40    1.20
   4   5 -13    3.80    1.10
   3   5 -13   13.20    1.40
   3   5 -13   11.20    1.60
   3   5 -13   12.50    1.50
   2   5 -13  286.67    8.70
   2   5 -13  309.17    8.30
   2   5 -13  300.87    8.50
   1   5 -13    7.20    1.00
   1   5 -13    6.30    1.20
   0   5 -13   34.70    2.10
   0   5 -13   32.20    1.60
  -1   5 -13  260.57    7.50
  -1   5 -13  258.97    6.90
  -2   5 -13  344.27    9.30
  -2   5 -13  333.87    9.30
  -2   5 -13  335.97    8.70
  -3   5 -13    4.80    0.80
  -3   5 -13    4.00    1.00
  -4   5 -13    2.60    0.70
  -4   5 -13    2.20    1.00
  -5   5 -13   54.39    2.20
  -5   5 -13   56.59    2.70
  -6   5 -13   42.40    2.30
  -7   5 -13  205.68    5.80
  -8   5 -13    0.80    0.60
  -9  -4  13    2.20    0.70
   8   4 -13  151.48    4.00
  -8  -4  13  147.39    4.70
   7   4 -13  154.28    4.40
  -7  -4  13  163.58    5.30
   6   4 -13  291.97    7.60
   6   4 -13  281.97    8.10
   6   4 -13  278.87    8.30
  -6  -4  13  316.87    8.60
   5   4 -13  580.24   14.80
   5   4 -13  572.14   15.30
   5   4 -13  575.54   14.90
   5   4 -13  551.54   14.10
   4   4 -13   28.60    2.30
   4   4 -13   27.70    2.00
   4   4 -13   27.80    1.90
   3   4 -13  117.99    4.30
   3   4 -13  135.09    4.30
   3   4 -13  122.99    4.70
   2   4 -13  315.97    9.30
   2   4 -13  339.17    9.00
   2   4 -13  333.67    9.20
   1   4 -13   14.90    1.30
   1   4 -13   11.10    1.40
   0   4 -13   39.20    1.80
   0   4 -13   34.80    2.10
   0   4 -13   36.90    2.20
  -1   4 -13   39.20    2.20
  -1   4 -13   44.00    2.30
  -1   4 -13   47.10    1.90
  -2   4 -13    2.80    0.70
  -2   4 -13    1.70    0.90
  -2   4 -13    2.70    0.90
  -3   4 -13    4.70    1.10
  -3   4 -13    7.80    1.00
  -4   4 -13  250.67    6.90
  -4   4 -13  251.77    7.30
  -5   4 -13  162.48    5.10
  -5   4 -13  159.58    4.80
  -6   4 -13   13.90    1.40
  -7   4 -13    7.00    1.00
  -8   4 -13    7.90    0.90
  -9  -3  13   97.29    3.30
   8   3 -13    1.20    0.60
  -8  -3  13    2.00    0.90
   7   3 -13   79.39    2.70
  -7  -3  13   83.89    3.50
   6   3 -13  140.99    5.00
   6   3 -13  159.88    4.50
  -6  -3  13  169.48    5.40
   5   3 -13    1.00    0.80
   5   3 -13    0.50    0.60
   5   3 -13    1.30    0.90
  -5  -3  13   -0.60    0.80
   4   3 -13   89.79    3.50
   4   3 -13   90.99    3.50
   4   3 -13   88.69    3.80
   3   3 -13    5.70    1.20
   3   3 -13    6.20    1.00
   3   3 -13    5.80    1.20
   2   3 -13 1190.28   28.60
   2   3 -13 1081.19   29.60
   2   3 -13 1206.58   28.40
   1   3 -13   12.30    1.30
   1   3 -13   13.20    1.40
   1   3 -13   12.90    1.20
   0   3 -13  168.38    5.20
   0   3 -13  159.38    4.80
   0   3 -13  154.48    5.10
  -1   3 -13  213.58    6.40
  -1   3 -13  208.58    6.40
  -1   3 -13  218.28    6.00
  -2   3 -13    1.60    0.90
  -2   3 -13    2.00    0.90
  -2   3 -13    2.00    0.70
  -3   3 -13   18.90    1.80
  -3   3 -13   19.80    1.40
  -4   3 -13   32.80    1.80
  -4   3 -13   37.80    2.20
  -5   3 -13    1.00    0.90
  -5   3 -13    2.40    0.80
  -6   3 -13    4.10    1.20
  -6   3 -13    6.60    1.10
  -7   3 -13   13.70    1.30
  -7   3 -13   13.20    1.70
  -8   3 -13   -0.30    0.60
 -10  -2  13  104.19    3.90
  -9  -2  13   26.80    1.80
   8   2 -13   18.90    1.20
  -8  -2  13   19.60    1.80
   7   2 -13   65.59    2.40
  -7  -2  13   67.59    3.10
   6   2 -13   86.19    3.00
  -6  -2  13   95.19    3.80
   5   2 -13  232.38    6.90
   5   2 -13  225.48    6.80
   5   2 -13  226.58    6.20
  -5  -2  13  235.68    7.00
   4   2 -13  165.48    5.30
   4   2 -13  160.48    5.30
  -4  -2  13  165.58    5.30
   3   2 -13  243.68    7.00
   3   2 -13  251.77    7.10
   3   2 -13  249.18    7.20
  -3  -2  13  225.78    7.00
   2   2 -13   84.89    3.30
   2   2 -13   85.19    3.40
   2   2 -13   89.69    3.20
   1   2 -13   31.00    1.70
   1   2 -13   33.70    1.90
   1   2 -13   31.60    2.00
   0   2 -13   10.30    1.20
   0   2 -13   13.70    1.30
   0   2 -13   14.70    1.50
  -1   2 -13   25.50    1.80
  -1   2 -13   22.70    1.80
  -1   2 -13   24.20    1.60
  -2   2 -13    4.10    1.00
  -2   2 -13    4.30    0.90
  -2   2 -13    3.70    1.00
  -3   2 -13  487.45   12.90
  -3   2 -13  493.25   12.70
  -4   2 -13  226.68    6.70
  -4   2 -13  222.58    6.50
  -5   2 -13   32.80    1.90
  -5   2 -13   35.90    2.10
  -5   2 -13   34.10    2.50
  -6   2 -13  152.28    5.40
  -6   2 -13  148.29    4.70
  -7   2 -13    0.60    0.70
  -7   2 -13    1.70    0.90
  -8   2 -13   23.80    1.10
  -8   2 -13   25.10    1.30
 -10  -1  13    0.20    0.60
  -9  -1  13    2.70    0.90
   8   1 -13   91.79    2.80
  -8  -1  13   94.19    3.70
   7   1 -13   91.89    3.00
  -7  -1  13   93.39    3.70
   6   1 -13   33.70    1.70
  -6  -1  13   30.90    2.20
   5   1 -13   18.60    1.40
   5   1 -13   18.90    1.70
   5   1 -13   19.60    1.70
   5   1 -13   20.60    1.80
  -5  -1  13   21.30    1.90
   4   1 -13   28.90    2.00
   4   1 -13   28.20    1.90
   4   1 -13   27.10    1.80
  -4  -1  13   27.30    1.90
   3   1 -13  573.34   15.10
   3   1 -13  601.34   15.00
   3   1 -13  582.74   14.90
  -3  -1  13  567.64   14.90
   2   1 -13   73.59    3.00
   2   1 -13   76.19    2.90
   2   1 -13   66.99    3.00
   1   1 -13  114.09    4.10
   1   1 -13  120.79    4.00
   1   1 -13  117.79    4.10
   0   1 -13   25.90    1.90
   0   1 -13   30.10    1.80
   0   1 -13   25.90    1.80
  -1   1 -13   16.90    1.50
  -1   1 -13   19.40    1.60
  -2   1 -13  185.68    5.50
  -2   1 -13  177.78    5.70
  -2   1 -13  182.38    5.60
  -3   1 -13   78.89    3.30
  -3   1 -13   82.69    3.20
  -4   1 -13    1.70    0.80
  -4   1 -13    1.00    1.10
  -4   1 -13    1.50    0.90
  -5   1 -13    6.30    1.10
  -5   1 -13    5.70    1.40
  -5   1 -13    5.50    1.00
  -6   1 -13  107.49    3.60
  -6   1 -13  105.59    4.20
  -7   1 -13    0.60    0.50
  -7   1 -13    1.90    0.90
  -7   1 -13   -0.30    0.60
  -8   1 -13   12.70    0.80
 -10   0  13    1.80    0.70
  -9   0  13  166.78    5.30
   8   0 -13    0.60    0.60
  -8   0  13    0.50    0.90
   7   0 -13   40.60    1.80
   7   0 -13   38.80    2.20
  -7   0  13   39.00    2.40
   6   0 -13  325.37    8.40
   6   0 -13  326.57    8.90
  -6   0  13  329.57    9.20
   5   0 -13    2.80    1.00
   5   0 -13    3.70    1.00
   5   0 -13    4.00    0.70
   5   0 -13    2.70    0.90
  -5   0  13    3.50    1.00
   4   0 -13   14.60    1.10
   4   0 -13   12.80    1.50
   4   0 -13   14.40    1.40
   4   0 -13   12.80    1.50
  -4   0  13   11.20    1.30
   3   0 -13  258.87    7.60
   3   0 -13  264.97    7.40
   3   0 -13  263.47    7.60
   2   0 -13   25.20    1.70
   2   0 -13   30.00    2.00
   2   0 -13   27.70    1.80
   1   0 -13   39.90    2.10
   1   0 -13   37.70    2.10
   1   0 -13   35.40    2.20
   0   0 -13   21.10    1.70
   0   0 -13   23.70    1.70
   0   0 -13   21.50    1.70
  -1   0 -13   18.70    1.70
  -1   0 -13   20.40    1.60
  -1   0 -13   20.20    1.70
  -2   0 -13  342.77    9.70
  -2   0 -13  366.46    9.90
  -2   0 -13  371.06    9.80
  -3   0 -13  248.48    7.10
  -3   0 -13  241.08    7.10
  -4   0 -13  364.56   10.60
  -4   0 -13  360.06    9.70
  -4   0 -13  354.96    9.70
  -5   0 -13    3.40    0.90
  -5   0 -13    2.90    0.90
  -5   0 -13    3.70    1.20
  -6   0 -13   96.69    3.90
  -6   0 -13   95.59    3.30
  -6   0 -13   91.19    2.80
  -7   0 -13   16.10    1.20
  -7   0 -13   16.90    1.60
  -7   0 -13   18.20    1.00
 -10   1  13   12.50    1.30
   9  -1 -13   18.30    1.50
  -9   1  13   19.20    1.70
   8  -1 -13    4.70    0.70
   8  -1 -13    6.40    1.00
  -8   1  13    6.70    1.30
   7  -1 -13   11.10    1.30
   7  -1 -13    8.70    0.90
  -7   1  13   10.40    1.40
   6  -1 -13   32.60    2.00
   6  -1 -13   32.50    1.70
  -6   1  13   30.50    2.10
   5  -1 -13    0.50    0.80
   5  -1 -13    0.40    0.70
   5  -1 -13    0.80    0.60
  -5   1  13    0.10    0.70
   4  -1 -13   77.99    3.10
   4  -1 -13   76.99    2.60
   4  -1 -13   80.29    3.30
   4  -1 -13   74.69    3.20
  -4   1  13   72.09    3.00
   3  -1 -13  489.95   12.60
   3  -1 -13  475.25   12.10
   3  -1 -13  485.85   12.80
   3  -1 -13  488.55   12.90
   2  -1 -13   77.09    3.20
   2  -1 -13   77.09    3.10
   2  -1 -13   77.39    3.00
   1  -1 -13   25.40    1.70
   1  -1 -13   25.80    1.80
   1  -1 -13   23.10    1.80
   0  -1 -13    3.30    1.00
   0  -1 -13    2.70    0.80
   0  -1 -13    1.40    0.80
  -1  -1 -13  190.98    5.90
  -1  -1 -13  190.58    5.80
  -1  -1 -13  184.98    5.80
  -2  -1 -13    1.40    0.80
  -2  -1 -13    1.60    0.90
  -2  -1 -13    1.70    0.80
  -3  -1 -13   21.60    2.20
  -3  -1 -13   16.30    1.60
  -3  -1 -13   18.90    1.70
   3   1  13   16.30    1.40
  -4  -1 -13   23.60    1.70
  -4  -1 -13   21.00    2.30
  -4  -1 -13   21.60    1.80
  -4  -1 -13   22.90    1.40
  -5  -1 -13  269.17    8.20
  -5  -1 -13  262.57    6.90
  -5  -1 -13  262.77    7.30
  -6  -1 -13   49.20    1.80
  -6  -1 -13   49.30    2.10
  -6  -1 -13   49.20    2.70
  -7  -1 -13    1.80    0.50
  -7  -1 -13    1.30    0.70
  10  -2 -13   86.29    3.00
 -10   2  13   92.29    3.30
   9  -2 -13   25.90    1.80
  -9   2  13   29.70    2.00
   8  -2 -13   17.20    1.50
  -8   2  13   15.60    1.60
   7  -2 -13   11.90    1.00
   7  -2 -13   10.80    1.30
  -7   2  13   11.80    1.50
   6  -2 -13  111.79    3.90
   6  -2 -13  117.79    3.50
  -6   2  13  115.99    4.20
   5  -2 -13  191.38    5.20
   5  -2 -13  185.38    5.70
   5  -2 -13  183.28    5.90
  -5   2  13  186.18    5.80
   4  -2 -13   18.80    1.90
   4  -2 -13   21.90    1.40
   4  -2 -13   23.60    1.80
   4  -2 -13   21.20    1.80
  -4   2  13   21.60    1.70
   3  -2 -13  146.49    4.60
   3  -2 -13  140.99    4.80
   3  -2 -13  137.09    4.80
   2  -2 -13  202.78    5.60
   2  -2 -13  202.38    6.30
   2  -2 -13  209.38    6.10
   2  -2 -13  208.38    6.30
   1  -2 -13   20.90    1.70
   1  -2 -13   22.30    1.70
   1  -2 -13   22.20    1.30
   1  -2 -13   21.10    1.80
   0  -2 -13  138.49    4.70
   0  -2 -13  136.89    4.60
   0  -2 -13  140.19    4.70
   0  -2 -13  148.69    5.00
  -1  -2 -13    0.40    0.80
  -1  -2 -13    0.40    0.70
  -1  -2 -13    0.30    0.60
  -1  -2 -13    0.50    0.70
  -2  -2 -13    3.60    0.90
  -2  -2 -13    4.90    1.00
  -2  -2 -13    4.10    0.70
  -2  -2 -13    4.80    1.30
   2   2  13    2.60    0.80
  -3  -2 -13  231.68    6.30
  -3  -2 -13  231.28    6.90
  -3  -2 -13  238.68    6.80
  -3  -2 -13  243.68    7.70
   3   2  13  238.08    6.50
  -4  -2 -13   20.70    2.20
  -4  -2 -13   19.40    1.30
  -4  -2 -13   18.80    1.60
  -4  -2 -13   21.40    1.60
  -5  -2 -13    9.70    1.50
  -5  -2 -13    9.20    0.90
  -5  -2 -13   10.30    1.10
  -6  -2 -13   42.40    2.40
  -6  -2 -13   46.50    1.60
  -7  -2 -13    2.80    0.40
  11  -3 -13   15.10    1.10
 -11   3  13   16.50    1.20
  10  -3 -13   11.50    1.10
 -10   3  13    8.90    1.20
   9  -3 -13   40.00    2.10
  -9   3  13   39.60    2.30
   8  -3 -13    3.70    1.00
  -8   3  13    3.60    1.10
   7  -3 -13   64.69    2.20
   7  -3 -13   64.09    2.80
  -7   3  13   68.99    3.10
   6  -3 -13   42.10    1.90
   6  -3 -13   43.80    2.30
  -6   3  13   44.40    2.50
   5  -3 -13  581.64   15.40
   5  -3 -13  596.54   15.20
   5  -3 -13  616.84   14.70
  -5   3  13  576.84   15.20
   4  -3 -13  446.56   11.30
   4  -3 -13  449.06   12.10
   3  -3 -13  516.35   13.30
   3  -3 -13  500.05   12.70
   3  -3 -13  525.45   13.60
   2  -3 -13  154.28    5.10
   2  -3 -13  160.18    4.90
   2  -3 -13  150.08    4.40
   2  -3 -13  152.18    5.10
   1  -3 -13   28.10    1.80
   1  -3 -13   26.50    1.90
   1  -3 -13   26.30    2.00
   1  -3 -13   24.70    1.40
   0  -3 -13    1.10    0.80
   0  -3 -13    1.70    0.60
   0  -3 -13    0.80    0.80
   0  -3 -13    0.70    0.70
  -1  -3 -13  298.67   11.30
  -1  -3 -13  306.97    7.90
  -1  -3 -13  300.57    8.60
  -1  -3 -13  294.97    8.40
   1   3  13  317.37    8.30
  -2  -3 -13   25.10    1.40
  -2  -3 -13   26.30    1.90
  -2  -3 -13   28.10    1.90
  -2  -3 -13   23.60    2.20
   2   3  13   25.30    1.60
  -3  -3 -13   13.10    1.30
  -3  -3 -13   12.30    1.00
  -3  -3 -13   15.30    2.00
   3   3  13   14.00    1.30
  -4  -3 -13   12.00    1.20
  -4  -3 -13   11.50    1.70
  -4  -3 -13   12.10    1.00
  -5  -3 -13   24.70    1.20
  -5  -3 -13   26.80    2.10
  -6  -3 -13   48.80    2.40
  -6  -3 -13   50.79    1.60
  11  -4 -13   48.80    1.90
 -11   4  13   54.69    2.10
  10  -4 -13   87.19    3.10
 -10   4  13   84.19    3.20
   9  -4 -13    4.10    1.00
  -9   4  13    4.50    1.10
  -8   4  13   55.19    2.80
   7  -4 -13   49.70    2.50
  -7   4  13   49.80    2.70
   6  -4 -13  169.38    4.70
   6  -4 -13  178.38    5.30
  -6   4  13  170.18    5.50
   5  -4 -13   54.29    3.40
   5  -4 -13   57.19    2.60
   5  -4 -13   55.79    2.10
  -5   4  13   49.99    2.50
   4  -4 -13  119.89    3.50
   4  -4 -13  111.89    4.00
   4  -4 -13  109.39    4.20
   3  -4 -13   36.10    1.70
   3  -4 -13   34.60    2.10
   3  -4 -13   41.30    2.30
   2  -4 -13   52.59    2.40
   2  -4 -13   52.69    2.70
   2  -4 -13   51.19    2.10
   1  -4 -13    4.80    1.10
   1  -4 -13    4.00    0.70
   1  -4 -13    5.30    1.00
   0  -4 -13   16.20    1.30
   0  -4 -13   18.50    1.60
   0   4  13   17.70    1.50
  -1  -4 -13  103.29    3.20
  -1  -4 -13  101.39    3.60
  -1  -4 -13   94.69    4.30
   1   4  13  105.09    3.50
  -2  -4 -13    4.50    0.80
  -2  -4 -13    3.10    1.20
  -2  -4 -13    3.80    0.90
   2   4  13    4.40    0.90
  -3  -4 -13  312.67    7.80
  -3  -4 -13  300.27    9.10
   3   4  13  294.57    8.00
  -4  -4 -13   52.99    2.90
  -4  -4 -13   54.99    1.90
  -5  -4 -13   57.99    2.80
  -5  -4 -13   60.29    1.80
  11  -5 -13   68.29    2.40
 -11   5  13   67.49    2.50
  10  -5 -13    9.20    1.10
 -10   5  13    9.80    1.20
   9  -5 -13    0.90    0.80
  -9   5  13    1.40    0.90
   8  -5 -13   31.80    2.00
  -8   5  13   26.80    2.10
   7  -5 -13    4.40    1.00
  -7   5  13    3.10    1.00
   6  -5 -13   22.40    1.80
   6  -5 -13   22.60    1.40
  -6   5  13   26.90    1.90
   5  -5 -13   27.90    1.90
   5  -5 -13   26.50    1.40
  -5   5  13   25.60    1.80
   4  -5 -13   12.40    1.00
   4  -5 -13   12.10    1.30
   3  -5 -13   75.89    2.50
   3  -5 -13   68.29    2.90
  -3   5  13   64.49    2.70
   2  -5 -13    1.50    0.60
   2  -5 -13    1.80    0.80
  -2   5  13    0.90    0.70
   1  -5 -13    0.90    0.60
   1  -5 -13    1.10    0.80
  -1   5  13    0.80    0.70
   0  -5 -13  549.25   14.40
   0  -5 -13  551.34   15.40
   0  -5 -13  569.74   13.90
   0   5  13  581.94   14.40
  -1  -5 -13    8.50    1.50
  -1  -5 -13    8.10    0.90
   1   5  13    7.40    1.10
  -2  -5 -13    3.20    1.20
  -2  -5 -13    3.40    0.70
   2   5  13    4.40    0.90
  -3  -5 -13    0.40    0.90
  -3  -5 -13    0.40    0.50
   3   5  13    0.20    0.60
  -4  -5 -13    0.20    0.80
  -4  -5 -13    0.40    0.40
  -5  -5 -13    7.20    1.10
  11  -6 -13    8.30    0.90
  10  -6 -13   21.10    1.50
 -10   6  13   20.60    1.60
   9  -6 -13   28.50    1.80
  -9   6  13   29.40    2.00
   8  -6 -13  101.89    3.60
  -8   6  13   97.59    3.70
   7  -6 -13    1.00    0.90
  -7   6  13    2.20    0.90
   6  -6 -13   48.80    2.40
  -6   6  13   52.69    2.50
   5  -6 -13   60.89    2.70
  -5   6  13   59.99    2.80
   4  -6 -13   60.09    2.10
   4  -6 -13   60.49    2.60
  -4   6  13   58.49    2.50
   3  -6 -13   17.40    1.10
   3  -6 -13   15.00    1.40
  -3   6  13   16.40    1.40
   2  -6 -13    8.90    1.20
   2  -6 -13    9.60    0.90
  -2   6  13    7.50    1.00
   1  -6 -13   95.49    4.30
   1  -6 -13  102.89    3.10
   1  -6 -13  103.59    3.80
  -1   6  13   99.89    3.50
   0  -6 -13    1.60    0.60
   0  -6 -13    1.70    1.10
   0   6  13    2.00    0.80
  -1  -6 -13    3.40    0.60
  -1  -6 -13    1.40    1.10
   1   6  13    2.50    0.80
  -2  -6 -13   70.29    3.40
  -2  -6 -13   68.99    2.10
   2   6  13   71.49    2.60
  -3  -6 -13    9.50    0.70
  -3  -6 -13    7.60    1.30
   3   6  13    8.70    0.90
  -4  -6 -13   38.60    2.20
  10  -7 -13    3.70    0.80
 -10   7  13    3.30    0.80
   9  -7 -13    6.20    1.00
  -9   7  13    6.20    1.10
   8  -7 -13   20.10    1.70
  -8   7  13   19.70    1.70
   7  -7 -13    0.70    0.80
  -7   7  13    1.00    0.80
   6  -7 -13   35.50    2.10
  -6   7  13   36.40    2.10
   5  -7 -13   42.60    2.20
   4  -7 -13   35.30    2.00
  -4   7  13   36.10    1.90
   3  -7 -13   80.29    3.10
  -3   7  13   80.79    3.00
  -2   7  13    0.90    0.70
   1  -7 -13  133.49    5.20
   1  -7 -13  134.49    3.60
  -1   7  13  138.69    4.30
   0  -7 -13  614.14   15.80
   0  -7 -13  527.75   14.20
   0   7  13  606.24   14.70
  -1  -7 -13   94.59    4.10
   1   7  13  101.09    3.30
  -2  -7 -13   97.89    3.90
   2   7  13  100.49    3.20
  -3  -7 -13    7.40    1.20
   3   7  13    6.30    0.70
  10  -8 -13    7.20    0.90
 -10   8  13    6.70    0.90
   9  -8 -13   21.50    1.50
  -9   8  13   22.50    1.60
   8  -8 -13   75.79    2.90
  -8   8  13   74.99    3.00
   7  -8 -13   10.10    1.10
  -7   8  13   10.50    1.20
   6  -8 -13  105.69    3.50
  -6   8  13  100.09    3.60
   5  -8 -13   68.59    2.80
  -4   8  13    0.00    0.60
  -3   8  13   53.49    2.30
   2  -8 -13  139.59    5.20
  -2   8  13  136.79    4.30
   1  -8 -13  165.78    5.80
  -1   8  13  163.78    4.90
   0  -8 -13   47.20    2.80
   0   8  13   48.20    2.10
  -1  -8 -13   15.80    1.80
   1   8  13   16.90    1.30
  -2  -8 -13    4.20    1.00
   2   8  13    3.20    0.70
   3   8  13   67.09    2.20
  10  -9 -13    9.10    0.90
   9  -9 -13  158.98    4.50
  -9   9  13  153.68    4.60
   8  -9 -13    9.90    1.00
  -8   9  13   10.70    1.20
   7  -9 -13   36.20    1.80
  -7   9  13   35.50    1.90
   6  -9 -13   19.50    1.80
  -4   9  13   84.39    2.90
   3  -9 -13   10.60    1.60
  -3   9  13    8.70    1.00
   2  -9 -13   68.39    3.40
  -2   9  13   69.89    2.60
   1  -9 -13  112.19    4.40
  -1   9  13  110.79    3.50
   0  -9 -13  138.39    4.90
   0   9  13  144.79    4.20
  -1  -9 -13   48.20    2.40
   1   9  13   50.39    1.90
   2   9  13    2.30    0.50
   9 -10 -13   44.30    2.20
  -8  10  13    2.20    0.60
  -7  10  13   84.89    2.90
  -4  10  13    0.50    0.50
   3 -10 -13   18.10    1.80
  -3  10  13   17.60    1.30
   2 -10 -13   12.50    1.50
  -2  10  13   12.10    1.10
   1 -10 -13   18.60    1.70
  -1  10  13   21.30    1.30
   0 -10 -13  166.38    5.30
   0  10  13  175.28    4.70
   1  10  13   45.90    1.60
   4 -11 -13    2.20    1.00
   3 -11 -13  104.39    3.80
  -3  11  13  104.19    3.10
   2 -11 -13   44.00    2.30
  -2  11  13   48.70    1.80
  -1  11  13   22.40    1.10
   0  12 -14    6.70    0.80
   2  11 -14    8.10    1.50
   2  11 -14    9.70    1.00
   1  11 -14    8.50    1.10
   1  11 -14   11.20    1.10
   0  11 -14    6.20    1.00
  -1  11 -14    2.20    0.80
   4  10 -14    6.60    1.40
   4  10 -14    6.50    0.80
   4  10 -14    4.80    0.50
   3  10 -14   68.59    2.80
   3  10 -14   71.29    2.60
   2  10 -14   77.29    3.10
   2  10 -14   77.09    2.90
   1  10 -14    8.00    1.20
   1  10 -14    9.50    1.20
   0  10 -14   26.50    1.80
  -1  10 -14  100.19    3.50
   5   9 -14   14.40    0.90
   5   9 -14   14.70    1.20
  -5  -9  14   16.70    1.30
   4   9 -14    8.90    1.20
   4   9 -14    9.30    1.10
   3   9 -14   37.60    2.10
   3   9 -14   39.10    2.30
   2   9 -14    1.10    1.00
   2   9 -14    2.20    1.00
   1   9 -14    2.90    1.10
   1   9 -14    3.80    1.00
   0   9 -14  148.39    4.80
  -1   9 -14    1.00    0.80
   6   8 -14    0.50    0.60
   6   8 -14    1.60    0.50
  -6  -8  14    1.70    0.70
   5   8 -14   17.00    1.40
   5   8 -14   15.60    1.00
  -5  -8  14   18.50    1.50
   4   8 -14  121.29    4.00
   4   8 -14  120.19    4.30
   3   8 -14  403.06   11.10
   3   8 -14  405.06   10.70
   2   8 -14    4.50    1.10
   2   8 -14    5.70    1.30
   1   8 -14  100.89    3.60
   1   8 -14   91.49    3.20
   1   8 -14   92.69    3.70
   0   8 -14    2.80    1.00
   0   8 -14    1.80    0.60
  -1   8 -14    5.60    1.10
   7   7 -14    8.70    0.70
   6   7 -14   24.30    1.20
   6   7 -14   22.30    1.50
  -6  -7  14   23.10    1.60
   5   7 -14   13.40    1.30
   5   7 -14   14.30    1.10
   5   7 -14   16.10    1.70
   4   7 -14   18.70    1.70
   4   7 -14   17.90    1.90
   3   7 -14   93.59    4.00
   3   7 -14   98.69    3.50
   3   7 -14   99.19    3.70
   2   7 -14   12.40    1.30
   2   7 -14   14.10    1.70
   2   7 -14   14.40    1.60
   1   7 -14    9.80    1.10
   1   7 -14    9.00    1.40
   0   7 -14    6.60    0.90
   0   7 -14    6.30    1.20
  -1   7 -14    4.90    1.10
  -1   7 -14    3.80    0.70
  -2   7 -14    1.70    0.90
  -5   7 -14   34.10    1.90
  -6   7 -14   17.10    1.40
  -7   7 -14    6.80    0.80
   7   6 -14    4.10    0.60
  -7  -6  14    4.30    0.90
   6   6 -14   20.10    1.30
   6   6 -14   21.40    1.60
  -6  -6  14   21.00    1.70
   5   6 -14    7.80    0.90
   5   6 -14    7.00    1.20
   4   6 -14  110.39    4.00
   4   6 -14  118.49    4.40
   4   6 -14  113.79    4.10
   3   6 -14    6.60    1.30
   3   6 -14    6.40    1.10
   3   6 -14    6.40    1.20
   2   6 -14    6.90    1.20
   2   6 -14    7.10    1.00
   2   6 -14    6.60    1.30
   1   6 -14   20.20    1.40
   1   6 -14   22.50    1.90
   0   6 -14   51.79    2.60
   0   6 -14   52.09    2.10
  -1   6 -14    0.90    0.90
  -1   6 -14    2.30    0.60
  -2   6 -14   74.79    3.00
  -2   6 -14   70.49    2.50
  -3   6 -14  265.37    7.50
  -4   6 -14    8.60    1.20
  -5   6 -14  383.36   10.10
  -6   6 -14   58.09    2.40
  -7   6 -14   40.70    1.80
   8   5 -14    9.90    0.70
  -8  -5  14    9.80    1.00
   7   5 -14   10.70    0.90
  -7  -5  14   10.20    1.20
   6   5 -14  108.29    3.80
   6   5 -14  114.49    3.40
  -6  -5  14  121.09    4.20
   5   5 -14    1.50    0.90
   5   5 -14    0.30    0.60
   5   5 -14    0.90    0.70
  -5  -5  14    0.50    0.90
   4   5 -14   97.19    4.00
   4   5 -14   96.79    3.70
   4   5 -14   95.09    3.60
   3   5 -14    0.60    0.90
   3   5 -14    0.70    0.70
   3   5 -14    0.10    1.00
   2   5 -14   60.49    2.50
   2   5 -14   51.69    2.80
   2   5 -14   58.69    2.80
   1   5 -14   41.40    2.00
   1   5 -14   42.50    2.40
   0   5 -14   21.40    1.80
   0   5 -14   16.90    1.30
  -1   5 -14  157.38    5.10
  -1   5 -14  160.98    5.20
  -1   5 -14  157.58    4.70
  -2   5 -14  393.16   10.20
  -2   5 -14  365.36   10.00
  -2   5 -14  359.26    9.60
  -3   5 -14  155.28    5.00
  -3   5 -14  154.48    4.60
  -4   5 -14   39.30    2.20
  -4   5 -14   35.10    1.70
  -5   5 -14   39.00    2.10
  -6   5 -14    2.10    0.80
  -7   5 -14  184.18    5.20
   8   4 -14   22.70    1.10
  -8  -4  14   23.30    1.60
   7   4 -14   25.50    1.40
  -7  -4  14   24.40    1.90
   6   4 -14  275.17    7.10
   6   4 -14  254.77    7.60
  -6  -4  14  284.07    8.00
   5   4 -14   25.90    1.50
   5   4 -14   21.40    1.90
   5   4 -14   21.20    1.70
  -5  -4  14   21.90    2.00
   4   4 -14   18.60    1.60
   4   4 -14   20.10    1.90
   3   4 -14   90.09    3.80
   3   4 -14   91.79    3.60
   3   4 -14   93.79    3.50
   2   4 -14   76.89    3.00
   2   4 -14   80.29    3.30
   1   4 -14    0.60    0.90
   1   4 -14    2.10    0.80
   0   4 -14   18.80    1.40
   0   4 -14   19.20    1.80
   0   4 -14   18.00    1.70
  -1   4 -14   47.60    2.40
  -1   4 -14   45.20    2.10
  -1   4 -14   43.70    2.40
  -2   4 -14  448.46   11.80
  -2   4 -14  442.86   11.50
  -2   4 -14  444.26   11.80
  -3   4 -14    4.30    0.80
  -3   4 -14    5.40    1.10
  -4   4 -14   75.19    3.10
  -4   4 -14   71.19    2.70
  -5   4 -14  230.78    6.60
  -6   4 -14  118.89    3.90
  -7   4 -14   98.49    3.10
  -9  -3  14   16.80    1.30
   8   3 -14   16.80    1.00
  -8  -3  14   15.30    1.50
   7   3 -14   24.40    1.40
  -7  -3  14   25.00    1.90
   6   3 -14  149.88    4.30
   6   3 -14  138.29    4.70
  -6  -3  14  154.38    5.10
   5   3 -14   18.40    1.30
   5   3 -14   20.00    1.70
   5   3 -14   19.10    1.80
  -5  -3  14   19.50    1.90
   4   3 -14    7.70    1.20
   4   3 -14    8.30    1.30
  -4  -3  14    9.30    1.30
   3   3 -14  135.69    4.60
   3   3 -14  134.89    4.50
  -3  -3  14  130.19    4.50
   2   3 -14  467.35   12.20
   2   3 -14  457.55   12.30
   2   3 -14  476.95   12.50
   1   3 -14   32.70    1.80
   1   3 -14   34.60    2.10
   1   3 -14   28.20    2.00
   0   3 -14    3.30    1.10
   0   3 -14    4.10    1.00
   0   3 -14    3.90    0.80
  -1   3 -14    3.60    1.00
  -1   3 -14    3.10    0.80
  -1   3 -14    3.30    1.00
  -2   3 -14  127.59    4.50
  -2   3 -14  136.79    4.30
  -2   3 -14  135.79    4.60
  -3   3 -14   54.99    2.40
  -3   3 -14   58.69    2.70
  -4   3 -14    3.90    0.90
  -4   3 -14    4.80    1.10
  -5   3 -14   54.49    2.50
  -6   3 -14    4.00    0.90
  -7   3 -14    1.40    0.60
  -9  -2  14    9.90    1.10
   8   2 -14   13.80    1.00
  -8  -2  14   14.30    1.50
   7   2 -14  107.89    3.20
  -7  -2  14  104.89    3.90
   6   2 -14  128.29    3.80
  -6  -2  14  126.69    4.50
   5   2 -14   19.10    1.60
   5   2 -14   17.00    1.70
   5   2 -14   18.20    1.40
  -5  -2  14   15.50    1.70
   4   2 -14   49.90    2.80
   4   2 -14   52.69    2.70
   4   2 -14   55.49    2.60
  -4  -2  14   57.29    2.70
   3   2 -14   60.59    2.90
   3   2 -14   55.79    2.60
   3   2 -14   59.09    2.60
  -3  -2  14   57.19    2.60
   2   2 -14  192.98    5.90
   2   2 -14  192.68    5.80
   2   2 -14  192.88    6.00
   1   2 -14   25.50    1.70
   1   2 -14   26.60    2.00
   1   2 -14   26.70    1.90
   0   2 -14   26.10    1.90
   0   2 -14   23.60    1.60
   0   2 -14   23.20    1.90
  -1   2 -14    4.50    0.90
  -1   2 -14    3.30    1.00
  -1   2 -14    4.60    1.10
  -2   2 -14    7.30    1.10
  -2   2 -14    7.70    1.20
  -2   2 -14    8.10    1.20
  -3   2 -14  137.79    4.40
  -3   2 -14  130.09    4.50
  -4   2 -14   44.50    2.10
  -4   2 -14   42.70    2.30
  -5   2 -14   74.39    3.00
  -6   2 -14   39.80    2.30
  -6   2 -14   38.50    2.00
  -7   2 -14   10.60    0.80
  -7   2 -14   11.70    1.10
  -9  -1  14    5.50    1.00
   8   1 -14    2.00    0.60
  -8  -1  14    2.60    0.90
   7   1 -14  149.99    4.30
  -7  -1  14  154.48    5.10
   6   1 -14    4.80    0.80
  -6  -1  14    4.70    1.10
   5   1 -14    2.70    0.90
   5   1 -14    1.80    1.00
   5   1 -14    2.40    0.70
   5   1 -14    1.80    0.90
  -5  -1  14    3.70    1.00
   4   1 -14    8.90    1.20
   4   1 -14    9.90    1.40
   4   1 -14   10.70    1.40
   4   1 -14    8.50    0.90
  -4  -1  14    9.00    1.20
   3   1 -14   79.19    3.30
   3   1 -14   79.49    3.20
   3   1 -14   81.09    3.20
   2   1 -14    8.00    1.10
   2   1 -14    8.40    1.20
   2   1 -14    8.90    1.30
   1   1 -14   41.10    2.20
   1   1 -14   38.70    2.20
   1   1 -14   39.80    2.40
   0   1 -14  252.37    7.40
   0   1 -14  254.97    7.30
   0   1 -14  250.37    7.40
  -1   1 -14    0.90    0.70
  -1   1 -14    0.50    0.80
  -1   1 -14    0.70    0.80
  -2   1 -14   60.29    2.70
  -2   1 -14   60.19    2.70
  -2   1 -14   59.59    2.80
  -3   1 -14    1.00    0.70
  -3   1 -14    1.00    0.90
  -4   1 -14   50.19    2.40
  -4   1 -14   53.79    2.50
  -5   1 -14   89.19    3.30
  -5   1 -14   89.29    3.70
  -6   1 -14   12.50    1.20
  -6   1 -14   10.80    0.90
  -6   1 -14   14.40    1.60
  -7   1 -14    1.30    0.60
  -7   1 -14    1.00    0.40
 -10   0  14   53.59    2.20
  -9   0  14    4.70    1.00
   8   0 -14    8.60    0.80
  -8   0  14    6.90    1.20
   7   0 -14  378.46   10.20
   7   0 -14  391.26    9.70
  -7   0  14  389.66   10.60
   6   0 -14  271.47    7.70
   6   0 -14  280.77    7.30
  -6   0  14  279.37    8.10
   5   0 -14    1.50    0.80
   5   0 -14    5.40    0.80
   5   0 -14    2.60    0.90
   5   0 -14    3.00    1.00
  -5   0  14    3.40    1.00
   4   0 -14   11.70    1.30
   4   0 -14   14.00    1.60
   4   0 -14   13.20    1.10
   4   0 -14   14.20    1.60
  -4   0  14   14.50    1.50
   3   0 -14  918.81   23.00
   3   0 -14  919.81   22.80
   3   0 -14  911.41   23.00
   2   0 -14   22.70    1.70
   2   0 -14   20.00    1.90
   2   0 -14   23.90    1.70
   1   0 -14   24.50    2.00
   1   0 -14   22.90    1.80
   1   0 -14   25.50    1.80
   0   0 -14    4.00    1.10
   0   0 -14    3.30    1.00
   0   0 -14    5.20    1.00
  -1   0 -14   19.20    1.80
  -1   0 -14   19.60    1.70
  -1   0 -14   16.70    1.60
  -2   0 -14    5.20    1.00
  -2   0 -14    4.60    1.10
  -2   0 -14    4.50    1.00
  -3   0 -14   50.79    2.50
  -3   0 -14   53.59    2.50
   3   0  14   47.50    2.30
  -4   0 -14  210.88    6.80
  -4   0 -14  204.18    6.10
  -4   0 -14  210.08    6.10
  -5   0 -14    9.50    1.10
  -5   0 -14    9.50    0.90
  -5   0 -14   10.60    1.40
  -6   0 -14  139.69    4.10
  -6   0 -14  139.29    4.70
  -6   0 -14  142.89    3.80
  -7   0 -14    1.60    0.40
 -10   1  14    5.20    0.90
   9  -1 -14  108.49    4.20
  -9   1  14  119.79    4.00
   8  -1 -14    5.80    1.00
   8  -1 -14    6.10    0.70
  -8   1  14    6.10    1.20
   7  -1 -14   18.10    1.60
   7  -1 -14   18.70    1.30
  -7   1  14   19.40    1.80
   6  -1 -14   58.59    2.70
   6  -1 -14   60.89    2.30
  -6   1  14   57.99    2.80
   5  -1 -14   12.10    1.10
   5  -1 -14   12.30    1.50
   5  -1 -14   13.70    1.40
  -5   1  14   11.40    1.30
   4  -1 -14  131.09    4.60
   4  -1 -14  123.89    4.50
   4  -1 -14  135.69    3.90
   4  -1 -14  131.39    4.40
  -4   1  14  127.59    4.30
   3  -1 -14    0.20    0.50
   3  -1 -14    1.10    0.80
   3  -1 -14    1.30    0.80
   3  -1 -14    3.10    1.00
   2  -1 -14   37.20    2.30
   2  -1 -14   33.60    2.10
   2  -1 -14   33.30    2.00
   2  -1 -14   39.70    2.20
   1  -1 -14  313.07    8.90
   1  -1 -14  329.47    9.00
   1  -1 -14  310.97    8.80
   0  -1 -14   26.70    2.00
   0  -1 -14   24.90    1.90
   0  -1 -14   25.70    1.90
  -1  -1 -14    3.50    1.00
  -1  -1 -14    2.80    1.00
  -1  -1 -14    3.90    1.00
  -2  -1 -14   18.30    1.70
  -2  -1 -14   16.90    1.60
  -3  -1 -14    2.20    0.60
  -3  -1 -14    1.90    0.80
  -3  -1 -14    2.80    0.90
   3   1  14    1.30    0.70
  -4  -1 -14  140.69    5.10
  -4  -1 -14  141.89    4.00
  -4  -1 -14  147.59    4.50
  -5  -1 -14    1.90    0.90
  -5  -1 -14    2.00    0.70
  -5  -1 -14    3.00    0.60
  -6  -1 -14   35.20    2.00
  -6  -1 -14   34.10    1.60
  -6  -1 -14   36.90    1.40
  10  -2 -14    1.40    0.60
 -10   2  14    1.50    0.70
   9  -2 -14   55.39    2.30
  -9   2  14   56.09    2.60
   8  -2 -14  144.19    4.50
  -8   2  14  138.09    4.70
   7  -2 -14  131.19    4.40
   7  -2 -14  133.89    3.80
  -7   2  14  132.09    4.60
   6  -2 -14  130.79    3.80
   6  -2 -14  119.89    4.20
  -6   2  14  121.59    4.30
   5  -2 -14  328.57    8.40
   5  -2 -14  327.87    9.00
   5  -2 -14  321.97    9.20
  -5   2  14  324.37    9.00
   4  -2 -14  383.36   10.20
   4  -2 -14  384.86   10.50
   4  -2 -14  369.86    9.70
   3  -2 -14  317.97    8.90
   3  -2 -14  311.97    8.60
   3  -2 -14  297.57    8.70
   3  -2 -14  302.27    8.00
   2  -2 -14   98.59    3.60
   2  -2 -14   94.29    3.00
   2  -2 -14   91.09    3.70
   2  -2 -14   93.49    3.60
   1  -2 -14    2.20    0.90
   1  -2 -14    1.50    0.60
   1  -2 -14    4.20    1.10
   1  -2 -14    2.40    0.90
   0  -2 -14   53.49    2.70
   0  -2 -14   57.79    2.70
   0  -2 -14   52.69    2.10
   0  -2 -14   57.39    2.70
  -1  -2 -14  526.95   13.90
  -1  -2 -14  522.35   13.20
  -1  -2 -14  530.95   13.90
  -1  -2 -14  553.54   13.90
  -2  -2 -14    5.20    1.10
  -2  -2 -14    6.40    1.10
  -2  -2 -14    5.70    0.80
   2   2  14    5.10    0.90
  -3  -2 -14  135.89    4.00
  -3  -2 -14  138.69    5.10
  -3  -2 -14  141.39    4.40
  -3  -2 -14  135.09    4.50
   3   2  14  136.79    4.10
  -4  -2 -14    3.20    0.80
  -4  -2 -14    2.10    1.00
  -4  -2 -14    2.30    0.60
  -5  -2 -14  181.98    4.70
  -5  -2 -14  169.48    4.90
  -5  -2 -14  178.58    5.60
  -6  -2 -14   58.69    1.80
  10  -3 -14  124.89    3.80
 -10   3  14  128.69    4.00
   9  -3 -14   21.60    1.60
  -9   3  14   20.50    1.70
   8  -3 -14   20.20    1.70
  -8   3  14   18.90    1.80
   7  -3 -14   30.00    1.40
   7  -3 -14   28.50    1.90
  -7   3  14   30.00    2.00
   6  -3 -14   17.20    1.30
   6  -3 -14   17.50    1.70
  -6   3  14   17.60    1.70
   5  -3 -14   16.90    1.30
   5  -3 -14   16.30    1.60
   5  -3 -14   15.10    1.60
  -5   3  14   14.60    1.50
   4  -3 -14  219.38    6.70
   4  -3 -14  210.78    6.40
   4  -3 -14  222.08    5.90
   3  -3 -14   14.60    1.20
   3  -3 -14   16.80    1.70
   3  -3 -14   12.30    1.30
   2  -3 -14  111.19    4.10
   2  -3 -14  104.29    3.80
   2  -3 -14  112.99    3.40
   1  -3 -14   99.49    3.60
   1  -3 -14   97.09    3.10
   1  -3 -14   93.79    3.70
   1  -3 -14   93.59    3.70
   0  -3 -14  110.49    4.10
   0  -3 -14  114.89    4.00
   0  -3 -14  116.39    3.50
   0  -3 -14  111.19    4.10
  -1  -3 -14    6.00    0.80
  -1  -3 -14    7.00    1.10
   1   3  14    7.50    1.10
  -2  -3 -14    0.70    0.90
  -2  -3 -14    0.70    0.80
  -2  -3 -14    2.10    0.60
   2   3  14    1.60    0.70
  -3  -3 -14  222.58    6.30
  -3  -3 -14  226.48    5.90
  -3  -3 -14  229.78    7.10
   3   3  14  216.68    6.10
  -4  -3 -14  170.78    5.60
  -4  -3 -14  172.28    4.60
  -5  -3 -14    9.00    0.70
  -5  -3 -14    6.90    1.10
  10  -4 -14    3.80    0.80
 -10   4  14    3.30    0.80
   9  -4 -14   73.49    2.80
  -9   4  14   76.99    3.00
   8  -4 -14    6.60    1.10
  -8   4  14    6.30    1.10
   7  -4 -14  101.79    3.70
  -7   4  14  101.49    3.80
   6  -4 -14   47.50    2.40
   6  -4 -14   44.20    1.80
  -6   4  14   41.60    2.30
   5  -4 -14    0.70    0.90
   5  -4 -14    0.70    0.90
   5  -4 -14    1.90    0.60
  -5   4  14    0.40    0.80
   4  -4 -14  294.67    8.20
   4  -4 -14  291.47    7.60
   4  -4 -14  297.27    8.50
   3  -4 -14  177.28    5.70
   3  -4 -14  178.38    4.90
   3  -4 -14  173.48    5.40
   2  -4 -14   84.69    3.40
   2  -4 -14   77.39    3.10
   2  -4 -14   79.79    2.70
   1  -4 -14    1.10    0.60
   1  -4 -14    1.70    0.90
  -1   4  14    1.60    0.80
   0  -4 -14  285.17    8.00
   0  -4 -14  283.37    7.50
   0   4  14  295.77    7.90
  -1  -4 -14   92.29    2.80
  -1  -4 -14   83.19    3.20
  -1  -4 -14   77.19    4.90
   1   4  14   87.99    3.10
  -2  -4 -14  171.88    5.90
  -2  -4 -14  171.28    5.20
  -2  -4 -14  182.48    4.80
   2   4  14  184.98    5.20
  -3  -4 -14   10.40    0.90
  -3  -4 -14   12.40    1.60
   3   4  14   10.70    1.00
  -4  -4 -14  120.59    3.30
  -4  -4 -14  119.49    4.30
  -5  -4 -14   49.90    1.50
  10  -5 -14   50.89    2.10
 -10   5  14   51.29    2.20
   9  -5 -14    3.10    0.90
  -9   5  14    3.10    0.90
   8  -5 -14  101.79    3.50
  -8   5  14   95.69    3.60
   7  -5 -14    6.20    1.10
  -7   5  14    6.90    1.10
   6  -5 -14   28.00    1.90
  -6   5  14   25.80    1.80
   5  -5 -14   59.69    2.70
   5  -5 -14   58.19    2.00
  -5   5  14   55.79    2.50
   4  -5 -14  117.59    4.00
   4  -5 -14  121.59    3.40
  -4   5  14  104.59    3.70
   3  -5 -14   23.30    1.40
   3  -5 -14   20.60    1.70
  -3   5  14   21.50    1.60
   2  -5 -14   14.40    1.40
   2  -5 -14   13.20    1.00
  -2   5  14   13.90    1.30
   1  -5 -14   29.20    1.50
   1  -5 -14   28.70    1.90
  -1   5  14   28.80    1.70
   0  -5 -14   10.50    1.20
   0  -5 -14    9.80    0.90
   0   5  14   11.00    1.20
  -1  -5 -14   64.29    3.20
  -1  -5 -14   66.09    2.20
   1   5  14   69.29    2.60
  -2  -5 -14   14.80    1.10
  -2  -5 -14   15.80    1.80
   2   5  14   13.50    1.20
  -3  -5 -14   34.70    2.20
  -3  -5 -14   37.30    1.30
   3   5  14   34.70    1.60
  -4  -5 -14   22.40    1.70
  -4  -5 -14   20.00    0.80
  10  -6 -14    0.70    0.70
 -10   6  14    0.90    0.60
   9  -6 -14   46.80    2.10
  -9   6  14   42.80    2.10
   8  -6 -14    3.50    0.90
  -8   6  14    3.10    0.90
   7  -6 -14   74.39    2.90
  -7   6  14   70.09    2.90
   6  -6 -14  101.79    3.60
  -6   6  14   95.89    3.50
   5  -6 -14    9.30    1.20
   4  -6 -14  328.47    8.10
   4  -6 -14  324.77    8.80
  -4   6  14  319.57    8.70
   3  -6 -14   17.60    1.10
   3  -6 -14   15.30    1.40
  -3   6  14   16.50    1.40
   2  -6 -14    3.50    0.60
   2  -6 -14    5.20    1.00
  -2   6  14    3.70    0.90
   1  -6 -14   15.20    1.40
   1  -6 -14   14.50    1.10
  -1   6  14   13.20    1.20
   0  -6 -14   33.30    2.40
   0  -6 -14   36.60    1.50
   0   6  14   43.70    2.00
  -1  -6 -14    7.00    0.70
  -1  -6 -14    7.60    1.30
   1   6  14    6.80    0.90
  -2  -6 -14    5.50    0.50
  -2  -6 -14    6.30    1.20
   2   6  14    5.70    0.80
   3   6  14    9.90    0.90
  10  -7 -14   19.00    1.20
 -10   7  14   18.00    1.40
   9  -7 -14    5.30    0.90
  -9   7  14    6.50    1.00
   8  -7 -14   20.70    1.60
  -8   7  14   18.40    1.50
   7  -7 -14   87.59    3.10
  -7   7  14   82.89    3.10
   6  -7 -14    3.20    0.90
  -6   7  14    3.70    0.90
   5  -7 -14  237.58    6.70
   4  -7 -14  265.97    7.20
  -4   7  14  253.47    7.10
   3  -7 -14   14.30    1.30
  -3   7  14   13.40    1.20
  -2   7  14    0.20    0.70
   1  -7 -14  115.79    5.10
  -1   7  14  123.69    3.80
   0  -7 -14   17.50    1.80
   0   7  14   18.70    1.40
  -1  -7 -14   22.90    1.90
   1   7  14   22.80    1.40
  -2  -7 -14   54.29    2.60
   2   7  14   58.99    2.00
   9  -8 -14  158.48    4.50
  -9   8  14  160.38    4.70
   8  -8 -14   22.00    1.50
  -8   8  14   20.30    1.40
   7  -8 -14   49.99    2.20
  -7   8  14   47.10    2.10
   6  -8 -14   31.20    1.80
   5  -8 -14   19.30    1.50
  -4   8  14  151.88    4.50
  -3   8  14  158.68    4.70
  -2   8  14   32.60    1.70
   1  -8 -14    0.80    0.80
  -1   8  14    1.00    0.60
   0  -8 -14   19.80    1.80
   0   8  14   21.40    1.30
  -1  -8 -14   20.80    1.70
   1   8  14   22.80    1.30
   2   8  14   41.20    1.50
   9  -9 -14    7.70    0.80
   8  -9 -14    1.10    0.60
  -8   9  14    1.10    0.60
   7  -9 -14   98.79    3.10
  -4   9  14   17.00    1.20
  -3   9  14   39.20    1.70
   2  -9 -14   80.19    3.40
  -2   9  14   85.09    2.80
   1  -9 -14   32.60    2.00
  -1   9  14   38.00    1.60
   0  -9 -14   13.80    1.40
   0   9  14   16.60    1.10
   1   9  14   43.50    1.60
  -4  10  14   57.29    2.00
  -3  10  14   31.90    1.40
  -2  10  14   14.00    1.00
  -1  10  14   14.10    1.00
   1  11 -15    5.80    0.80
   0  11 -15    1.40    0.60
   3  10 -15    3.30    0.70
   2  10 -15    3.70    0.80
   1  10 -15   36.30    1.80
   0  10 -15    0.50    0.70
  -1  10 -15   15.10    1.30
   4   9 -15    7.20    0.60
   4   9 -15    6.40    0.90
  -4  -9  15    5.90    1.00
   3   9 -15    8.30    1.10
   3   9 -15    9.10    1.10
   2   9 -15   26.80    1.80
   2   9 -15   31.80    1.80
   1   9 -15    2.20    0.90
   0   9 -15    6.90    1.10
  -1   9 -15  113.59    3.80
   5   8 -15   49.30    1.70
   5   8 -15   50.59    2.00
  -5  -8  15   47.90    2.10
   4   8 -15   77.49    2.90
  -4  -8  15   80.59    3.00
   3   8 -15   70.89    2.80
   3   8 -15   69.29    3.00
   2   8 -15    0.60    0.80
   2   8 -15    1.20    0.80
   1   8 -15   12.30    1.40
   0   8 -15   16.60    1.60
  -1   8 -15    1.10    0.80
   6   7 -15    2.70    0.70
   6   7 -15    3.50    0.50
  -6  -7  15    3.60    0.80
   5   7 -15    5.00    0.70
   5   7 -15    5.60    1.00
  -5  -7  15    4.80    0.90
   4   7 -15    6.10    1.10
  -4  -7  15    4.70    1.00
   3   7 -15   78.19    3.30
   3   7 -15   84.69    3.20
   2   7 -15    3.40    1.00
   2   7 -15    2.60    1.00
   1   7 -15   25.60    2.00
   0   7 -15    4.30    1.10
  -1   7 -15  266.87    7.60
  -5   7 -15   15.00    1.30
  -6   7 -15    8.40    0.90
   7   6 -15   11.10    0.70
  -7  -6  15   11.00    1.40
   6   6 -15    0.60    0.50
   6   6 -15    0.80    0.70
  -6  -6  15    1.20    0.70
   5   6 -15   55.09    2.50
   5   6 -15   53.59    2.00
  -5  -6  15   55.99    2.60
   4   6 -15  103.49    3.80
  -4  -6  15  100.89    3.70
   3   6 -15   15.70    1.60
   3   6 -15   15.80    1.70
   3   6 -15   16.60    1.60
   2   6 -15    4.30    1.10
   1   6 -15   28.20    1.60
   1   6 -15   31.90    2.20
   0   6 -15   57.89    2.30
   0   6 -15   61.89    2.80
  -1   6 -15    0.60    0.50
  -1   6 -15    0.50    0.90
  -2   6 -15  184.48    5.50
  -2   6 -15  172.48    5.60
  -3   6 -15  180.98    5.40
  -4   6 -15   84.99    3.10
  -5   6 -15   38.50    1.90
  -6   6 -15    0.40    0.60
   7   5 -15   89.49    2.60
  -7  -5  15   87.69    3.10
   6   5 -15    3.60    0.90
   6   5 -15    4.10    0.70
  -6  -5  15    3.30    0.90
   5   5 -15   16.30    1.50
   5   5 -15   13.20    1.10
  -5  -5  15   11.70    1.40
   4   5 -15   39.20    2.30
   4   5 -15   36.20    2.10
  -4  -5  15   34.70    2.20
   3   5 -15    4.00    0.90
   3   5 -15    4.80    1.20
  -3  -5  15    3.70    1.00
   2   5 -15   24.30    2.00
   2   5 -15   21.80    1.50
   1   5 -15   29.40    2.10
   1   5 -15   25.40    1.60
   0   5 -15    5.20    0.90
   0   5 -15    5.50    1.20
  -1   5 -15  342.27    9.30
  -1   5 -15  335.37    8.90
  -1   5 -15  332.07    9.20
  -2   5 -15  172.38    5.10
  -2   5 -15  177.58    5.40
  -2   5 -15  178.98    5.40
  -3   5 -15   35.60    2.10
  -4   5 -15   19.90    1.60
  -5   5 -15   49.60    2.20
  -6   5 -15    2.90    0.70
   8   4 -15   13.80    0.80
  -8  -4  15   15.90    1.30
   7   4 -15   45.90    1.70
  -7  -4  15   43.80    2.20
   6   4 -15   17.40    1.20
   6   4 -15   14.00    1.40
  -6  -4  15   17.70    1.70
   5   4 -15  207.88    5.60
   5   4 -15  205.78    6.20
  -5  -4  15  209.48    6.40
   4   4 -15   63.49    2.90
   4   4 -15   61.19    2.70
  -4  -4  15   62.69    2.80
   3   4 -15   35.10    2.30
   3   4 -15   36.90    2.00
  -3  -4  15   38.70    2.20
   2   4 -15  128.09    4.40
   2   4 -15  119.59    4.10
   1   4 -15    7.80    1.30
   1   4 -15    7.20    1.00
   0   4 -15    3.40    1.10
   0   4 -15    2.40    0.80
   0   4 -15    0.60    0.80
  -1   4 -15   48.70    2.20
  -1   4 -15   46.80    2.50
  -1   4 -15   52.09    2.60
  -2   4 -15    0.00    0.80
  -2   4 -15    0.60    0.60
  -2   4 -15    1.60    0.90
  -3   4 -15   22.80    1.50
  -3   4 -15   20.50    1.80
  -4   4 -15   26.50    1.80
  -5   4 -15   84.19    3.00
  -6   4 -15   57.79    2.20
   8   3 -15   21.90    1.00
  -8  -3  15   24.90    1.60
   7   3 -15   30.30    1.40
  -7  -3  15   30.40    1.90
   6   3 -15    2.30    0.60
   6   3 -15    3.50    0.90
  -6  -3  15    3.30    0.90
   5   3 -15   40.00    2.30
   5   3 -15   35.50    2.10
   5   3 -15   37.90    1.70
  -5  -3  15   37.90    2.30
   4   3 -15    3.30    0.90
   4   3 -15    4.10    1.10
  -4  -3  15    4.90    1.00
   3   3 -15    4.10    1.10
   3   3 -15    4.60    0.90
   2   3 -15    4.50    0.90
   2   3 -15    5.10    1.20
   2   3 -15    5.50    1.10
   1   3 -15   42.10    2.40
   1   3 -15   45.70    2.20
   1   3 -15   47.90    2.60
   0   3 -15   18.10    1.50
   0   3 -15   16.60    1.60
   0   3 -15   18.10    1.80
  -1   3 -15  280.27    8.20
  -1   3 -15  289.97    8.20
  -1   3 -15  296.97    8.10
  -2   3 -15  262.57    7.40
  -2   3 -15  265.57    7.60
  -2   3 -15  269.77    7.60
  -3   3 -15    9.50    1.10
  -3   3 -15    9.70    1.20
  -4   3 -15   49.90    2.40
  -5   3 -15    3.30    0.90
  -6   3 -15   13.90    1.20
  -9  -2  15    1.90    0.60
   8   2 -15   18.00    1.00
  -8  -2  15   18.10    1.50
   7   2 -15   38.50    1.60
  -7  -2  15   40.50    2.20
   6   2 -15   79.89    2.60
   6   2 -15   77.49    3.20
  -6  -2  15   79.49    3.20
   5   2 -15   33.10    2.10
   5   2 -15   35.60    2.20
   5   2 -15   36.20    1.70
  -5  -2  15   34.70    2.10
   4   2 -15    7.30    1.10
   4   2 -15    9.60    1.40
   4   2 -15    6.70    1.10
  -4  -2  15    7.30    1.10
   3   2 -15    5.70    1.20
   3   2 -15    3.90    1.00
   3   2 -15    4.60    1.00
   2   2 -15   19.80    1.60
   2   2 -15   19.10    1.90
   2   2 -15   18.80    1.70
   1   2 -15    5.30    1.10
   1   2 -15    6.50    1.10
   1   2 -15    4.80    1.20
   0   2 -15   25.40    1.90
   0   2 -15   24.60    1.80
   0   2 -15   21.60    1.90
  -1   2 -15   50.79    2.40
  -1   2 -15   49.70    2.60
  -1   2 -15   51.49    2.50
  -2   2 -15   13.10    1.50
  -2   2 -15   12.60    1.40
  -2   2 -15   12.70    1.40
  -3   2 -15    8.70    1.10
  -3   2 -15    9.80    1.30
  -4   2 -15  101.49    3.60
  -5   2 -15   20.30    1.50
  -6   2 -15    1.30    0.60
  -9  -1  15    7.10    0.90
   8   1 -15  178.08    4.60
  -8  -1  15  179.08    5.40
   7   1 -15   34.40    1.50
  -7  -1  15   32.60    2.00
   6   1 -15    6.00    0.80
  -6  -1  15    4.90    1.10
   5   1 -15   39.20    2.20
   5   1 -15   46.20    2.50
   5   1 -15   38.10    2.20
   5   1 -15   39.90    1.80
  -5  -1  15   43.10    2.30
   4   1 -15   27.10    1.60
   4   1 -15   29.10    1.90
   4   1 -15   30.70    2.10
   4   1 -15   31.30    2.00
  -4  -1  15   30.60    1.90
   3   1 -15   61.49    2.80
   3   1 -15   62.99    2.90
   3   1 -15   62.39    2.80
   2   1 -15   36.70    2.20
   2   1 -15   37.50    2.10
   2   1 -15   36.90    2.40
   1   1 -15  197.38    6.20
   1   1 -15  198.98    6.10
   1   1 -15  198.48    6.10
   0   1 -15  128.39    4.50
   0   1 -15  130.89    4.50
   0   1 -15  127.69    4.40
  -1   1 -15  391.06   10.70
  -1   1 -15  396.66   10.70
  -1   1 -15  396.56   10.60
  -2   1 -15    1.50    0.80
  -2   1 -15    3.00    0.90
  -2   1 -15    1.60    0.90
  -3   1 -15    1.20    0.90
  -3   1 -15    1.30    0.70
  -4   1 -15    2.00    0.80
  -5   1 -15  195.38    5.50
  -6   1 -15   36.10    1.60
  -6   1 -15   34.60    1.30
  -9   0  15    7.70    1.00
   8   0 -15   41.80    1.50
  -8   0  15   43.40    2.20
   7   0 -15    9.90    1.20
   7   0 -15   10.30    0.90
  -7   0  15   11.40    1.30
   6   0 -15    3.40    0.70
   6   0 -15    2.40    0.90
  -6   0  15    4.60    1.10
   5   0 -15    6.60    1.10
   5   0 -15    5.70    0.80
   5   0 -15    6.40    1.20
  -5   0  15    6.90    1.10
   4   0 -15    5.40    1.10
   4   0 -15    4.00    1.10
   4   0 -15    5.30    0.80
   4   0 -15    4.30    1.00
   3   0 -15   81.79    3.20
   3   0 -15   77.99    2.60
   3   0 -15   79.09    3.20
   3   0 -15   72.09    3.30
   2   0 -15  140.29    4.80
   2   0 -15  138.49    4.70
   2   0 -15  134.39    4.60
   1   0 -15   43.50    2.40
   1   0 -15   46.70    2.60
   1   0 -15   45.50    2.40
   0   0 -15  397.16   10.70
   0   0 -15  395.76   10.80
   0   0 -15  388.86   10.60
  -1   0 -15  164.08    5.30
  -1   0 -15  168.48    5.30
  -1   0 -15  170.58    5.40
  -2   0 -15   22.30    1.70
  -2   0 -15   20.20    1.70
  -2   0 -15   19.60    1.80
  -3   0 -15  277.97    7.70
  -4   0 -15   82.89    2.60
  -4   0 -15   86.49    3.10
  -5   0 -15  136.59    4.10
  -5   0 -15  141.89    3.80
  -6   0 -15   79.19    2.50
  -6   0 -15   78.89    2.30
  -9   1  15   14.70    1.40
   8  -1 -15  111.09    3.70
  -8   1  15  121.79    4.00
   7  -1 -15  107.59    3.70
   7  -1 -15  109.69    3.20
  -7   1  15  106.69    3.90
   6  -1 -15    2.00    0.70
   6  -1 -15    1.50    0.80
  -6   1  15    1.20    0.80
   5  -1 -15  152.98    5.20
   5  -1 -15  171.58    4.60
   5  -1 -15  163.08    5.10
  -5   1  15  155.58    5.10
   4  -1 -15  233.28    6.90
   4  -1 -15  231.58    6.30
   4  -1 -15  241.18    7.10
   3  -1 -15  312.87    8.70
   3  -1 -15  294.27    7.90
   3  -1 -15  311.67    8.50
   3  -1 -15  302.47    8.70
   2  -1 -15  179.58    5.30
   2  -1 -15  203.78    6.00
   2  -1 -15  182.28    5.90
   2  -1 -15  209.68    6.20
   1  -1 -15    8.50    1.30
   1  -1 -15    6.30    1.20
   1  -1 -15    8.60    1.30
   1  -1 -15    6.70    0.80
   0  -1 -15  152.48    5.00
   0  -1 -15  161.48    5.00
   0  -1 -15  138.69    4.50
   0  -1 -15  149.19    4.90
  -1  -1 -15   89.79    3.50
  -1  -1 -15   95.89    3.60
  -1  -1 -15  103.19    3.70
  -1  -1 -15   95.29    3.10
  -2  -1 -15    2.10    0.90
  -2  -1 -15    2.30    0.60
  -2  -1 -15    1.60    0.80
   2   1  15    3.70    0.80
  -3  -1 -15    3.40    0.90
  -3  -1 -15    5.20    0.70
   3   1  15    5.30    0.90
  -4  -1 -15   58.09    2.30
  -4  -1 -15   58.29    2.00
  -5  -1 -15    1.10    0.60
  -5  -1 -15    0.70    0.40
  -5  -1 -15    1.30    0.70
   9  -2 -15   28.90    1.60
  -9   2  15   30.20    1.70
   8  -2 -15  236.18    6.60
  -8   2  15  235.28    6.80
   7  -2 -15    0.20    0.80
   7  -2 -15    0.10    0.50
  -7   2  15    1.80    0.90
   6  -2 -15  133.49    3.80
   6  -2 -15  130.09    4.30
  -6   2  15  129.49    4.40
   5  -2 -15   20.20    1.40
   5  -2 -15   19.90    1.80
   5  -2 -15   19.40    1.80
  -5   2  15   21.60    1.70
   4  -2 -15  272.67    8.00
   4  -2 -15  277.47    7.80
   4  -2 -15  273.77    7.20
   3  -2 -15   19.40    1.80
   3  -2 -15   17.40    1.30
   3  -2 -15   16.90    1.70
   2  -2 -15   85.79    3.50
   2  -2 -15   80.79    2.80
   2  -2 -15   87.29    3.40
   2  -2 -15   82.09    3.40
   1  -2 -15   37.00    2.20
   1  -2 -15   38.10    2.30
   1  -2 -15   35.40    1.70
   1  -2 -15   37.30    2.20
   0  -2 -15    2.10    0.90
   0  -2 -15    1.30    0.60
   0  -2 -15    2.40    1.00
   0  -2 -15    2.30    0.90
  -1  -2 -15    6.00    1.10
  -1  -2 -15    4.10    0.70
  -1  -2 -15    3.90    0.90
   1   2  15    6.10    1.00
  -2  -2 -15    0.50    0.70
  -2  -2 -15    0.10    0.50
   2   2  15    1.00    0.70
  -3  -2 -15   22.70    1.60
  -3  -2 -15   25.10    1.30
   3   2  15   24.60    1.40
  -4  -2 -15   42.80    1.60
  -4  -2 -15   46.10    1.90
  -4  -2 -15   43.80    2.30
  -5  -2 -15   -0.30    0.40
  10  -3 -15    8.10    0.80
 -10   3  15   10.70    1.40
   9  -3 -15  111.79    3.50
  -9   3  15  110.09    3.70
   8  -3 -15  129.99    4.20
  -8   3  15  132.99    4.30
   7  -3 -15   95.39    2.80
   7  -3 -15  100.39    3.50
  -7   3  15   99.29    3.60
   6  -3 -15    1.40    0.90
   6  -3 -15    0.90    0.60
  -6   3  15    1.40    0.80
   5  -3 -15    3.40    1.00
   5  -3 -15    5.50    1.10
   5  -3 -15    4.30    0.80
   4  -3 -15  128.59    4.50
   4  -3 -15  127.29    3.80
   4  -3 -15  126.39    4.30
   3  -3 -15   23.40    1.90
   3  -3 -15   23.50    2.00
   3  -3 -15   26.10    1.50
   2  -3 -15   66.89    2.40
   2  -3 -15   65.59    2.90
   2  -3 -15   65.99    3.00
   1  -3 -15   28.70    2.00
   1  -3 -15   25.20    1.50
   1  -3 -15   27.30    2.00
   0  -3 -15   47.60    2.50
   0  -3 -15   47.80    2.00
   0   3  15   51.19    2.30
  -1  -3 -15  128.39    4.20
  -1  -3 -15  125.59    3.70
   1   3  15  125.09    4.00
  -2  -3 -15    3.60    0.90
  -2  -3 -15    4.00    0.70
   2   3  15    3.90    0.80
  -3  -3 -15    5.50    0.90
  -3  -3 -15    6.20    0.70
  -3  -3 -15    6.40    1.20
   3   3  15    5.10    0.70
  -4  -3 -15   15.20    1.40
  -4  -3 -15   13.80    0.90
  10  -4 -15    2.80    0.60
   9  -4 -15   11.80    1.10
  -9   4  15   14.00    1.30
   8  -4 -15   58.79    2.50
  -8   4  15   55.99    2.50
   7  -4 -15    5.80    1.00
  -7   4  15    4.40    1.00
   6  -4 -15   59.39    2.60
   6  -4 -15   53.19    1.90
  -6   4  15   57.69    2.50
   5  -4 -15   80.39    3.20
   5  -4 -15   85.59    2.60
   5  -4 -15   77.79    3.20
   4  -4 -15  307.77    7.90
   4  -4 -15  307.67    8.60
   4  -4 -15  303.27    8.50
   3  -4 -15  135.79    3.90
   3  -4 -15  134.89    4.50
   3  -4 -15  131.19    4.60
   2  -4 -15    1.30    0.60
   2  -4 -15    0.80    0.80
  -2   4  15    1.20    0.70
   1  -4 -15   46.10    2.40
   1  -4 -15   43.70    1.80
  -1   4  15   43.40    2.10
   0  -4 -15    1.90    0.80
   0  -4 -15    2.40    0.60
   0   4  15    1.40    0.80
  -1  -4 -15   59.69    2.50
  -1  -4 -15   64.39    2.20
   1   4  15   60.19    2.40
  -2  -4 -15   24.50    1.20
  -2  -4 -15   23.80    1.50
   2   4  15   23.90    1.40
  -3  -4 -15    3.20    0.90
  -3  -4 -15    3.40    0.60
   3   4  15    4.00    0.60
  -4  -4 -15  296.57    7.20
  10  -5 -15   24.60    1.30
   9  -5 -15   42.40    1.90
  -9   5  15   44.30    2.00
   8  -5 -15   73.29    2.80
  -8   5  15   74.59    2.80
   7  -5 -15    2.60    0.80
  -7   5  15    2.40    0.80
   6  -5 -15   10.20    1.20
  -6   5  15   10.90    1.20
   5  -5 -15   67.09    2.80
   5  -5 -15   68.59    2.10
  -5   5  15   60.69    2.50
   4  -5 -15    9.90    0.90
   4  -5 -15   10.20    1.20
  -4   5  15   10.50    1.10
   3  -5 -15   68.09    2.30
   3  -5 -15   67.39    2.90
  -3   5  15   65.09    2.60
   2  -5 -15   10.40    1.30
   2  -5 -15   10.70    0.90
  -2   5  15    9.80    1.10
   1  -5 -15    1.30    0.70
   1  -5 -15    0.60    0.50
  -1   5  15    1.40    0.70
   0  -5 -15   29.90    1.80
   0  -5 -15   28.60    1.40
   0   5  15   29.00    1.70
  -1  -5 -15   75.49    2.40
   1   5  15   80.59    2.70
  -2  -5 -15  262.67    7.70
  -2  -5 -15  278.17    6.80
   2   5  15  276.17    7.10
  -3  -5 -15   32.50    1.90
  -3  -5 -15   35.00    1.10
   3   5  15   36.10    1.40
   9  -6 -15   25.30    1.50
  -9   6  15   25.30    1.50
   8  -6 -15   57.79    2.30
  -8   6  15   53.59    2.30
   7  -6 -15    1.20    0.80
  -7   6  15    2.30    0.80
   6  -6 -15    5.20    1.00
   5  -6 -15  415.76   10.60
  -5   6  15  381.56   11.40
   4  -6 -15    9.60    1.20
  -4   6  15    9.70    1.00
   3  -6 -15  121.39    3.30
   3  -6 -15  119.89    4.00
  -3   6  15  120.79    3.80
   2  -6 -15    3.10    0.90
   2  -6 -15    1.60    0.50
  -2   6  15    1.70    0.70
   1  -6 -15    2.50    0.80
   1  -6 -15    2.70    0.50
  -1   6  15    2.30    0.70
   0  -6 -15    5.50    0.60
   0   6  15    5.90    0.90
  -1  -6 -15    3.50    0.60
  -1  -6 -15    4.10    0.90
   1   6  15    5.00    0.80
  -2  -6 -15    6.60    1.00
   2   6  15    6.10    0.70
   9  -7 -15    3.80    0.70
   8  -7 -15    7.60    0.90
  -8   7  15    7.30    0.90
   7  -7 -15    2.70    0.80
  -7   7  15    1.80    0.60
   6  -7 -15    6.60    1.00
   5  -7 -15   20.70    1.60
   4  -7 -15   24.00    1.60
  -4   7  15   21.60    1.40
   3  -7 -15  121.89    3.90
  -3   7  15  123.19    3.80
  -2   7  15  149.19    4.40
  -1   7  15    4.00    0.80
   0   7  15   15.60    1.20
  -1  -7 -15  104.59    3.70
   1   7  15  114.29    3.20
   2   7  15    1.70    0.50
   8  -8 -15    2.00    0.60
   7  -8 -15    0.50    0.60
   6  -8 -15  123.49    3.80
   5  -8 -15  226.88    6.20
  -4   8  15   30.70    1.50
  -3   8  15   45.10    1.90
  -2   8  15   64.19    2.30
  -1   8  15   10.00    0.90
   0   8  15   44.30    1.70
   7  -9 -15    4.30    0.70
  -4   9  15    5.50    0.70
  -3   9  15   69.89    2.30
  -2   9  15   47.10    1.80
  -1   9  15    5.70    0.70
  -3  10  15    0.40    0.50
   1  10 -16   -0.10    0.50
   0  10 -16    2.70    0.60
   3   9 -16    2.90    0.70
   2   9 -16    5.70    0.90
   1   9 -16    4.10    0.90
   0   9 -16   40.10    1.90
  -1   9 -16   22.80    1.40
   4   8 -16  110.49    3.10
   4   8 -16  111.29    3.50
   3   8 -16   16.60    1.40
  -3  -8  16   15.40    1.20
   2   8 -16    3.40    0.90
   1   8 -16    4.20    1.00
   0   8 -16   57.39    2.50
  -1   8 -16    0.80    0.70
   5   7 -16    1.90    0.70
   5   7 -16    2.40    0.50
  -5  -7  16    2.70    0.80
   4   7 -16   41.00    1.70
   4   7 -16   42.70    2.00
  -4  -7  16   43.10    2.00
   3   7 -16    0.10    0.80
  -3  -7  16    2.20    0.70
   2   7 -16   24.10    1.80
   1   7 -16   23.90    1.80
   0   7 -16  233.58    6.70
  -1   7 -16  159.98    4.90
   6   6 -16   46.30    1.60
  -6  -6  16   49.00    2.20
   5   6 -16    0.40    0.40
   5   6 -16    0.50    0.70
  -5  -6  16    1.00    0.70
   4   6 -16   45.20    2.20
  -4  -6  16   40.60    2.10
   3   6 -16  176.58    5.30
  -3  -6  16  169.08    5.20
   2   6 -16   75.39    3.10
   1   6 -16    2.70    1.00
   0   6 -16   12.60    1.40
  -1   6 -16    2.30    0.90
  -3   6 -16   22.00    1.50
  -4   6 -16    7.30    0.90
  -5   6 -16    5.00    0.80
   7   5 -16    3.70    0.50
   6   5 -16   34.90    1.70
   6   5 -16   38.10    1.40
  -6  -5  16   37.80    1.80
   5   5 -16   81.29    3.10
   5   5 -16   80.79    2.50
  -5  -5  16   77.99    3.00
   4   5 -16  110.79    3.80
  -4  -5  16  104.19    3.70
   3   5 -16    0.10    0.90
   2   5 -16   29.10    2.10
   1   5 -16  109.39    4.20
   1   5 -16  119.49    4.10
   0   5 -16  163.88    5.20
  -1   5 -16    7.90    1.20
  -1   5 -16    7.20    1.20
  -2   5 -16   64.39    2.60
  -2   5 -16   59.49    2.50
  -3   5 -16   37.40    1.90
  -4   5 -16   53.79    2.20
  -5   5 -16    0.70    0.60
   7   4 -16   20.70    1.00
  -7  -4  16   20.90    1.40
   6   4 -16   77.69    2.40
   6   4 -16   74.99    2.80
  -6  -4  16   77.39    2.90
   5   4 -16    4.70    1.00
   5   4 -16    5.10    0.70
  -5  -4  16    5.70    1.00
   4   4 -16   88.19    3.40
   4   4 -16   81.99    2.80
  -4  -4  16   87.69    3.20
   3   4 -16   53.69    2.80
   3   4 -16   58.19    2.80
   2   4 -16   30.60    1.80
   2   4 -16   29.20    2.10
   1   4 -16    0.70    0.70
   1   4 -16    0.30    0.90
   0   4 -16   27.50    2.10
   0   4 -16   28.60    1.70
   0   4 -16   32.50    2.00
  -1   4 -16   34.40    2.10
  -1   4 -16   36.00    2.10
  -1   4 -16   36.00    1.90
  -2   4 -16   46.60    2.30
  -2   4 -16   47.80    2.30
  -3   4 -16   59.09    2.50
  -4   4 -16    3.30    0.80
  -5   4 -16   12.90    1.10
   8   3 -16    2.60    0.40
   7   3 -16   14.80    1.00
  -7  -3  16   16.20    1.40
   6   3 -16    1.30    0.80
   6   3 -16    0.90    0.50
  -6  -3  16    0.10    0.70
   5   3 -16  124.19    4.20
   5   3 -16  126.09    3.60
  -5  -3  16  118.39    4.10
   4   3 -16   21.60    1.90
   4   3 -16   15.40    1.20
  -4  -3  16   17.30    1.50
   3   3 -16   37.40    2.30
   3   3 -16   40.90    2.10
   2   3 -16   17.80    1.50
   2   3 -16   17.50    1.60
   2   3 -16   20.90    2.00
   1   3 -16   18.10    1.70
   1   3 -16   18.80    1.50
   1   3 -16   20.20    1.80
   0   3 -16  150.08    4.90
   0   3 -16  148.59    4.90
   0   3 -16  150.08    4.80
  -1   3 -16   12.10    1.40
  -1   3 -16   12.70    1.40
  -1   3 -16   11.70    1.30
  -2   3 -16   30.00    2.00
  -2   3 -16   29.60    1.80
  -3   3 -16   31.70    1.90
  -4   3 -16   25.50    1.60
  -5   3 -16    1.40    0.70
   8   2 -16   14.60    0.70
  -8  -2  16   15.90    1.30
   7   2 -16  101.19    3.00
  -7  -2  16  106.79    3.60
   6   2 -16    3.90    0.70
   6   2 -16    2.10    0.80
  -6  -2  16    2.00    0.80
   5   2 -16   81.29    3.20
   5   2 -16   81.19    2.60
  -5  -2  16   77.59    3.10
   4   2 -16   11.90    1.40
   4   2 -16   11.60    1.00
   4   2 -16   13.00    1.50
   4   2 -16   10.70    1.30
   3   2 -16    4.10    1.10
   3   2 -16    3.60    0.90
   3   2 -16    3.90    1.00
   2   2 -16    8.40    1.30
   2   2 -16    6.90    1.10
   2   2 -16    7.60    1.20
   1   2 -16  172.58    5.40
   1   2 -16  173.48    5.60
   1   2 -16  174.08    5.50
   0   2 -16   67.59    2.90
   0   2 -16   68.39    3.00
   0   2 -16   68.79    3.00
  -1   2 -16   95.89    3.50
  -1   2 -16  101.69    3.70
  -1   2 -16  102.29    3.70
  -2   2 -16   14.90    1.40
  -2   2 -16   15.50    1.50
  -3   2 -16   40.00    2.10
  -4   2 -16    0.70    0.70
  -5   2 -16    9.10    1.00
   8   1 -16   13.70    0.70
  -8  -1  16   15.30    1.30
   7   1 -16   18.80    1.10
  -7  -1  16   19.30    1.50
   6   1 -16   79.09    4.00
   6   1 -16   78.69    2.60
  -6  -1  16   77.59    3.00
   5   1 -16   14.80    1.20
   5   1 -16   15.70    1.50
   5   1 -16   14.30    1.40
  -5  -1  16   11.20    1.30
   4   1 -16   14.10    1.50
   4   1 -16   15.30    1.20
   4   1 -16   13.20    1.40
   4   1 -16   16.10    1.50
   3   1 -16   45.70    2.50
   3   1 -16   45.50    2.40
   3   1 -16   45.80    1.90
   3   1 -16   51.19    2.50
   2   1 -16   64.09    3.00
   2   1 -16   70.49    3.00
   2   1 -16   62.09    2.80
   1   1 -16   96.29    3.60
   1   1 -16   91.29    3.50
   1   1 -16   94.39    3.70
   0   1 -16   35.10    2.00
   0   1 -16   35.70    2.20
   0   1 -16   33.00    2.20
  -1   1 -16   -0.10    0.80
  -1   1 -16    4.80    1.00
  -1   1 -16    0.60    0.80
  -2   1 -16   12.20    1.30
  -2   1 -16   11.70    1.30
  -3   1 -16   95.39    3.40
  -4   1 -16   34.00    1.80
  -5   1 -16    2.20    0.50
  -5   1 -16    2.20    0.60
  -8   0  16   14.90    1.30
   7   0 -16   33.80    1.80
   7   0 -16   32.80    1.40
  -7   0  16   32.30    1.90
   6   0 -16  159.48    5.00
   6   0 -16  166.18    4.50
  -6   0  16  166.18    5.10
   5   0 -16   19.40    1.70
   5   0 -16   18.40    1.80
   5   0 -16   21.00    1.30
  -5   0  16   19.70    1.60
   4   0 -16   95.99    3.60
   4   0 -16   82.19    3.90
   4   0 -16   90.39    3.40
   4   0 -16   90.89    2.90
   3   0 -16   21.80    2.00
   3   0 -16   22.60    1.70
   3   0 -16   27.10    1.90
   3   0 -16   25.20    1.40
   2   0 -16   58.89    2.80
   2   0 -16   67.39    3.00
   2   0 -16   62.79    2.30
   2   0 -16   68.79    2.90
   1   0 -16    0.80    0.90
   1   0 -16   -0.30    0.70
   1   0 -16    1.00    0.90
   0   0 -16   39.30    2.30
   0   0 -16   40.20    2.20
   0   0 -16   38.50    2.30
  -1   0 -16  251.87    7.10
  -1   0 -16  242.68    7.00
  -1   0 -16  237.88    7.00
  -2   0 -16   40.80    2.20
   2   0  16   42.20    1.90
  -3   0 -16   85.29    2.70
  -3   0 -16   90.89    3.20
  -4   0 -16   35.80    1.40
  -4   0 -16   38.00    1.80
  -5   0 -16  275.57    6.80
  -5   0 -16  270.57    7.00
  -9   1  16   34.10    1.70
   8  -1 -16   31.60    1.60
  -8   1  16   32.70    1.80
   7  -1 -16   -0.20    0.50
   7  -1 -16    0.90    0.70
  -7   1  16    1.80    0.70
   6  -1 -16   83.39    2.50
   6  -1 -16   79.29    3.00
  -6   1  16   71.79    2.90
   5  -1 -16    6.20    1.10
   5  -1 -16    5.80    1.10
   5  -1 -16    5.60    0.80
   4  -1 -16    2.20    0.70
   4  -1 -16    2.50    1.00
   4  -1 -16    1.20    0.80
   3  -1 -16   30.80    2.10
   3  -1 -16   39.80    2.30
   3  -1 -16   37.50    1.70
   3  -1 -16   36.50    2.30
   2  -1 -16    4.10    1.10
   2  -1 -16    5.70    0.80
   2  -1 -16    5.10    1.10
   2  -1 -16    6.10    1.10
   1  -1 -16   68.19    2.40
   1  -1 -16   73.99    3.10
   1  -1 -16   66.09    2.90
   1  -1 -16   70.59    3.00
   0  -1 -16  267.77    7.50
   0  -1 -16  260.77    6.80
   0  -1 -16  262.87    7.50
   0  -1 -16  248.18    7.40
  -1  -1 -16   16.40    1.50
  -1  -1 -16   15.50    1.20
   1   1  16   15.90    1.40
  -2  -1 -16   39.50    2.10
  -2  -1 -16   40.70    1.60
   2   1  16   35.60    1.70
  -3  -1 -16  218.68    6.10
  -3  -1 -16  218.18    5.70
  -4  -1 -16    1.50    0.60
  -4  -1 -16    1.70    0.50
   9  -2 -16    8.30    0.80
  -9   2  16    8.40    0.90
   8  -2 -16  189.28    5.30
  -8   2  16  187.18    5.40
   7  -2 -16  131.99    3.50
   7  -2 -16  133.99    4.20
  -7   2  16  134.99    4.30
   6  -2 -16    8.00    1.10
   6  -2 -16    7.70    0.80
  -6   2  16    7.10    1.00
   5  -2 -16    0.90    0.60
   5  -2 -16    0.40    0.80
   5  -2 -16    0.70    0.80
   4  -2 -16  162.98    4.60
   4  -2 -16  166.68    5.20
   4  -2 -16  157.08    5.10
   3  -2 -16   23.90    1.90
   3  -2 -16   26.20    1.40
   2  -2 -16   33.20    2.20
   2  -2 -16   34.80    1.70
   2  -2 -16   36.00    2.20
   1  -2 -16    1.50    0.90
   1  -2 -16    1.30    0.90
   1  -2 -16    0.70    0.60
   0  -2 -16   66.39    2.90
   0  -2 -16   65.79    2.30
   0   2  16   67.19    2.60
  -1  -2 -16    6.80    0.80
  -1  -2 -16    5.60    1.00
   1   2  16    6.20    0.90
  -2  -2 -16  121.99    3.90
  -2  -2 -16  122.19    3.50
   2   2  16  120.39    3.70
  -3  -2 -16   18.90    1.10
  -3  -2 -16   21.80    1.40
  -4  -2 -16    1.40    0.50
  -4  -2 -16    0.90    0.40
   9  -3 -16   25.00    1.40
  -9   3  16   22.50    1.40
   8  -3 -16   33.00    1.80
  -8   3  16   34.50    1.80
   7  -3 -16    1.20    0.80
  -7   3  16    1.70    0.70
   6  -3 -16    2.70    0.60
   6  -3 -16    1.50    0.80
  -6   3  16    1.80    0.70
   5  -3 -16    1.90    0.90
   5  -3 -16    2.80    0.70
   5  -3 -16    3.20    1.00
   4  -3 -16  112.29    3.40
   4  -3 -16  114.39    4.00
   4  -3 -16  112.49    3.90
   3  -3 -16  159.68    5.20
   3  -3 -16  169.38    5.20
   3  -3 -16  167.38    4.60
   2  -3 -16    4.60    1.00
   2  -3 -16    3.40    0.70
   2  -3 -16    5.30    1.10
   1  -3 -16  255.87    7.40
   1  -3 -16  262.97    6.80
  -1   3  16  261.07    7.20
   0  -3 -16  238.98    6.30
   0  -3 -16  245.78    6.90
   0   3  16  242.78    6.70
  -1  -3 -16   69.09    2.70
  -1  -3 -16   76.19    2.40
   1   3  16   72.29    2.60
  -2  -3 -16    5.20    0.90
  -2  -3 -16    4.60    0.60
   2   3  16    6.00    0.80
  -3  -3 -16  163.98    4.70
  -3  -3 -16  176.58    4.40
   9  -4 -16   48.30    1.90
   8  -4 -16   37.50    1.80
  -8   4  16   36.80    1.80
   7  -4 -16   24.60    1.60
  -7   4  16   25.10    1.60
   6  -4 -16    3.00    0.90
   5  -4 -16   11.90    1.00
   5  -4 -16   10.30    1.20
  -5   4  16   10.50    1.00
   4  -4 -16  382.26    9.50
   4  -4 -16  397.66   10.20
  -4   4  16  362.76    9.80
   3  -4 -16  102.49    3.70
   3  -4 -16  102.79    3.00
  -3   4  16  100.09    3.40
   2  -4 -16   19.40    1.70
   2  -4 -16   17.60    1.20
  -2   4  16   19.20    1.50
   1  -4 -16   11.40    1.30
   1  -4 -16   12.20    1.00
  -1   4  16    9.10    1.00
   0  -4 -16    0.30    0.50
   0  -4 -16    0.00    0.60
   0   4  16    0.30    0.60
  -1  -4 -16   10.30    0.90
  -1  -4 -16   10.10    1.10
   1   4  16   10.30    1.00
  -2  -4 -16   22.90    1.10
  -2  -4 -16   20.80    1.80
   2   4  16   23.40    1.20
  -3  -4 -16  109.09    2.80
   9  -5 -16  159.68    4.50
   8  -5 -16    1.10    0.70
  -8   5  16    2.80    0.70
   7  -5 -16   12.50    1.20
  -7   5  16   14.60    1.20
   6  -5 -16    1.40    0.80
   5  -5 -16   40.80    2.10
  -5   5  16   40.80    1.80
   4  -5 -16   87.79    2.50
   4  -5 -16   90.69    3.30
  -4   5  16   87.19    3.00
   3  -5 -16    1.10    0.50
   3  -5 -16    1.30    0.80
  -3   5  16    0.40    0.60
   2  -5 -16   25.60    1.70
   2  -5 -16   26.10    1.20
  -2   5  16   27.60    1.60
   1  -5 -16    4.00    0.90
   1  -5 -16    5.00    0.60
  -1   5  16    3.30    0.80
   0  -5 -16   12.90    1.20
   0  -5 -16   13.60    0.90
   0   5  16   14.60    1.20
  -1  -5 -16    1.40    0.40
   1   5  16    0.20    0.50
  -2  -5 -16  137.69    3.80
   2   5  16  160.18    4.10
   8  -6 -16   25.40    1.40
   7  -6 -16    4.10    0.80
   6  -6 -16   11.30    1.20
   5  -6 -16   52.99    2.30
   4  -6 -16   27.20    1.70
  -4   6  16   26.60    1.40
   3  -6 -16    1.60    0.80
  -3   6  16    2.30    0.60
   2  -6 -16    4.00    0.80
  -2   6  16    3.40    0.70
  -1   6  16    0.80    0.60
   0   6  16    8.10    0.80
   1   6  16   21.80    1.10
   8  -7 -16   17.30    1.10
   7  -7 -16   54.09    2.10
   6  -7 -16    7.80    0.90
   5  -7 -16  326.87    8.60
   4  -7 -16   55.99    2.20
  -4   7  16   52.59    2.00
   3  -7 -16   24.20    1.40
  -3   7  16   24.00    1.30
  -2   7  16   14.00    1.10
  -1   7  16    3.80    0.60
   0   7  16   19.90    1.10
   7  -8 -16   11.70    1.00
   6  -8 -16  227.88    6.00
   5  -8 -16   68.59    2.40
  -4   8  16   27.80    1.30
  -3   8  16   25.30    1.20
  -2   8  16    2.50    0.50
  -1   8  16   11.50    0.80
   2   8 -17   23.50    1.40
   1   8 -17   57.89    2.20
   0   8 -17    7.90    0.90
  -1   8 -17    9.70    0.90
   4   7 -17   18.00    1.20
   4   7 -17   17.40    0.90
   3   7 -17   34.70    1.80
   2   7 -17   85.09    3.00
   1   7 -17   59.79    2.50
   0   7 -17    1.90    0.80
  -1   7 -17  157.68    4.60
   5   6 -17   48.10    1.60
   5   6 -17   47.80    1.90
   4   6 -17  100.39    3.30
   4   6 -17   93.99    2.70
   2   6 -17  108.29    3.70
   1   6 -17   16.70    1.60
   0   6 -17   55.39    2.40
  -1   6 -17   40.30    2.00
   6   5 -17    6.30    0.60
   5   5 -17    1.40    0.70
  -5  -5  17    1.80    0.60
   4   5 -17   14.00    1.00
   4   5 -17   15.90    1.40
   3   5 -17   35.10    2.00
   2   5 -17   60.69    2.70
   1   5 -17   71.79    2.90
   0   5 -17   45.90    2.30
  -1   5 -17    2.90    0.80
  -2   5 -17  195.08    5.50
  -3   5 -17   31.90    1.60
  -4   5 -17   98.89    3.10
   6   4 -17    0.60    0.40
   6   4 -17    1.40    0.90
  -6  -4  17    1.10    0.60
   5   4 -17   74.99    2.40
   5   4 -17   76.19    2.80
  -5  -4  17   76.19    2.70
   4   4 -17   43.60    1.70
   4   4 -17   47.40    2.30
   3   4 -17   -0.50    0.80
   2   4 -17   70.39    3.00
   1   4 -17  133.39    4.50
   0   4 -17  124.09    4.00
   0   4 -17  124.09    4.20
  -1   4 -17    6.80    1.10
  -1   4 -17    6.50    1.00
  -2   4 -17    5.40    0.90
  -2   4 -17    3.90    1.20
  -3   4 -17   62.59    2.40
  -4   4 -17  126.89    3.70
   7   3 -17    2.80    0.50
   6   3 -17   15.90    1.50
   6   3 -17   16.50    1.00
  -6  -3  17   15.10    1.20
   5   3 -17   11.40    0.90
   5   3 -17   15.00    1.40
  -5  -3  17   12.00    1.20
   4   3 -17    0.10    0.50
   4   3 -17    0.30    0.80
   3   3 -17   10.00    1.30
   2   3 -17    8.70    1.30
   1   3 -17  131.89    4.40
   1   3 -17  144.59    4.60
   0   3 -17   22.40    1.70
   0   3 -17   23.50    1.80
  -1   3 -17   12.70    1.30
  -1   3 -17   12.40    1.30
  -2   3 -17   35.00    1.90
  -2   3 -17   32.20    1.70
  -3   3 -17   52.29    2.20
  -4   3 -17    3.10    0.70
   7   2 -17    8.40    0.70
  -7  -2  17    8.70    0.90
   6   2 -17   12.70    0.90
   6   2 -17   11.30    1.50
  -6  -2  17   11.10    1.20
   5   2 -17  124.29    4.10
   5   2 -17  125.69    3.50
  -5  -2  17  120.89    3.90
   4   2 -17   13.00    1.40
   4   2 -17   12.50    1.10
   3   2 -17   22.60    1.80
   3   2 -17   21.10    1.30
   3   2 -17   20.90    1.60
   2   2 -17   19.20    1.60
   2   2 -17   19.60    1.80
   1   2 -17   13.70    1.50
   1   2 -17   11.20    1.30
   0   2 -17    3.20    0.90
   0   2 -17    1.80    0.80
  -1   2 -17   41.40    2.10
  -1   2 -17   40.10    2.10
  -2   2 -17   -0.30    0.70
  -2   2 -17   -0.30    0.60
  -3   2 -17    7.00    0.90
  -4   2 -17   26.00    1.40
   7   1 -17    2.80    0.50
  -7  -1  17    2.80    0.70
   6   1 -17    5.10    0.70
  -6  -1  17    4.00    0.80
   5   1 -17   10.00    1.10
   5   1 -17   11.00    0.90
   5   1 -17   10.40    1.20
   4   1 -17   64.89    2.30
   4   1 -17   70.49    2.90
   4   1 -17   70.19    2.80
   3   1 -17    8.50    1.20
   3   1 -17    6.40    0.80
   3   1 -17    8.00    1.20
   2   1 -17  129.29    4.20
   2   1 -17  122.19    4.30
   2   1 -17  121.39    3.60
   1   1 -17   58.79    2.70
   1   1 -17   61.59    2.80
   0   1 -17    1.10    0.80
   0   1 -17    1.20    0.90
  -1   1 -17  188.48    5.50
  -1   1 -17  180.88    5.40
  -2   1 -17  134.69    4.20
   2  -1  17  132.79    3.90
  -3   1 -17    4.00    0.80
  -3   1 -17    5.40    0.60
  -4   1 -17   51.89    1.70
  -4   1 -17   52.79    2.00
   7   0 -17   18.80    0.90
  -7   0  17   21.70    1.40
   6   0 -17   50.99    1.80
   6   0 -17   49.80    2.10
  -6   0  17   45.60    2.00
   5   0 -17  196.68    5.20
   5   0 -17  198.98    5.70
   5   0 -17  193.78    5.80
   4   0 -17   34.30    1.60
   4   0 -17   37.70    2.00
   4   0 -17   35.00    2.10
   3   0 -17    1.50    0.60
   3   0 -17    1.40    0.80
   3   0 -17    0.40    0.90
   2   0 -17    6.00    0.80
   2   0 -17    6.60    1.20
   2   0 -17    7.50    1.20
   1   0 -17  248.88    6.90
   1   0 -17  236.68    6.90
   1   0 -17  230.98    6.20
   0   0 -17   93.29    3.40
   0   0 -17   91.69    3.30
   0   0 -17   84.89    2.80
  -1   0 -17    9.60    0.80
  -1   0 -17   10.40    1.20
   1   0  17    8.60    1.00
  -2   0 -17    0.40    0.70
  -2   0 -17    0.30    0.40
   2   0  17   -0.10    0.50
  -3   0 -17    3.40    0.50
  -3   0 -17    4.00    0.80
  -4   0 -17   93.09    2.80
  -4   0 -17   89.19    2.50
   7  -1 -17   96.59    2.60
   7  -1 -17   96.09    3.10
  -7   1  17   99.39    3.20
   6  -1 -17    1.60    0.80
   6  -1 -17    4.40    0.60
  -6   1  17    2.70    0.80
   5  -1 -17    2.30    0.90
   5  -1 -17    1.80    0.80
   5  -1 -17    3.30    0.60
   4  -1 -17    5.10    0.70
   4  -1 -17    6.30    1.10
   4  -1 -17    7.40    1.10
   3  -1 -17    6.20    0.80
   3  -1 -17   10.40    1.30
   3  -1 -17    9.00    1.30
   2  -1 -17   69.49    2.40
   2  -1 -17   73.09    3.00
   2  -1 -17   72.49    3.00
   1  -1 -17    4.60    1.00
   1  -1 -17    2.80    0.90
   1  -1 -17    2.60    0.60
   0  -1 -17    3.30    0.60
   0  -1 -17    3.30    0.90
   0   1  17    4.40    0.80
  -1  -1 -17  196.48    5.20
  -1  -1 -17  199.88    5.70
   1   1  17  202.88    5.50
  -2  -1 -17   19.70    1.10
  -2  -1 -17   17.40    1.40
   2   1  17   19.70    1.20
  -3  -1 -17   36.50    1.40
  -3  -1 -17   38.50    1.70
   8  -2 -17    1.40    0.60
   7  -2 -17   47.40    2.00
  -7   2  17   40.50    1.80
   6  -2 -17  112.49    3.70
   6  -2 -17  113.89    3.10
   5  -2 -17    7.00    0.70
   5  -2 -17    6.60    1.00
   5  -2 -17    6.60    1.00
   4  -2 -17  156.88    5.00
   4  -2 -17  161.68    5.00
   4  -2 -17  168.68    4.50
   3  -2 -17  139.39    3.90
   3  -2 -17  140.79    4.50
   3  -2 -17  137.59    4.50
   2  -2 -17   10.70    1.30
   2  -2 -17   13.10    1.10
   2  -2 -17   11.80    1.30
   1  -2 -17   21.30    1.30
   1  -2 -17   26.10    1.80
  -1   2  17   24.00    1.50
   0  -2 -17    4.80    0.70
   0  -2 -17    3.90    0.90
   0   2  17    6.00    0.80
  -1  -2 -17    2.60    0.50
  -1  -2 -17    2.50    0.80
   1   2  17    1.60    0.60
  -2  -2 -17   24.70    1.10
  -2  -2 -17   23.70    1.40
   2   2  17   22.00    1.20
  -3  -2 -17    8.20    0.80
  -3  -2 -17   10.20    0.70
   8  -3 -17   24.40    1.30
   7  -3 -17   36.50    1.70
  -7   3  17   35.80    1.60
   6  -3 -17    7.70    0.70
   6  -3 -17    9.40    1.10
   5  -3 -17    0.90    0.50
   5  -3 -17    1.20    0.80
  -5   3  17    0.10    0.50
   4  -3 -17  215.78    6.00
   4  -3 -17  208.58    5.30
  -4   3  17  192.78    5.60
   3  -3 -17   22.40    1.70
   3  -3 -17   21.20    1.20
  -3   3  17   21.20    1.40
   2  -3 -17   39.00    2.10
   2  -3 -17   36.60    1.50
  -2   3  17   36.90    1.80
   1  -3 -17   30.90    1.80
   1  -3 -17   29.40    1.30
  -1   3  17   29.30    1.60
   0  -3 -17   23.40    1.60
   0  -3 -17   21.70    1.20
   0   3  17   24.40    1.40
  -1  -3 -17  100.39    2.80
  -1  -3 -17   98.29    3.20
   1   3  17  100.19    3.10
  -2  -3 -17  157.88    4.00
  -2  -3 -17  153.38    4.30
   2   3  17  157.78    4.20
   8  -4 -17   68.89    2.40
   7  -4 -17   50.89    2.10
   6  -4 -17   17.30    1.40
   5  -4 -17  193.58    5.50
   5  -4 -17  182.78    4.70
  -5   4  17  187.48    5.10
   4  -4 -17    1.80    0.80
   4  -4 -17    1.50    0.50
  -4   4  17    1.60    0.60
   3  -4 -17    4.10    0.60
   3  -4 -17    4.30    1.00
  -3   4  17    3.90    0.70
   2  -4 -17   17.10    1.50
   2  -4 -17   15.00    1.00
  -2   4  17   17.50    1.30
   1  -4 -17  171.38    4.50
   1  -4 -17  175.18    5.10
  -1   4  17  177.08    4.90
   0  -4 -17    1.40    0.60
   0  -4 -17    2.50    0.50
   0   4  17    1.80    0.60
  -1  -4 -17   12.30    1.00
  -1  -4 -17   12.60    0.70
   1   4  17   11.40    0.90
   7  -5 -17   13.60    1.20
   6  -5 -17   73.69    2.70
   5  -5 -17    0.20    0.70
  -5   5  17    0.80    0.50
   4  -5 -17   11.80    1.20
  -4   5  17    9.50    0.90
   3  -5 -17   36.40    1.20
   3  -5 -17   43.70    2.00
  -3   5  17   37.70    1.70
   2  -5 -17    1.90    0.40
   2  -5 -17    2.10    0.70
  -2   5  17    2.30    0.60
   1  -5 -17    5.10    0.80
   1  -5 -17    4.50    0.50
  -1   5  17    4.90    0.70
   0  -5 -17   15.70    0.70
   0  -5 -17   15.90    1.10
   0   5  17   16.90    1.00
   1   5  17  151.48    4.10
   7  -6 -17    6.80    0.80
   6  -6 -17   49.80    2.00
   5  -6 -17   86.39    2.90
   4  -6 -17    3.50    0.80
  -4   6  17    3.80    0.60
   3  -6 -17    5.60    0.80
  -3   6  17    5.00    0.70
   2  -6 -17   69.89    2.40
  -2   6  17   74.09    2.40
  -1   6  17   12.70    0.90
   0   6  17   24.70    1.10
   6  -7 -17   28.30    1.40
   5  -7 -17   13.70    1.10
   4  -7 -17    2.10    0.60
  -4   7  17    2.30    0.50
  -3   7  17    5.60    0.60
  -2   7  17  247.18    6.30
   1   7 -18    2.20    0.60
   0   7 -18   37.90    1.60
   3   6 -18   70.19    2.50
   2   6 -18   43.10    1.90
   1   6 -18   49.99    2.10
   0   6 -18    3.90    0.70
  -1   6 -18   48.10    1.90
   4   5 -18    2.40    0.70
   4   5 -18    2.00    0.40
   3   5 -18   88.89    3.00
   3   5 -18   85.59    2.60
   2   5 -18   60.89    2.50
   1   5 -18    1.70    0.80
   0   5 -18   40.30    1.90
  -1   5 -18   49.80    2.00
   5   4 -18   42.30    1.50
   5   4 -18   43.10    1.80
   4   4 -18   88.29    2.60
   4   4 -18   94.19    3.10
   3   4 -18   44.70    2.10
   3   4 -18   40.90    1.60
   2   4 -18   38.40    2.00
   1   4 -18   38.70    2.00
   0   4 -18    2.40    0.80
   0   4 -18    3.00    0.70
  -1   4 -18    4.40    0.80
  -1   4 -18    4.30    0.80
  -2   4 -18   48.60    1.90
  -3   4 -18   89.69    3.10
   6   3 -18  103.49    2.80
   5   3 -18   15.90    1.30
   5   3 -18   16.80    0.90
   4   3 -18    8.00    1.00
   4   3 -18    6.10    0.70
   3   3 -18   12.30    0.90
   3   3 -18   12.30    1.20
   2   3 -18   47.30    2.30
   1   3 -18    2.20    0.70
   1   3 -18    2.60    0.90
   0   3 -18   43.70    2.00
   0   3 -18   42.70    2.10
  -1   3 -18    8.80    1.00
  -1   3 -18    7.90    0.90
  -2   3 -18    4.60    0.80
  -3   3 -18   47.60    1.80
   6   2 -18   75.59    2.20
   5   2 -18   43.00    2.00
   5   2 -18   48.00    1.60
   4   2 -18   16.20    1.50
   4   2 -18   15.60    1.00
   3   2 -18    1.70    0.70
   3   2 -18    1.60    0.80
   3   2 -18    1.50    0.50
   2   2 -18   13.60    1.30
   2   2 -18   14.50    1.00
   2   2 -18   13.70    1.30
   1   2 -18    1.30    0.80
   1   2 -18   -0.20    0.60
   0   2 -18   10.00    1.10
   0   2 -18    7.60    1.00
  -1   2 -18   10.60    1.10
  -1   2 -18   11.40    1.10
  -2   2 -18    8.00    0.90
  -3   2 -18    1.20    0.50
   6   1 -18   13.00    0.80
   5   1 -18    2.10    0.50
   5   1 -18    2.30    0.70
   5   1 -18    2.80    0.70
   4   1 -18    6.20    0.90
   4   1 -18    5.10    0.70
   4   1 -18    5.50    1.00
   3   1 -18   15.90    1.10
   3   1 -18   17.90    1.60
   3   1 -18   17.00    1.40
   2   1 -18   36.90    1.60
   2   1 -18   39.50    2.00
   2   1 -18   43.60    2.10
   1   1 -18   49.99    2.20
   1   1 -18   49.50    1.80
   1   1 -18   50.09    2.30
   0   1 -18  100.99    3.40
   0   1 -18  108.49    3.50
   0   1 -18   99.79    3.00
  -1   1 -18   63.29    2.00
  -1   1 -18   63.29    2.40
   1  -1  18   62.29    2.20
  -2   1 -18   20.80    1.00
  -2   1 -18   24.20    1.40
   2  -1  18   21.90    1.20
   6   0 -18  139.29    3.60
   6   0 -18  131.39    3.90
   5   0 -18    0.60    0.40
   5   0 -18   -0.10    0.60
   5   0 -18    0.30    0.60
   4   0 -18    7.60    1.00
   4   0 -18    6.70    0.70
   4   0 -18    7.20    1.00
   3   0 -18   58.69    2.50
   3   0 -18   59.69    2.00
   3   0 -18   58.69    2.50
   2   0 -18   89.19    2.70
   2   0 -18   90.19    3.20
   2   0 -18   86.69    3.20
   1   0 -18    2.50    0.80
   1   0 -18    1.60    0.80
   1   0 -18    1.40    0.50
   0   0 -18   68.09    2.30
   0   0 -18   75.79    2.80
   0   0  18   78.49    2.60
  -1   0 -18   50.69    2.10
  -1   0 -18   53.19    1.80
   1   0  18   53.89    1.90
  -2   0 -18   89.19    2.50
  -2   0 -18   88.89    2.80
   2   0  18   85.09    2.70
   6  -1 -18   25.00    1.00
   6  -1 -18   24.80    1.40
   5  -1 -18   35.60    1.80
   5  -1 -18   38.90    1.40
   5  -1 -18   37.90    1.80
   4  -1 -18   36.80    1.90
   4  -1 -18   39.50    2.00
   4  -1 -18   33.70    1.40
   3  -1 -18    0.70    0.70
   3  -1 -18    1.40    0.50
   3  -1 -18    0.50    0.70
   2  -1 -18    9.80    0.80
   2  -1 -18    8.70    1.10
   2  -1 -18    8.30    1.10
   1  -1 -18    5.10    0.90
   1  -1 -18    2.90    0.60
  -1   1  18    2.60    0.70
   0  -1 -18  356.66    9.00
   0  -1 -18  365.76    9.50
   0   1  18  376.26    9.30
  -1  -1 -18    6.20    0.60
  -1  -1 -18    6.10    0.80
   1   1  18    5.30    0.70
  -2  -1 -18    1.40    0.60
  -2  -1 -18    0.80    0.40
   7  -2 -18   40.20    1.60
   6  -2 -18   72.49    2.30
   6  -2 -18   75.09    2.60
   5  -2 -18   10.70    1.10
   5  -2 -18   11.10    0.80
  -5   2  18   10.90    0.90
   4  -2 -18    4.20    0.90
   4  -2 -18    3.90    0.60
  -4   2  18    4.40    0.70
   3  -2 -18   64.89    2.60
   3  -2 -18   61.99    2.00
  -3   2  18   63.29    2.30
   2  -2 -18   35.80    1.40
   2  -2 -18   40.90    1.90
  -2   2  18   36.40    1.70
   1  -2 -18    1.00    0.50
   1  -2 -18    0.00    0.60
  -1   2  18    0.80    0.50
   0  -2 -18    5.20    0.60
   0  -2 -18    5.30    0.80
   0   2  18    5.20    0.70
  -1  -2 -18   18.40    0.90
  -1  -2 -18   16.10    1.10
   1   2  18   20.50    1.00
   7  -3 -18   29.30    1.40
   6  -3 -18    8.30    0.90
   5  -3 -18   19.50    0.80
   5  -3 -18   24.40    1.50
  -5   3  18   18.60    1.10
   4  -3 -18   10.00    0.70
   4  -3 -18    9.50    1.10
  -4   3  18   11.30    1.00
   3  -3 -18   19.00    1.50
   3  -3 -18   20.10    1.00
  -3   3  18   18.30    1.20
   2  -3 -18    1.50    0.70
   2  -3 -18    1.00    0.40
  -2   3  18    1.60    0.60
   1  -3 -18  149.19    4.30
   1  -3 -18  146.99    3.90
  -1   3  18  145.19    4.10
   0  -3 -18  168.88    4.70
   0  -3 -18  167.98    4.30
   0   3  18  172.08    4.60
  -1  -3 -18   14.20    0.70
   1   3  18   13.80    1.00
   6  -4 -18   15.50    1.20
   5  -4 -18   -0.10    0.60
  -5   4  18    0.20    0.40
   4  -4 -18   11.30    1.10
  -4   4  18    9.60    0.90
   3  -4 -18   71.09    2.50
   3  -4 -18   66.19    1.90
  -3   4  18   66.59    2.20
   2  -4 -18   13.80    0.70
   2  -4 -18   14.80    1.20
  -2   4  18   14.60    1.00
   1  -4 -18    2.20    0.40
   1  -4 -18    2.00    0.60
  -1   4  18    1.90    0.50
   0  -4 -18   10.20    0.60
   0   4  18   11.90    0.80
   6  -5 -18    0.50    0.50
   5  -5 -18   18.50    1.20
   4  -5 -18    1.70    0.60
  -4   5  18    1.70    0.40
   3  -5 -18    7.40    0.80
  -3   5  18    6.40    0.70
   2  -5 -18    7.60    0.80
  -2   5  18    6.80    0.70
   2   4 -19    6.10    0.80
   2   4 -19    4.60    0.60
   1   4 -19   84.19    2.80
   0   4 -19    4.80    0.70
   3   3 -19   38.70    1.70
   3   3 -19   36.60    1.30
   2   3 -19   12.30    0.80
   2   3 -19   11.60    1.10
   1   3 -19   39.70    1.40
   1   3 -19   41.00    1.80
   1   3 -19   37.20    1.60
   0   3 -19    0.40    0.50
   0   3 -19    0.20    0.50
   4   2 -19   17.10    1.20
   4   2 -19   18.20    0.90
   3   2 -19    0.50    0.60
   3   2 -19    0.80    0.40
   2   2 -19    6.60    0.60
   2   2 -19    7.20    0.90
   2   2 -19    7.20    0.80
   1   2 -19   64.89    2.00
   1   2 -19   70.49    2.40
   1   2 -19   68.69    2.40
   0   2 -19    1.90    0.40
   0   2 -19    2.50    0.60
   0   2 -19    1.50    0.60
   5   1 -19   13.50    0.70
   4   1 -19   69.99    2.40
   4   1 -19   78.39    2.20
   4   1 -19   74.09    2.50
   3   1 -19    2.00    0.50
   3   1 -19    1.30    0.60
   3   1 -19    2.50    0.70
   2   1 -19   28.10    1.20
   2   1 -19   31.10    1.60
   2   1 -19   30.60    1.50
   1   1 -19   70.69    2.50
   1   1 -19   71.69    2.50
   1   1 -19   69.99    2.10
   0   1 -19   57.19    2.10
   0   1 -19   55.49    1.80
   0  -1  19   59.39    2.00
   5   0 -19    1.40    0.40
   4   0 -19  304.67    7.40
   4   0 -19  299.27    7.80
   4   0 -19  289.97    7.70
   3   0 -19    6.70    0.90
   3   0 -19    6.20    0.60
   3   0 -19    6.40    0.80
   2   0 -19    8.60    0.90
   2   0 -19    8.30    0.70
   2   0 -19    6.80    0.90
   1   0 -19   31.20    1.60
   1   0 -19   32.70    1.20
  -1   0  19   32.90    1.40
   0   0 -19    5.10    0.50
   0   0 -19    6.40    0.80
   0   0  19    4.90    0.60
   5  -1 -19   16.70    1.10
   5  -1 -19   17.50    0.80
   4  -1 -19    0.50    0.50
   4  -1 -19    0.70    0.40
  -4   1  19    0.90    0.40
   3  -1 -19    1.00    0.40
   3  -1 -19    1.70    0.60
  -3   1  19    0.40    0.50
   2  -1 -19  112.79    3.40
   2  -1 -19  102.49    2.90
  -2   1  19  105.99    3.10
   1  -1 -19   12.40    1.10
   1  -1 -19   12.30    0.80
  -1   1  19   12.90    0.90
   0  -1 -19    0.80    0.50
   0  -1 -19    1.20    0.40
   0   1  19    1.00    0.40
   4  -2 -19   13.60    1.10
   4  -2 -19   13.70    0.70
  -4   2  19   12.80    0.90
   3  -2 -19    0.70    0.60
   3  -2 -19   -0.20    0.30
  -3   2  19   -0.10    0.40
   2  -2 -19   73.99    2.10
   2  -2 -19   75.69    2.50
  -2   2  19   72.09    2.30
   1  -2 -19    1.30    0.40
   1  -2 -19    1.40    0.60
  -1   2  19    1.20    0.40
   4  -3 -19    0.90    0.60
  -4   3  19    0.40    0.50
   3  -3 -19    1.10    0.40
   3  -3 -19    1.40    0.60
  -3   3  19    1.90    0.40
   0   0   0    0.00    0.00
_computing_structure_solution     'SHELXT 2014/5 (Sheldrick, 2014)'
;
_shelx_hkl_checksum              39570
_shelx_res_file
;
    NEWIMIDAZOLE_a.res created by SHELXL-2014/7
TITL NEWIMIDAZOLE_a.res in P-1
CELL  1.54178  11.3475  14.2479  16.4138   92.510   99.529  108.699
ZERR    2.000   0.0002   0.0003   0.0004    0.001    0.001    0.001
LATT 1
SFAC C  H  Cl Mn N
UNIT 104  76  14  2  16
L.S. 25
ACTA
BOND $H
FMAP 2
PLAN 7
MPLA 13 C5 C6 C7 C8 C9 N2 C10 C11 C12 C13 C14 C15 N3
MPLA 13 C5 C4 C3 C2 C1 N1 C20 C19 C18 C17 C16 C15 N4
MPLA 13 C20 C1 C2 C3 C4 N1 C5 C6 C7 C8 C9 C10 N2
MPLA 13 C10 C11 C12 C13 C14 N3 C15 C16 C17 C18 C19 C20 N4
MPLA 4 N1 N2 N3 N4
MPLA 5 N1 N2 N3 N4 MN1
MPLA 3 C39 C20 MN1
MPLA 3 MN1 C10 C27
MPLA 3 MN1 C5 C21
MPLA 3 MN1 C15 C33
MPLA 5 N1 N2 N3 N4 MN1
MPLA 6 C27 C28 C29 C30 C31 C32
MPLA 5 N1 N2 N3 N4 MN1
MPLA 6 C39 C40 C41 C42 C43 C44
MPLA 5 N1 N2 N3 N4 MN1
MPLA 6 C21 C22 C23 C24 C25 C26
MPLA 5 N1 N2 N3 N4 MN1
MPLA 6 C33 C34 C35 C36 C37 C38
MPLA 5 N1 N2 N3 N4 MN1
MPLA 5 N5 C45 N6 C46 C47
MPLA 5 N1 N2 N3 N4 MN1
MPLA 5 N7 C48 N8 C49 C50
MPLA 5 N1 N2 N3 N4 MN1
MPLA 4 N1 N2 N3 N4
SIZE 0.216 0.309 0.429
TEMP -173.100
WGHT    0.054500    3.740600
EXTI    0.000557
FVAR       0.37777
MN1   4    0.616575    0.754030    0.238783    11.00000    0.01314    0.01421 =
         0.01221    0.00284    0.00221    0.00489
CL1   3    0.717348    0.268731    0.207337    11.00000    0.03068    0.01879 =
         0.01717    0.00176    0.00043    0.01159
CL5   3    0.846866    0.319942    0.478940    11.00000    0.03336    0.03330 =
         0.03488    0.00126    0.00447    0.01290
CL7   3    0.817608    0.502489    0.425141    11.00000    0.09496    0.03170 =
         0.03413    0.00310   -0.01493    0.01304
CL6   3    0.998564    0.422423    0.365173    11.00000    0.05090    0.11276 =
         0.03897   -0.01723    0.02026   -0.03251
CL3   3    1.041316    0.879574    0.747179    11.00000    0.07164    0.05415 =
         0.09075    0.02771    0.02266    0.03064
CL2   3    0.852707    0.697279    0.763789    11.00000    0.03574    0.04502 =
         0.13753    0.00069    0.01197    0.01535
CL4   3    1.037800    0.810167    0.908327    11.00000    0.09837    0.14682 =
         0.04817    0.00911    0.01319    0.08893
N2    5    0.499912    0.759195    0.133540    11.00000    0.01594    0.01472 =
         0.01438    0.00170    0.00213    0.00585
N4    5    0.733043    0.751331    0.345778    11.00000    0.01678    0.01728 =
         0.01525    0.00293    0.00292    0.00715
N3    5    0.768849    0.819461    0.187012    11.00000    0.01497    0.01818 =
         0.01436    0.00270    0.00184    0.00585
N7    5    0.628047    0.909455    0.288866    11.00000    0.01852    0.01614 =
         0.01854    0.00156    0.00265    0.00601
N1    5    0.464421    0.688525    0.289892    11.00000    0.01694    0.01621 =
         0.01418    0.00351    0.00278    0.00471
N5    5    0.607710    0.600204    0.186341    11.00000    0.02511    0.01628 =
         0.01903    0.00269    0.00565    0.00866
N6    5    0.643205    0.458143    0.172638    11.00000    0.03929    0.01867 =
         0.03025    0.00995    0.01677    0.01622
AFIX  43
H6    2    0.677799    0.411585    0.182186    11.00000   -1.20000
AFIX   0
N8    5    0.657292    1.069480    0.290421    11.00000    0.03781    0.01470 =
         0.03182    0.00552    0.00892    0.01103
AFIX  43
H8    2    0.659739    1.127226    0.272416    11.00000   -1.20000
AFIX   0
C26   1    0.675102    0.891275   -0.028417    11.00000    0.01286    0.02123 =
         0.01580    0.00397    0.00355    0.00311
C6    1    0.535759    0.798893    0.062543    11.00000    0.01979    0.01360 =
         0.01308    0.00081    0.00252    0.00652
C15   1    0.697033    0.726082    0.420761    11.00000    0.02300    0.01617 =
         0.01438    0.00323    0.00320    0.00913
C3    1    0.369445    0.716538    0.115150    11.00000    0.01641    0.01413 =
         0.01556    0.00054    0.00155    0.00426
C16   1    0.573170    0.688331    0.433524    11.00000    0.02287    0.01458 =
         0.01558    0.00442    0.00421    0.00791
C17   1    0.465785    0.668096    0.371432    11.00000    0.02160    0.01403 =
         0.01803    0.00315    0.00585    0.00673
C1    1    0.339070    0.655375    0.250737    11.00000    0.01769    0.01515 =
         0.01870    0.00213    0.00403    0.00375
C7    1    0.659389    0.845124    0.051217    11.00000    0.01894    0.01673 =
         0.01516    0.00183    0.00414    0.00794
C8    1    0.767218    0.852804    0.109101    11.00000    0.01834    0.01829 =
         0.01693    0.00267    0.00525    0.00669
C12   1    0.863395    0.791516    0.362289    11.00000    0.01714    0.01916 =
         0.01841    0.00094    0.00060    0.00899
C4    1    0.324437    0.729342    0.030971    11.00000    0.01717    0.01968 =
         0.01651   -0.00002   -0.00123    0.00459
AFIX  43
H4    2    0.238719    0.705745    0.002614    11.00000   -1.20000
AFIX   0
C2    1    0.292780    0.667282    0.169027    11.00000    0.01597    0.01605 =
         0.01812    0.00066    0.00154    0.00368
C5    1    0.425838    0.781059   -0.000950    11.00000    0.01882    0.01807 =
         0.01355    0.00201    0.00236    0.00602
AFIX  43
H5    2    0.424362    0.801656   -0.055271    11.00000   -1.20000
AFIX   0
C47   1    0.623165    0.982424    0.243800    11.00000    0.03188    0.02142 =
         0.02265    0.00245    0.00293    0.01240
AFIX  43
H47   2    0.598327    0.974315    0.185035    11.00000   -1.20000
AFIX   0
C20   1    0.152427    0.625480    0.137775    11.00000    0.01813    0.02957 =
         0.01439    0.00308    0.00293    0.00287
C38   1    0.553514    0.675046    0.520926    11.00000    0.01891    0.01948 =
         0.01613    0.00167    0.00247    0.00160
C10   1    0.972783    0.894222    0.167748    11.00000    0.01492    0.03049 =
         0.02231    0.00484    0.00431    0.00621
AFIX  43
H10   2    1.062781    0.918753    0.178051    11.00000   -1.20000
AFIX   0
C11   1    0.894314    0.845676    0.224456    11.00000    0.01608    0.01979 =
         0.01984    0.00330    0.00309    0.00719
C18   1    0.338523    0.620310    0.382903    11.00000    0.02279    0.01949 =
         0.01811    0.00528    0.00678    0.00486
AFIX  43
H18   2    0.313390    0.598797    0.433254    11.00000   -1.20000
AFIX   0
C9    1    0.895057    0.898503    0.097248    11.00000    0.01882    0.02820 =
         0.01915    0.00744    0.00581    0.00594
AFIX  43
H9    2    0.920209    0.926516    0.048820    11.00000   -1.20000
AFIX   0
C44   1    0.678224    0.547717    0.216398    11.00000    0.03118    0.02315 =
         0.02230    0.00705    0.00807    0.01440
AFIX  43
H44   2    0.745477    0.570317    0.263181    11.00000   -1.20000
AFIX   0
C012  1    0.939582    0.833962    0.306060    11.00000    0.01651    0.02053 =
         0.01982    0.00043    0.00141    0.00827
C32   1    1.079936    0.877800    0.338510    11.00000    0.01654    0.02822 =
         0.01466    0.00593    0.00136    0.00726
C39   1    0.588438    0.604074    0.565474    11.00000    0.03047    0.02128 =
         0.01943    0.00209    0.00070    0.00565
AFIX  43
H39   2    0.623065    0.560627    0.539840    11.00000   -1.20000
AFIX   0
C14   1    0.808430    0.750135    0.484396    11.00000    0.02540    0.02527 =
         0.01447    0.00519    0.00215    0.01066
AFIX  43
H14   2    0.810496    0.740318    0.541420    11.00000   -1.20000
AFIX   0
C33   1    1.130861    0.975964    0.374469    11.00000    0.02413    0.02777 =
         0.02652    0.00164    0.00370    0.01074
AFIX  43
H33   2    1.076558    1.014007    0.378516    11.00000   -1.20000
AFIX   0
C13   1    0.909531    0.789169    0.448536    11.00000    0.01917    0.02602 =
         0.01910    0.00295   -0.00172    0.00973
AFIX  43
H13   2    0.995880    0.811171    0.475608    11.00000   -1.20000
AFIX   0
C48   1    0.669048    0.953710    0.369588    11.00000    0.03621    0.02277 =
         0.02003    0.00150    0.00372    0.01025
AFIX  43
H48   2    0.682300    0.920003    0.417132    11.00000   -1.20000
AFIX   0
C27   1    0.655862    0.981909   -0.038065    11.00000    0.02849    0.02392 =
         0.02104    0.00430    0.00892    0.00954
AFIX  43
H27   2    0.637337    1.015784    0.006714    11.00000   -1.20000
AFIX   0
C31   1    0.704116    0.843193   -0.094196    11.00000    0.03000    0.02475 =
         0.02170    0.00394    0.00894    0.01117
AFIX  43
H31   2    0.718899    0.781699   -0.088014    11.00000   -1.20000
AFIX   0
C43   1    0.501616    0.737364    0.559570    11.00000    0.01990    0.02484 =
         0.02102    0.00239    0.00384    0.00506
AFIX  43
H43   2    0.474485    0.784333    0.529144    11.00000   -1.20000
AFIX   0
C25   1    0.082666    0.687594    0.115396    11.00000    0.01932    0.03681 =
         0.02665    0.00102    0.00273    0.00729
AFIX  43
H25   2    0.123869    0.757626    0.120005    11.00000   -1.20000
AFIX   0
C29   1    0.690017    0.974424   -0.178552    11.00000    0.01827    0.03510 =
         0.01908    0.01018    0.00390    0.00387
AFIX  43
H29   2    0.693390    1.002205   -0.230034    11.00000   -1.20000
AFIX   0
C30   1    0.711478    0.885300   -0.169162    11.00000    0.02914    0.03626 =
         0.01802    0.00135    0.00798    0.01012
AFIX  43
H30   2    0.731363    0.852386   -0.213896    11.00000   -1.20000
AFIX   0
C42   1    0.489312    0.731318    0.641976    11.00000    0.02608    0.03415 =
         0.02375   -0.00228    0.00795    0.00500
AFIX  43
H42   2    0.456128    0.775310    0.668276    11.00000   -1.20000
AFIX   0
C35   1    1.339304    0.963596    0.399355    11.00000    0.01794    0.03762 =
         0.02022    0.00824    0.00016    0.00364
AFIX  43
H35   2    1.427701    0.992932    0.420114    11.00000   -1.20000
AFIX   0
C37   1    1.160231    0.822989    0.333587    11.00000    0.02091    0.02837 =
         0.03015    0.00238    0.00182    0.00956
AFIX  43
H37   2    1.126718    0.755823    0.309287    11.00000   -1.20000
AFIX   0
C19   1    0.260871    0.611470    0.308991    11.00000    0.01732    0.02122 =
         0.02107    0.00362    0.00438    0.00273
AFIX  43
H19   2    0.171247    0.581769    0.297596    11.00000   -1.20000
AFIX   0
C46   1    0.523892    0.540517    0.119537    11.00000    0.03443    0.02747 =
         0.03333   -0.00678   -0.00485    0.01541
AFIX  43
H46   2    0.460642    0.558256    0.084476    11.00000   -1.20000
AFIX   0
C41   1    0.525244    0.661464    0.685706    11.00000    0.03251    0.03660 =
         0.01778    0.00163    0.00789   -0.00167
AFIX  43
H41   2    0.517412    0.657771    0.742310    11.00000   -1.20000
AFIX   0
C34   1    1.259318    1.018738    0.404332    11.00000    0.02757    0.02969 =
         0.02394   -0.00092    0.00156    0.00364
AFIX  43
H34   2    1.293009    1.086028    0.428326    11.00000   -1.20000
AFIX   0
C28   1    0.663583    1.023333   -0.112979    11.00000    0.03060    0.02654 =
         0.02740    0.01163    0.00802    0.01075
AFIX  43
H28   2    0.650633    1.085497   -0.119092    11.00000   -1.20000
AFIX   0
C21   1    0.090648    0.523254    0.131196    11.00000    0.02782    0.03100 =
         0.02411    0.00561    0.00030   -0.00162
AFIX  43
H21   2    0.137600    0.480017    0.145895    11.00000   -1.20000
AFIX   0
C40   1    0.572612    0.596768    0.647606    11.00000    0.03924    0.02516 =
         0.02121    0.00814    0.00125    0.00317
AFIX  43
H40   2    0.594436    0.547203    0.677464    11.00000   -1.20000
AFIX   0
C45   1    0.544899    0.452576    0.111118    11.00000    0.03556    0.02187 =
         0.03633   -0.00434    0.00753    0.00971
AFIX  43
H45   2    0.499755    0.397957    0.070272    11.00000   -1.20000
AFIX   0
C36   1    1.290111    0.866037    0.364175    11.00000    0.01895    0.03725 =
         0.03336    0.00816    0.00256    0.01314
AFIX  43
H36   2    1.344686    0.828092    0.360757    11.00000   -1.20000
AFIX   0
C24   1   -0.047729    0.647521    0.086165    11.00000    0.01996    0.06044 =
         0.02965    0.00278    0.00224    0.01307
AFIX  43
H24   2   -0.095239    0.690105    0.070486    11.00000   -1.20000
AFIX   0
C49   1    0.687504    1.052489    0.370682    11.00000    0.03556    0.02194 =
         0.02686   -0.00405    0.00253    0.00770
AFIX  43
H49   2    0.715880    1.100292    0.418064    11.00000   -1.20000
AFIX   0
C23   1   -0.107495    0.545909    0.080086    11.00000    0.01580    0.06865 =
         0.02358    0.00349    0.00201   -0.00422
AFIX  43
H23   2   -0.196218    0.518570    0.059782    11.00000   -1.20000
AFIX   0
C22   1   -0.039606    0.484078    0.103180    11.00000    0.03196    0.04329 =
         0.02686    0.00704   -0.00219   -0.01206
AFIX  43
H22   2   -0.081734    0.414286    0.100016    11.00000   -1.20000
AFIX   0
C50   1    1.009481    0.774121    0.802283    11.00000    0.03632    0.04457 =
         0.05083    0.00672    0.00445    0.02324
AFIX  13
H50   2    1.067553    0.736879    0.791698    11.00000   -1.20000
AFIX   0
C51   1    0.850808    0.394069    0.395823    11.00000    0.04293    0.03899 =
         0.02364   -0.00455    0.00249   -0.00603
AFIX  13
H51   2    0.783516    0.355166    0.347929    11.00000   -1.20000
AFIX   0
HKLF 4
REM  NEWIMIDAZOLE_a.res in P-1
REM R1 =  0.0432 for    7785 Fo > 4sig(Fo)  and  0.0448 for all    8162 data
REM    614 parameters refined using      0 restraints
END
WGHT      0.0546      3.7390
REM Highest difference peak  1.236,  deepest hole -1.025,  1-sigma level  0.064
Q1    1   0.8597  0.6898  0.8283  11.00000  0.05    1.24
Q2    1   0.8921  0.5205  0.4015  11.00000  0.05    1.09
Q3    1   0.9968  0.7369  0.9212  11.00000  0.05    0.99
Q4    1   1.0474  0.8856  0.8090  11.00000  0.05    0.91
Q5    1   0.9578  0.8409  0.7397  11.00000  0.05    0.60
Q6    1   0.9516  0.4670  0.3266  11.00000  0.05    0.53
Q7    1   1.0649  0.3959  0.3544  11.00000  0.05    0.36
;
_shelx_res_checksum              70683
loop_
_space_group_symop_operation_xyz
'x, y, z'
'-x, -y, -z'
loop_
_atom_site_type_symbol
_atom_site_label
_atom_site_fract_x
_atom_site_fract_y
_atom_site_fract_z
_atom_site_U_iso_or_equiv
_atom_site_adp_type
_atom_site_calc_flag
_atom_site_occupancy
Mn Mn1 0.61658(3) 0.75403(3) 0.23878(2) 0.01308(11) Uani d 1
Cl Cl1 0.71735(6) 0.26873(4) 0.20734(4) 0.02189(15) Uani d 1
Cl Cl5 0.84687(7) 0.31994(5) 0.47894(4) 0.03372(17) Uani d 1
Cl Cl7 0.81761(11) 0.50249(6) 0.42514(5) 0.0589(3) Uani d 1
Cl Cl6 0.99856(10) 0.42242(10) 0.36517(6) 0.0815(4) Uani d 1
Cl Cl3 1.04132(11) 0.87957(8) 0.74718(8) 0.0683(3) Uani d 1
Cl Cl2 0.85271(9) 0.69728(7) 0.76379(9) 0.0731(4) Uani d 1
Cl Cl4 1.03780(13) 0.81017(12) 0.90833(7) 0.0862(4) Uani d 1
N N2 0.49991(18) 0.75920(14) 0.13354(12) 0.0149(4) Uani d 1
N N4 0.73304(19) 0.75133(15) 0.34578(12) 0.0160(4) Uani d 1
N N3 0.76885(18) 0.81946(15) 0.18701(12) 0.0158(4) Uani d 1
N N7 0.62805(19) 0.90946(15) 0.28887(13) 0.0178(4) Uani d 1
N N1 0.46442(19) 0.68853(15) 0.28989(12) 0.0159(4) Uani d 1
N N5 0.6077(2) 0.60020(15) 0.18634(13) 0.0195(4) Uani d 1
N N6 0.6432(2) 0.45814(16) 0.17264(14) 0.0263(5) Uani d 1
H H6 0.6778 0.4116 0.1822 0.032 Uiso calc 1
N N8 0.6573(2) 1.06948(16) 0.29042(15) 0.0272(5) Uani d 1
H H8 0.6597 1.1272 0.2724 0.033 Uiso calc 1
C C26 0.6751(2) 0.89127(18) -0.02842(15) 0.0171(5) Uani d 1
C C6 0.5358(2) 0.79889(17) 0.06254(14) 0.0153(5) Uani d 1
C C15 0.6970(2) 0.72608(18) 0.42076(15) 0.0172(5) Uani d 1
C C3 0.3694(2) 0.71654(17) 0.11515(15) 0.0158(5) Uani d 1
C C16 0.5732(2) 0.68833(17) 0.43352(15) 0.0171(5) Uani d 1
C C17 0.4658(2) 0.66810(17) 0.37143(15) 0.0174(5) Uani d 1
C C1 0.3391(2) 0.65538(18) 0.25074(15) 0.0175(5) Uani d 1
C C7 0.6594(2) 0.84512(17) 0.05122(14) 0.0163(5) Uani d 1
C C8 0.7672(2) 0.85280(18) 0.10910(15) 0.0174(5) Uani d 1
C C12 0.8634(2) 0.79152(18) 0.36229(15) 0.0179(5) Uani d 1
C C4 0.3244(2) 0.72934(18) 0.03097(15) 0.0188(5) Uani d 1
H H4 0.2387 0.7057 0.0026 0.023 Uiso calc 1
C C2 0.2928(2) 0.66728(18) 0.16903(15) 0.0174(5) Uani d 1
C C5 0.4258(2) 0.78106(18) -0.00095(15) 0.0169(5) Uani d 1
H H5 0.4244 0.8017 -0.0553 0.020 Uiso calc 1
C C47 0.6232(3) 0.98242(19) 0.24380(17) 0.0247(6) Uani d 1
H H47 0.5983 0.9743 0.1850 0.030 Uiso calc 1
C C20 0.1524(2) 0.6255(2) 0.13778(15) 0.0219(5) Uani d 1
C C38 0.5535(2) 0.67505(19) 0.52093(15) 0.0194(5) Uani d 1
C C10 0.9728(2) 0.8942(2) 0.16775(16) 0.0227(5) Uani d 1
H H10 1.0628 0.9188 0.1781 0.027 Uiso calc 1
C C11 0.8943(2) 0.84568(18) 0.22446(15) 0.0183(5) Uani d 1
C C18 0.3385(2) 0.62031(18) 0.38290(15) 0.0202(5) Uani d 1
H H18 0.3134 0.5988 0.4333 0.024 Uiso calc 1
C C9 0.8951(2) 0.8985(2) 0.09725(16) 0.0221(5) Uani d 1
H H9 0.9202 0.9265 0.0488 0.027 Uiso calc 1
C C44 0.6782(3) 0.54772(19) 0.21640(16) 0.0237(6) Uani d 1
H H44 0.7455 0.5703 0.2632 0.028 Uiso calc 1
C C012 0.9396(2) 0.83396(19) 0.30606(15) 0.0187(5) Uani d 1
C C32 1.0799(2) 0.8778(2) 0.33851(15) 0.0199(5) Uani d 1
C C39 0.5884(3) 0.6041(2) 0.56547(16) 0.0249(6) Uani d 1
H H39 0.6231 0.5606 0.5398 0.030 Uiso calc 1
C C14 0.8084(2) 0.75014(19) 0.48440(15) 0.0213(5) Uani d 1
H H14 0.8105 0.7403 0.5414 0.026 Uiso calc 1
C C33 1.1309(3) 0.9760(2) 0.37447(17) 0.0258(6) Uani d 1
H H33 1.0766 1.0140 0.3785 0.031 Uiso calc 1
C C13 0.9095(2) 0.78917(19) 0.44854(16) 0.0215(5) Uani d 1
H H13 0.9959 0.8112 0.4756 0.026 Uiso calc 1
C C48 0.6690(3) 0.9537(2) 0.36959(17) 0.0264(6) Uani d 1
H H48 0.6823 0.9200 0.4171 0.032 Uiso calc 1
C C27 0.6559(3) 0.9819(2) -0.03807(16) 0.0237(6) Uani d 1
H H27 0.6373 1.0158 0.0067 0.028 Uiso calc 1
C C31 0.7041(3) 0.8432(2) -0.09420(16) 0.0244(6) Uani d 1
H H31 0.7189 0.7817 -0.0880 0.029 Uiso calc 1
C C43 0.5016(2) 0.7374(2) 0.55957(16) 0.0225(5) Uani d 1
H H43 0.4745 0.7843 0.5291 0.027 Uiso calc 1
C C25 0.0827(3) 0.6876(2) 0.11540(17) 0.0284(6) Uani d 1
H H25 0.1239 0.7576 0.1200 0.034 Uiso calc 1
C C29 0.6900(2) 0.9744(2) -0.17855(16) 0.0251(6) Uani d 1
H H29 0.6934 1.0022 -0.2300 0.030 Uiso calc 1
C C30 0.7115(3) 0.8853(2) -0.16916(16) 0.0276(6) Uani d 1
H H30 0.7314 0.8524 -0.2139 0.033 Uiso calc 1
C C42 0.4893(3) 0.7313(2) 0.64198(17) 0.0290(6) Uani d 1
H H42 0.4561 0.7753 0.6683 0.035 Uiso calc 1
C C35 1.3393(3) 0.9636(2) 0.39936(16) 0.0269(6) Uani d 1
H H35 1.4277 0.9929 0.4201 0.032 Uiso calc 1
C C37 1.1602(3) 0.8230(2) 0.33359(17) 0.0265(6) Uani d 1
H H37 1.1267 0.7558 0.3093 0.032 Uiso calc 1
C C19 0.2609(2) 0.61147(19) 0.30899(16) 0.0206(5) Uani d 1
H H19 0.1712 0.5818 0.2976 0.025 Uiso calc 1
C C46 0.5239(3) 0.5405(2) 0.11954(19) 0.0322(7) Uani d 1
H H46 0.4606 0.5583 0.0845 0.039 Uiso calc 1
C C41 0.5252(3) 0.6615(2) 0.68571(17) 0.0318(7) Uani d 1
H H41 0.5174 0.6578 0.7423 0.038 Uiso calc 1
C C34 1.2593(3) 1.0187(2) 0.40433(17) 0.0290(6) Uani d 1
H H34 1.2930 1.0860 0.4283 0.035 Uiso calc 1
C C28 0.6636(3) 1.0233(2) -0.11298(17) 0.0273(6) Uani d 1
H H28 0.6506 1.0855 -0.1191 0.033 Uiso calc 1
C C21 0.0906(3) 0.5233(2) 0.13120(17) 0.0309(6) Uani d 1
H H21 0.1376 0.4800 0.1459 0.037 Uiso calc 1
C C40 0.5726(3) 0.5968(2) 0.64761(17) 0.0307(6) Uani d 1
H H40 0.5944 0.5472 0.6775 0.037 Uiso calc 1
C C45 0.5449(3) 0.4526(2) 0.11112(19) 0.0314(6) Uani d 1
H H45 0.4998 0.3980 0.0703 0.038 Uiso calc 1
C C36 1.2901(3) 0.8660(2) 0.36418(18) 0.0291(6) Uani d 1
H H36 1.3447 0.8281 0.3608 0.035 Uiso calc 1
C C24 -0.0477(3) 0.6475(3) 0.08616(18) 0.0371(7) Uani d 1
H H24 -0.0952 0.6901 0.0705 0.045 Uiso calc 1
C C49 0.6875(3) 1.0525(2) 0.37068(18) 0.0292(6) Uani d 1
H H49 0.7159 1.1003 0.4181 0.035 Uiso calc 1
C C23 -0.1075(3) 0.5459(3) 0.08009(18) 0.0407(8) Uani d 1
H H23 -0.1962 0.5186 0.0598 0.049 Uiso calc 1
C C22 -0.0396(3) 0.4841(3) 0.10318(19) 0.0409(8) Uani d 1
H H22 -0.0817 0.4143 0.1000 0.049 Uiso calc 1
C C50 1.0095(3) 0.7741(3) 0.8023(2) 0.0419(8) Uani d 1
H H50 1.0676 0.7369 0.7917 0.050 Uiso calc 1
C C51 0.8508(3) 0.3941(2) 0.39582(19) 0.0407(8) Uani d 1
H H51 0.7835 0.3552 0.3479 0.049 Uiso calc 1
loop_
_atom_site_aniso_label
_atom_site_aniso_U_11
_atom_site_aniso_U_22
_atom_site_aniso_U_33
_atom_site_aniso_U_12
_atom_site_aniso_U_13
_atom_site_aniso_U_23
Mn1 0.0131(2) 0.0142(2) 0.01221(19) 0.00489(15) 0.00221(14) 0.00284(15)
Cl1 0.0307(3) 0.0188(3) 0.0172(3) 0.0116(2) 0.0004(2) 0.0018(2)
Cl5 0.0334(4) 0.0333(4) 0.0349(4) 0.0129(3) 0.0045(3) 0.0013(3)
Cl7 0.0950(7) 0.0317(4) 0.0341(4) 0.0130(4) -0.0149(4) 0.0031(3)
Cl6 0.0509(6) 0.1128(9) 0.0390(5) -0.0325(6) 0.0203(4) -0.0172(5)
Cl3 0.0716(7) 0.0542(6) 0.0908(8) 0.0306(5) 0.0227(6) 0.0277(6)
Cl2 0.0357(5) 0.0450(5) 0.1375(11) 0.0153(4) 0.0120(6) 0.0007(6)
Cl4 0.0984(9) 0.1468(12) 0.0482(6) 0.0889(9) 0.0132(6) 0.0091(7)
N2 0.0159(10) 0.0147(9) 0.0144(9) 0.0058(8) 0.0021(8) 0.0017(8)
N4 0.0168(10) 0.0173(10) 0.0152(10) 0.0071(8) 0.0029(8) 0.0029(8)
N3 0.0150(10) 0.0182(10) 0.0144(10) 0.0059(8) 0.0018(8) 0.0027(8)
N7 0.0185(10) 0.0161(10) 0.0185(10) 0.0060(8) 0.0026(8) 0.0016(8)
N1 0.0169(10) 0.0162(10) 0.0142(10) 0.0047(8) 0.0028(8) 0.0035(8)
N5 0.0251(11) 0.0163(10) 0.0190(10) 0.0087(9) 0.0056(9) 0.0027(8)
N6 0.0393(14) 0.0187(11) 0.0302(12) 0.0162(10) 0.0168(10) 0.0099(10)
N8 0.0378(14) 0.0147(10) 0.0318(13) 0.0110(10) 0.0089(10) 0.0055(9)
C26 0.0129(11) 0.0212(12) 0.0158(12) 0.0031(10) 0.0036(9) 0.0040(10)
C6 0.0198(12) 0.0136(11) 0.0131(11) 0.0065(10) 0.0025(9) 0.0008(9)
C15 0.0230(13) 0.0162(11) 0.0144(11) 0.0091(10) 0.0032(10) 0.0032(9)
C3 0.0164(12) 0.0141(11) 0.0156(11) 0.0043(10) 0.0016(9) 0.0005(9)
C16 0.0229(13) 0.0146(11) 0.0156(12) 0.0079(10) 0.0042(10) 0.0044(9)
C17 0.0216(13) 0.0140(11) 0.0180(12) 0.0067(10) 0.0059(10) 0.0032(10)
C1 0.0177(12) 0.0152(11) 0.0187(12) 0.0038(10) 0.0040(10) 0.0021(10)
C7 0.0189(12) 0.0167(11) 0.0152(11) 0.0079(10) 0.0041(9) 0.0018(10)
C8 0.0183(12) 0.0183(12) 0.0169(12) 0.0067(10) 0.0053(10) 0.0027(10)
C12 0.0171(12) 0.0192(12) 0.0184(12) 0.0090(10) 0.0006(9) 0.0009(10)
C4 0.0172(12) 0.0197(12) 0.0165(12) 0.0046(10) -0.0012(10) 0.0000(10)
C2 0.0160(12) 0.0160(11) 0.0181(12) 0.0037(10) 0.0015(9) 0.0007(10)
C5 0.0188(12) 0.0181(12) 0.0135(11) 0.0060(10) 0.0024(9) 0.0020(9)
C47 0.0319(15) 0.0214(13) 0.0227(13) 0.0124(12) 0.0029(11) 0.0024(11)
C20 0.0181(13) 0.0296(14) 0.0144(11) 0.0029(11) 0.0029(10) 0.0031(10)
C38 0.0189(12) 0.0195(12) 0.0161(12) 0.0016(10) 0.0025(10) 0.0017(10)
C10 0.0149(12) 0.0305(14) 0.0223(13) 0.0062(11) 0.0043(10) 0.0048(11)
C11 0.0161(12) 0.0198(12) 0.0198(12) 0.0072(10) 0.0031(10) 0.0033(10)
C18 0.0228(13) 0.0195(12) 0.0181(12) 0.0049(10) 0.0068(10) 0.0053(10)
C9 0.0188(13) 0.0282(14) 0.0191(12) 0.0059(11) 0.0058(10) 0.0074(11)
C44 0.0312(15) 0.0231(13) 0.0223(13) 0.0144(12) 0.0081(11) 0.0070(11)
C012 0.0165(12) 0.0205(12) 0.0198(12) 0.0083(10) 0.0014(10) 0.0004(10)
C32 0.0165(12) 0.0282(13) 0.0147(11) 0.0073(11) 0.0014(9) 0.0059(10)
C39 0.0305(15) 0.0213(13) 0.0194(13) 0.0057(11) 0.0007(11) 0.0021(11)
C14 0.0254(14) 0.0253(13) 0.0145(11) 0.0107(11) 0.0022(10) 0.0052(10)
C33 0.0241(14) 0.0278(14) 0.0265(14) 0.0107(12) 0.0037(11) 0.0016(12)
C13 0.0192(13) 0.0260(13) 0.0191(12) 0.0097(11) -0.0017(10) 0.0030(11)
C48 0.0362(16) 0.0228(13) 0.0200(13) 0.0102(12) 0.0037(11) 0.0015(11)
C27 0.0285(14) 0.0239(13) 0.0210(13) 0.0095(11) 0.0089(11) 0.0043(11)
C31 0.0300(14) 0.0248(13) 0.0217(13) 0.0112(12) 0.0089(11) 0.0039(11)
C43 0.0199(13) 0.0248(13) 0.0210(13) 0.0051(11) 0.0038(10) 0.0024(11)
C25 0.0193(13) 0.0368(16) 0.0267(14) 0.0073(12) 0.0027(11) 0.0010(12)
C29 0.0183(13) 0.0351(15) 0.0191(12) 0.0039(11) 0.0039(10) 0.0102(11)
C30 0.0291(15) 0.0363(15) 0.0180(13) 0.0101(13) 0.0080(11) 0.0013(12)
C42 0.0261(14) 0.0341(15) 0.0238(14) 0.0050(12) 0.0080(11) -0.0023(12)
C35 0.0179(13) 0.0376(16) 0.0202(13) 0.0036(12) 0.0002(10) 0.0082(12)
C37 0.0209(13) 0.0284(14) 0.0301(14) 0.0096(12) 0.0018(11) 0.0024(12)
C19 0.0173(12) 0.0212(12) 0.0211(12) 0.0027(10) 0.0044(10) 0.0036(10)
C46 0.0344(16) 0.0275(15) 0.0333(15) 0.0154(13) -0.0048(12) -0.0068(12)
C41 0.0325(16) 0.0366(16) 0.0178(13) -0.0017(13) 0.0079(11) 0.0016(12)
C34 0.0276(15) 0.0297(15) 0.0239(14) 0.0036(12) 0.0016(11) -0.0009(12)
C28 0.0306(15) 0.0265(14) 0.0274(14) 0.0108(12) 0.0080(11) 0.0116(12)
C21 0.0278(15) 0.0310(15) 0.0241(14) -0.0016(12) 0.0003(12) 0.0056(12)
C40 0.0392(17) 0.0252(14) 0.0212(13) 0.0032(13) 0.0012(12) 0.0081(11)
C45 0.0356(16) 0.0219(14) 0.0363(16) 0.0097(12) 0.0075(13) -0.0043(12)
C36 0.0189(13) 0.0373(16) 0.0334(15) 0.0131(12) 0.0026(11) 0.0082(13)
C24 0.0200(14) 0.060(2) 0.0296(15) 0.0131(14) 0.0022(12) 0.0028(15)
C49 0.0356(16) 0.0219(13) 0.0269(14) 0.0077(12) 0.0025(12) -0.0041(11)
C23 0.0158(14) 0.069(2) 0.0236(14) -0.0042(15) 0.0020(11) 0.0035(15)
C22 0.0320(17) 0.0433(18) 0.0269(15) -0.0121(15) -0.0022(13) 0.0070(14)
C50 0.0363(18) 0.0446(19) 0.051(2) 0.0232(15) 0.0044(15) 0.0067(16)
C51 0.0429(19) 0.0390(17) 0.0236(14) -0.0060(15) 0.0025(13) -0.0046(13)
loop_
_atom_type_symbol
_atom_type_description
_atom_type_scat_dispersion_real
_atom_type_scat_dispersion_imag
_atom_type_scat_source
C C 0.0181 0.0091 'International Tables Vol C Tables 4.2.6.8 and 6.1.1.4'
Cl Cl 0.3639 0.7018 'International Tables Vol C Tables 4.2.6.8 and 6.1.1.4'
H H 0.0000 0.0000 'International Tables Vol C Tables 4.2.6.8 and 6.1.1.4'
Mn Mn -0.5299 2.8052 'International Tables Vol C Tables 4.2.6.8 and 6.1.1.4'
N N 0.0311 0.0180 'International Tables Vol C Tables 4.2.6.8 and 6.1.1.4'
loop_
_geom_angle_atom_site_label_1
_geom_angle_atom_site_label_2
_geom_angle_atom_site_label_3
_geom_angle
N2 Mn1 N1 89.59(8)
N2 Mn1 N3 90.21(8)
N1 Mn1 N3 179.75(9)
N2 Mn1 N4 178.75(8)
N1 Mn1 N4 90.10(8)
N3 Mn1 N4 90.11(8)
N2 Mn1 N7 91.37(8)
N1 Mn1 N7 92.09(8)
N3 Mn1 N7 88.05(8)
N4 Mn1 N7 87.43(8)
N2 Mn1 N5 88.13(8)
N1 Mn1 N5 89.17(8)
N3 Mn1 N5 90.69(8)
N4 Mn1 N5 93.08(8)
N7 Mn1 N5 178.65(7)
C6 N2 C3 106.27(19)
C6 N2 Mn1 126.44(16)
C3 N2 Mn1 127.08(16)
C12 N4 C15 106.4(2)
C12 N4 Mn1 126.27(16)
C15 N4 Mn1 126.29(16)
C11 N3 C8 106.43(19)
C11 N3 Mn1 126.75(16)
C8 N3 Mn1 126.69(16)
C47 N7 C48 104.9(2)
C47 N7 Mn1 125.51(17)
C48 N7 Mn1 128.14(17)
C1 N1 C17 106.45(19)
C1 N1 Mn1 127.05(16)
C17 N1 Mn1 126.50(16)
C44 N5 C46 105.1(2)
C44 N5 Mn1 127.14(18)
C46 N5 Mn1 127.67(18)
C44 N6 C45 107.5(2)
C44 N6 H6 126.3
C45 N6 H6 126.3
C47 N8 C49 107.4(2)
C47 N8 H8 126.3
C49 N8 H8 126.3
C27 C26 C31 119.2(2)
C27 C26 C7 119.5(2)
C31 C26 C7 121.3(2)
N2 C6 C7 126.3(2)
N2 C6 C5 109.6(2)
C7 C6 C5 124.0(2)
N4 C15 C16 125.8(2)
N4 C15 C14 109.0(2)
C16 C15 C14 125.2(2)
N2 C3 C2 125.9(2)
N2 C3 C4 109.2(2)
C2 C3 C4 124.9(2)
C15 C16 C17 124.5(2)
C15 C16 C38 117.7(2)
C17 C16 C38 117.6(2)
N1 C17 C16 126.1(2)
N1 C17 C18 109.4(2)
C16 C17 C18 124.5(2)
N1 C1 C2 126.1(2)
N1 C1 C19 109.3(2)
C2 C1 C19 124.5(2)
C8 C7 C6 124.4(2)
C8 C7 C26 118.7(2)
C6 C7 C26 116.9(2)
N3 C8 C7 125.8(2)
N3 C8 C9 109.4(2)
C7 C8 C9 124.8(2)
N4 C12 C012 126.1(2)
N4 C12 C13 109.3(2)
C012 C12 C13 124.4(2)
C5 C4 C3 107.8(2)
C5 C4 H4 126.1
C3 C4 H4 126.1
C1 C2 C3 123.8(2)
C1 C2 C20 117.9(2)
C3 C2 C20 118.3(2)
C4 C5 C6 107.1(2)
C4 C5 H5 126.4
C6 C5 H5 126.4
N7 C47 N8 111.9(2)
N7 C47 H47 124.0
N8 C47 H47 124.0
C25 C20 C21 119.2(3)
C25 C20 C2 120.9(2)
C21 C20 C2 119.9(3)
C39 C38 C43 119.0(2)
C39 C38 C16 122.0(2)
C43 C38 C16 119.0(2)
C9 C10 C11 107.5(2)
C9 C10 H10 126.3
C11 C10 H10 126.3
N3 C11 C012 125.9(2)
N3 C11 C10 109.4(2)
C012 C11 C10 124.6(2)
C19 C18 C17 107.5(2)
C19 C18 H18 126.3
C17 C18 H18 126.3
C10 C9 C8 107.3(2)
C10 C9 H9 126.4
C8 C9 H9 126.4
N5 C44 N6 111.5(2)
N5 C44 H44 124.3
N6 C44 H44 124.3
C11 C012 C12 124.7(2)
C11 C012 C32 117.9(2)
C12 C012 C32 117.2(2)
C37 C32 C33 119.0(2)
C37 C32 C012 121.8(2)
C33 C32 C012 119.3(2)
C38 C39 C40 120.0(3)
C38 C39 H39 120.0
C40 C39 H39 120.0
C13 C14 C15 107.5(2)
C13 C14 H14 126.2
C15 C14 H14 126.2
C34 C33 C32 120.8(3)
C34 C33 H33 119.6
C32 C33 H33 119.6
C14 C13 C12 107.7(2)
C14 C13 H13 126.2
C12 C13 H13 126.2
C49 C48 N7 109.6(2)
C49 C48 H48 125.2
N7 C48 H48 125.2
C26 C27 C28 120.3(2)
C26 C27 H27 119.8
C28 C27 H27 119.8
C26 C31 C30 120.0(2)
C26 C31 H31 120.0
C30 C31 H31 120.0
C42 C43 C38 120.6(3)
C42 C43 H43 119.7
C38 C43 H43 119.7
C20 C25 C24 120.2(3)
C20 C25 H25 119.9
C24 C25 H25 119.9
C30 C29 C28 119.9(2)
C30 C29 H29 120.0
C28 C29 H29 120.0
C29 C30 C31 120.3(2)
C29 C30 H30 119.9
C31 C30 H30 119.9
C41 C42 C43 119.9(3)
C41 C42 H42 120.0
C43 C42 H42 120.0
C36 C35 C34 119.8(3)
C36 C35 H35 120.1
C34 C35 H35 120.1
C32 C37 C36 120.3(3)
C32 C37 H37 119.8
C36 C37 H37 119.8
C18 C19 C1 107.3(2)
C18 C19 H19 126.3
C1 C19 H19 126.3
C45 C46 N5 109.8(3)
C45 C46 H46 125.1
N5 C46 H46 125.1
C42 C41 C40 120.3(3)
C42 C41 H41 119.9
C40 C41 H41 119.9
C33 C34 C35 120.1(3)
C33 C34 H34 120.0
C35 C34 H34 120.0
C29 C28 C27 120.3(3)
C29 C28 H28 119.9
C27 C28 H28 119.9
C20 C21 C22 120.2(3)
C20 C21 H21 119.9
C22 C21 H21 119.9
C41 C40 C39 120.1(3)
C41 C40 H40 119.9
C39 C40 H40 119.9
C46 C45 N6 106.2(2)
C46 C45 H45 126.9
N6 C45 H45 126.9
C35 C36 C37 120.1(3)
C35 C36 H36 120.0
C37 C36 H36 120.0
C23 C24 C25 119.8(3)
C23 C24 H24 120.1
C25 C24 H24 120.1
C48 C49 N8 106.2(2)
C48 C49 H49 126.9
N8 C49 H49 126.9
C22 C23 C24 120.4(3)
C22 C23 H23 119.8
C24 C23 H23 119.8
C23 C22 C21 120.2(3)
C23 C22 H22 119.9
C21 C22 H22 119.9
Cl4 C50 Cl2 112.8(2)
Cl4 C50 Cl3 110.1(2)
Cl2 C50 Cl3 108.20(18)
Cl4 C50 H50 108.5
Cl2 C50 H50 108.5
Cl3 C50 H50 108.5
Cl6 C51 Cl5 109.7(2)
Cl6 C51 Cl7 112.12(18)
Cl5 C51 Cl7 109.62(17)
Cl6 C51 H51 108.4
Cl5 C51 H51 108.4
Cl7 C51 H51 108.4
loop_
_geom_bond_atom_site_label_1
_geom_bond_atom_site_label_2
_geom_bond_distance
Mn1 N2 2.015(2)
Mn1 N1 2.018(2)
Mn1 N3 2.025(2)
Mn1 N4 2.025(2)
Mn1 N7 2.284(2)
Mn1 N5 2.285(2)
Cl5 C51 1.759(3)
Cl7 C51 1.769(4)
Cl6 C51 1.758(3)
Cl3 C50 1.756(4)
Cl2 C50 1.755(4)
Cl4 C50 1.740(4)
N2 C6 1.382(3)
N2 C3 1.383(3)
N4 C12 1.378(3)
N4 C15 1.386(3)
N3 C11 1.376(3)
N3 C8 1.383(3)
N7 C47 1.312(3)
N7 C48 1.380(3)
N1 C1 1.378(3)
N1 C17 1.381(3)
N5 C44 1.315(3)
N5 C46 1.373(4)
N6 C44 1.343(3)
N6 C45 1.354(4)
N6 H6 0.8800
N8 C47 1.336(3)
N8 C49 1.358(4)
N8 H8 0.8800
C26 C27 1.388(4)
C26 C31 1.393(4)
C26 C7 1.500(3)
C6 C7 1.393(3)
C6 C5 1.432(3)
C15 C16 1.390(4)
C15 C14 1.435(3)
C3 C2 1.396(3)
C3 C4 1.432(3)
C16 C17 1.394(4)
C16 C38 1.499(3)
C17 C18 1.434(4)
C1 C2 1.395(4)
C1 C19 1.439(3)
C7 C8 1.390(3)
C8 C9 1.437(4)
C12 C012 1.394(4)
C12 C13 1.432(3)
C4 C5 1.353(4)
C4 H4 0.9500
C2 C20 1.500(3)
C5 H5 0.9500
C47 H47 0.9500
C20 C25 1.388(4)
C20 C21 1.390(4)
C38 C39 1.393(4)
C38 C43 1.395(4)
C10 C9 1.350(4)
C10 C11 1.440(4)
C10 H10 0.9500
C11 C012 1.390(4)
C18 C19 1.351(4)
C18 H18 0.9500
C9 H9 0.9500
C44 H44 0.9500
C012 C32 1.504(3)
C32 C37 1.386(4)
C32 C33 1.391(4)
C39 C40 1.393(4)
C39 H39 0.9500
C14 C13 1.347(4)
C14 H14 0.9500
C33 C34 1.380(4)
C33 H33 0.9500
C13 H13 0.9500
C48 C49 1.354(4)
C48 H48 0.9500
C27 C28 1.391(4)
C27 H27 0.9500
C31 C30 1.396(4)
C31 H31 0.9500
C43 C42 1.386(4)
C43 H43 0.9500
C25 C24 1.395(4)
C25 H25 0.9500
C29 C30 1.378(4)
C29 C28 1.382(4)
C29 H29 0.9500
C30 H30 0.9500
C42 C41 1.378(4)
C42 H42 0.9500
C35 C36 1.379(4)
C35 C34 1.387(4)
C35 H35 0.9500
C37 C36 1.396(4)
C37 H37 0.9500
C19 H19 0.9500
C46 C45 1.354(4)
C46 H46 0.9500
C41 C40 1.381(4)
C41 H41 0.9500
C34 H34 0.9500
C28 H28 0.9500
C21 C22 1.390(4)
C21 H21 0.9500
C40 H40 0.9500
C45 H45 0.9500
C36 H36 0.9500
C24 C23 1.379(5)
C24 H24 0.9500
C49 H49 0.9500
C23 C22 1.371(5)
C23 H23 0.9500
C22 H22 0.9500
C50 H50 1.0000
C51 H51 1.0000

_cod_database_fobs_code 2021485
