#------------------------------------------------------------------------------
#$Date: 2019-02-14 05:35:50 +0200 (Thu, 14 Feb 2019) $
#$Revision: 213637 $
#$URL: file:///home/coder/svn-repositories/cod/cif/2/02/14/2021488.cif $
#------------------------------------------------------------------------------
#
# This file is available in the Crystallography Open Database (COD),
# http://www.crystallography.net/. The original data for this entry
# were provided by IUCr Journals, http://journals.iucr.org/.
#
# The file may be used within the scientific community so long as
# proper attribution is given to the journal article from which the
# data were obtained.
#
data_2021488
loop_
_publ_author_name
'Lahanas, Nicole'
'Kucheryavy, Pavel'
'Lalancette, Roger A.'
'Lockard, Jenny V.'
_publ_section_title
;
 Crystallographic identification of a series of manganese porphyrin
 complexes with nitrogenous bases
;
_journal_coeditor_code           JX3027
_journal_issue                   3
_journal_name_full               'Acta Crystallographica Section C'
_journal_page_first
;
;
_journal_paper_doi               10.1107/S2053229619001232
_journal_volume                  75
_journal_year                    2019
_chemical_formula_iupac
'[Mn (C44 H28 N4) (C6 H12 N2)] Cl, C6 H12 N2, C7 H8, 0.25H2 O'
_chemical_formula_moiety
'C50 H40 Cl Mn N6 +, Cl -, C6 H12 N2, C7 H8, 0.25(O)'
_chemical_formula_sum            'C63 H60 Cl Mn N8 O0.25'
_chemical_formula_weight         1023.58
_chemical_name_systematic
;
(1,4-Diazabicyclo[2.2.2]octane)(5,10,15,20-tetraphenylporphyrin)manganese(III)
chloride--1,4-diazabicyclo[2.2.2]octane--toluene--water (4/4/4/1)
;
_space_group_crystal_system      triclinic
_space_group_IT_number           2
_space_group_name_Hall           '-P 1'
_space_group_name_H-M_alt        'P -1'
_symmetry_space_group_name_Hall  '-P 1'
_symmetry_space_group_name_H-M   'P -1'
_atom_sites_solution_hydrogens   geom
_atom_sites_solution_primary     direct
_atom_sites_solution_secondary   difmap
_audit_creation_method           SHELXL-2014/7
_cell_angle_alpha                95.7740(10)
_cell_angle_beta                 92.1990(10)
_cell_angle_gamma                113.6300(10)
_cell_formula_units_Z            2
_cell_length_a                   11.4402(2)
_cell_length_b                   13.4019(3)
_cell_length_c                   18.6407(4)
_cell_measurement_reflns_used    9495
_cell_measurement_temperature    100(2)
_cell_measurement_theta_max      68.56
_cell_measurement_theta_min      2.39
_cell_volume                     2595.35(9)
_computing_cell_refinement
;
APEX2 (Bruker, 2006)
;
_computing_data_collection
;
APEX2 (Bruker, 2006)
;
_computing_data_reduction
;
SAINT (Bruker, 2005)
;
_computing_molecular_graphics
;
SHELXTL (Sheldrick, 2008)
;
_computing_publication_material
;
SHELXTL (Sheldrick, 2008)
;
_computing_structure_refinement
;
SHELXL2014 (Sheldrick, 2015b)
;
_computing_structure_solution
;
SHELXT2014 (Sheldrick, 2015a)
;
_diffrn_ambient_temperature      100(2)
_diffrn_measured_fraction_theta_full 0.929
_diffrn_measured_fraction_theta_max 0.929
_diffrn_measurement_device_type  'Bruker SMART CCD APEXII area-detector'
_diffrn_measurement_method       '\f and \w'
_diffrn_radiation_monochromator  graphite
_diffrn_radiation_source         'fine-focus sealed tube'
_diffrn_radiation_type           CuK\a
_diffrn_radiation_wavelength     1.54178
_diffrn_reflns_av_R_equivalents  0.0375
_diffrn_reflns_av_unetI/netI     0.0493
_diffrn_reflns_limit_h_max       13
_diffrn_reflns_limit_h_min       -13
_diffrn_reflns_limit_k_max       15
_diffrn_reflns_limit_k_min       -15
_diffrn_reflns_limit_l_max       22
_diffrn_reflns_limit_l_min       -22
_diffrn_reflns_number            24215
_diffrn_reflns_theta_full        66.660
_diffrn_reflns_theta_max         66.660
_diffrn_reflns_theta_min         2.391
_exptl_absorpt_coefficient_mu    2.946
_exptl_absorpt_correction_T_max  0.737
_exptl_absorpt_correction_T_min  0.540
_exptl_absorpt_correction_type   numerical
_exptl_absorpt_process_details
;
(SADABS; Krause <i>et al.</i>,  2015)
;
_exptl_crystal_colour            black
_exptl_crystal_density_diffrn    1.310
_exptl_crystal_description       block
_exptl_crystal_F_000             1076
_exptl_crystal_size_max          0.239
_exptl_crystal_size_mid          0.223
_exptl_crystal_size_min          0.175
_refine_diff_density_max         1.300
_refine_diff_density_min         -0.680
_refine_ls_extinction_method     none
_refine_ls_goodness_of_fit_ref   1.068
_refine_ls_hydrogen_treatment    constr
_refine_ls_matrix_type           full
_refine_ls_number_parameters     668
_refine_ls_number_reflns         8538
_refine_ls_number_restraints     12
_refine_ls_restrained_S_all      1.077
_refine_ls_R_factor_all          0.0834
_refine_ls_R_factor_gt           0.0641
_refine_ls_shift/su_max          0.001
_refine_ls_shift/su_mean         0.000
_refine_ls_structure_factor_coef Fsqd
_refine_ls_weighting_details
'w=1/[\s^2^(Fo^2^)+(0.0887P)^2^+3.2657P] where P=(Fo^2^+2Fc^2^)/3'
_refine_ls_weighting_scheme      calc
_refine_ls_wR_factor_gt          0.1668
_refine_ls_wR_factor_ref         0.1795
_reflns_number_gt                6596
_reflns_number_total             8538
_reflns_threshold_expression     'I > 2\s(I)'
_cod_data_source_file            jx3027sup1.cif
_cod_data_source_block           IV_DABCO
_cod_database_code               2021488
_shelx_space_group_comment
;
The symmetry employed for this shelxl refinement is uniquely defined
by the following loop, which should always be used as a source of
symmetry information in preference to the above space-group names.
They are only intended as comments.
;
_shelx_estimated_absorpt_t_min   0.539
_shelx_estimated_absorpt_t_max   0.627
_shelx_hkl_file
;
  -1   0   0  937.61   32.30
  -1   0   0  893.01   32.30
  -1   0   0  917.71   32.30
  -1   0   0  859.51   32.30
   1   0   0  909.41   32.30
   1   0   0  924.01   32.30
   1   0   0  875.21   32.30
   1   0   0  945.31   32.20
  -2   0   0   59.29    2.20
  -2   0   0   53.89    2.20
  -2   0   0   50.59    2.20
  -2   0   0   54.49    2.10
   2   0   0   58.69    2.10
   2   0   0   56.19    2.20
  -3   0   0   26.30    1.30
  -3   0   0   23.70    1.20
  -3   0   0   24.90    1.20
  -3   0   0   24.00    1.20
   3   0   0   24.90    1.30
   3   0   0   27.10    1.20
  -4   0   0   37.80    1.80
  -4   0   0   34.10    1.70
  -4   0   0   33.00    1.70
   4   0   0   34.80    1.70
  -5   0   0  210.28    8.10
  -5   0   0  206.88    8.10
  -5   0   0  211.08    7.90
   5   0   0  216.08    8.10
  -6   0   0   12.30    1.30
  -6   0   0   14.30    1.40
  -6   0   0   11.60    1.10
   6   0   0   10.40    1.20
  -7   0   0    0.10    0.70
  -7   0   0    0.70    0.70
  -7   0   0    0.60    0.80
   7   0   0    0.10    0.60
  -8   0   0   15.50    2.40
  -8   0   0   13.80    1.80
  -8   0   0   17.10    1.70
  -8   0   0   13.20    1.70
  -8   0   0   12.10    2.20
  -9   0   0  169.48    8.60
  -9   0   0  177.08    7.80
  -9   0   0  178.58    7.50
  -9   0   0  174.58    8.80
 -10   0   0   70.79    5.40
 -10   0   0   67.79    4.20
 -10   0   0   73.89    5.30
 -10   0   0   71.89    4.00
 -11   0   0    0.80    1.30
 -11   0   0    4.70    2.00
 -11   0   0    0.60    1.70
 -12   0   0   -0.10    1.00
 -12   0   0    0.00    1.40
 -12   0   0   -2.20    1.30
 -12   1   0    2.20    1.20
 -12   1   0    1.60    1.60
 -12   1   0    0.60    1.60
 -11   1   0   28.00    2.70
 -11   1   0   23.90    3.30
 -11   1   0   25.10    3.20
 -10   1   0    0.80    1.90
 -10   1   0    0.10    1.30
 -10   1   0    0.80    1.80
 -10   1   0    2.20    1.40
  -9   1   0    2.80    1.70
  -9   1   0   -0.30    1.10
  -9   1   0    1.80    1.80
  -9   1   0   -1.00    1.00
  -8   1   0   12.20    1.60
  -8   1   0   12.20    1.50
  -8   1   0    9.00    1.50
  -8   1   0   11.00    2.10
  -8   1   0   14.80    2.20
   7  -1   0    0.80    0.60
  -7   1   0    0.30    0.70
  -7   1   0    2.10    0.80
  -7   1   0    0.40    0.70
   6  -1   0   18.00    1.30
  -6   1   0   19.30    1.50
  -6   1   0   19.40    1.60
  -6   1   0   16.70    1.30
   5  -1   0    6.90    0.80
  -5   1   0    7.20    0.70
  -5   1   0    5.90    0.80
  -5   1   0    8.80    0.90
  -5   1   0    6.00    0.80
   4  -1   0   23.60    1.30
  -4   1   0   26.30    1.40
  -4   1   0   22.80    1.40
  -4   1   0   24.20    1.30
   3  -1   0   44.20    1.90
   3  -1   0   44.70    1.80
  -3   1   0   47.90    1.90
  -3   1   0   41.60    1.90
  -3   1   0   46.20    2.00
   2  -1   0    4.50    0.40
   2  -1   0    5.60    0.40
   2  -1   0    4.30    0.40
  -2   1   0    4.00    0.40
  -2   1   0    4.80    0.50
  -2   1   0    5.50    0.40
  -2   1   0    4.90    0.40
  -2   1   0    5.50    0.50
   1  -1   0   35.40    1.30
   1  -1   0   32.80    1.50
   1  -1   0   34.20    1.40
  -1   1   0   35.40    1.30
  -1   1   0   34.70    1.30
  -1   1   0   37.70    1.40
  -1   1   0   34.00    1.40
   0  -1   0   44.00    1.80
   0  -1   0   44.20    1.80
   0  -1   0   53.69    1.80
   0   1   0   46.30    1.80
   0   1   0   53.39    2.00
   0   1   0   46.50    1.80
  -1  -1   0   26.50    1.10
  -1  -1   0   27.30    1.20
  -1  -1   0   26.70    1.00
  -1  -1   0   26.50    1.10
  -1  -1   0   25.00    1.10
   1   1   0   26.10    1.10
   1   1   0   26.50    1.30
  -2  -1   0   74.49    2.90
  -2  -1   0   73.49    2.90
  -2  -1   0   72.29    2.90
  -2  -1   0   73.09    2.80
   2   1   0   76.09    2.70
   2   1   0   75.09    2.90
   2   1   0   76.19    3.00
  -3  -1   0   50.49    2.10
  -3  -1   0   50.79    2.20
  -3  -1   0   50.59    2.10
  -3  -1   0   53.49    2.20
   3   1   0   52.09    2.20
   3   1   0   54.59    2.10
   3   1   0   47.30    2.20
  -4  -1   0   34.50    1.70
  -4  -1   0   35.40    1.80
   4   1   0   32.80    1.80
  -5  -1   0   90.09    3.70
  -5  -1   0   91.99    4.00
  -5  -1   0   92.19    4.00
   5   1   0   93.79    4.00
  -6  -1   0   37.90    2.00
  -6  -1   0   38.60    2.30
  -6  -1   0   39.30    2.30
   6   1   0   37.10    2.20
  -7  -1   0    7.90    1.10
  -7  -1   0    5.50    1.60
  -7  -1   0    7.30    1.20
   7   1   0    6.20    1.10
  -8  -1   0    0.80    1.10
  -8  -1   0   -0.30    1.20
  -8  -1   0    1.80    1.70
  -8  -1   0    0.70    1.00
  -9  -1   0   15.30    2.90
  -9  -1   0   14.20    2.00
  -9  -1   0   14.10    1.80
  -9  -1   0   18.80    2.90
 -10  -1   0   23.40    3.10
 -10  -1   0   27.60    2.80
 -10  -1   0   25.20    2.50
 -10  -1   0   21.20    3.40
 -11  -1   0    4.70    1.30
 -11  -1   0    2.20    1.70
 -11  -1   0    4.40    1.80
 -12  -1   0    7.40    1.50
  13  -2   0    0.10    0.60
 -13   2   0   -0.90    0.80
 -12   2   0   16.20    2.50
 -12   2   0   17.20    2.60
 -12   2   0   15.10    1.90
 -11   2   0   13.40    2.70
 -11   2   0   11.90    2.50
 -11   2   0    9.40    1.70
 -11   2   0   12.40    2.00
 -10   2   0   23.30    2.30
 -10   2   0   22.70    2.50
 -10   2   0   17.20    2.80
 -10   2   0   15.90    2.70
  -9   2   0    1.50    1.30
  -9   2   0    1.90    1.20
  -9   2   0    2.00    1.70
  -9   2   0    2.70    1.70
  -8   2   0    6.30    1.80
  -8   2   0    4.70    1.10
  -8   2   0    4.90    1.20
   7  -2   0    9.80    1.00
  -7   2   0    9.20    1.20
  -7   2   0    9.70    1.10
   6  -2   0   32.30    1.80
  -6   2   0   30.50    2.00
  -6   2   0   29.90    1.80
  -6   2   0   33.20    1.90
  -6   2   0   31.70    2.00
   5  -2   0  284.67   10.70
  -5   2   0  293.77   10.80
  -5   2   0  297.67   10.90
  -5   2   0  272.57   10.90
  -5   2   0  289.67   10.60
   4  -2   0   38.40    1.80
  -4   2   0   40.60    1.90
  -4   2   0   38.00    2.00
  -4   2   0   40.80    1.90
   3  -2   0  238.48    8.90
   3  -2   0  241.88    8.90
  -3   2   0  241.68    9.00
  -3   2   0  242.28    8.90
  -3   2   0  245.68    9.20
  -3   2   0  255.67    9.10
   2  -2   0  803.32   29.50
   2  -2   0  835.92   29.60
  -2   2   0  839.32   29.50
  -2   2   0  845.82   29.70
  -2   2   0  796.22   29.60
  -2   2   0  834.02   29.50
  -2   2   0  838.72   29.80
   1  -2   0  271.17   10.00
   1  -2   0  279.97   10.00
  -1   2   0  277.57   10.10
  -1   2   0  277.97   10.00
  -1   2   0  273.97   10.40
  -1   2   0  290.67   10.10
   0  -2   0   27.70    1.20
   0  -2   0   28.10    1.30
   0  -2   0   28.70    1.20
   0   2   0   28.90    1.50
   0   2   0   29.40    1.20
  -1  -2   0   16.90    0.80
  -1  -2   0   15.70    1.00
  -1  -2   0   17.80    0.80
  -1  -2   0   17.00    0.80
   1   2   0   20.10    0.80
   1   2   0   18.60    1.20
  -2  -2   0  231.08    8.60
  -2  -2   0  239.38    8.70
  -2  -2   0  239.68    8.70
   2   2   0  235.08    8.60
   2   2   0  243.68    8.80
   2   2   0  236.38    9.10
  -3  -2   0  330.67   12.20
  -3  -2   0  335.17   12.20
  -3  -2   0  329.47   12.20
   3   2   0  333.07   12.30
   3   2   0  335.77   12.60
  -4  -2   0   56.69    2.60
  -4  -2   0   56.79    2.60
   4   2   0   57.39    2.70
  -5  -2   0    6.50    0.90
  -5  -2   0    6.70    0.70
  -5  -2   0    6.40    0.90
   5   2   0    5.70    0.90
  -6  -2   0   34.40    2.00
  -6  -2   0   33.00    2.20
  -6  -2   0   36.30    2.30
   6   2   0   34.90    2.30
  -7  -2   0   34.30    2.20
  -7  -2   0   31.60    3.10
  -7  -2   0   30.90    3.20
  -7  -2   0   30.60    2.40
   7   2   0   27.30    2.20
  -8  -2   0   -0.10    1.20
  -8  -2   0   -0.30    1.40
  -8  -2   0    2.20    1.10
  -8  -2   0    2.90    1.90
  -9  -2   0   75.89    5.40
  -9  -2   0   78.59    4.50
  -9  -2   0   82.79    4.20
  -9  -2   0   76.29    5.70
 -10  -2   0    0.80    1.70
 -10  -2   0   -0.40    1.80
 -10  -2   0    1.10    1.30
 -11  -2   0   43.00    3.50
 -11  -2   0   41.30    3.60
  13  -3   0    4.00    0.90
 -13   3   0    4.20    1.20
  12  -3   0   15.50    1.80
 -12   3   0   13.20    2.00
 -12   3   0   16.60    2.50
 -11   3   0   -0.30    1.60
 -11   3   0   -0.30    1.80
 -11   3   0    0.50    1.40
 -10   3   0    1.60    1.80
 -10   3   0    4.60    1.40
 -10   3   0    0.30    1.50
 -10   3   0    1.50    1.30
  -9   3   0   19.20    2.00
  -9   3   0   18.50    2.60
  -9   3   0   18.10    2.10
  -9   3   0   22.00    2.90
  -8   3   0    2.00    0.90
  -8   3   0    0.20    0.80
  -8   3   0    1.10    0.80
  -8   3   0    1.60    1.40
   7  -3   0    0.80    0.60
  -7   3   0   -0.30    0.60
  -7   3   0   -0.20    0.60
  -7   3   0   -0.70    0.60
   6  -3   0   17.70    1.20
  -6   3   0   14.60    1.40
  -6   3   0   16.20    1.30
  -6   3   0   14.70    1.30
  -6   3   0   14.10    1.50
   5  -3   0    0.90    0.40
  -5   3   0    0.90    0.50
  -5   3   0    1.30    0.60
  -5   3   0    0.70    0.50
  -5   3   0    0.70    0.50
   4  -3   0  179.68    7.10
   4  -3   0  187.58    7.10
  -4   3   0  184.58    7.10
  -4   3   0  198.18    7.10
  -4   3   0  187.58    7.30
  -4   3   0  198.18    7.50
   3  -3   0    3.20    0.40
   3  -3   0    3.30    0.40
  -3   3   0    3.50    0.40
  -3   3   0    2.90    0.60
  -3   3   0    3.60    0.70
  -3   3   0    3.20    0.40
  -3   3   0    4.20    0.60
   2  -3   0   79.29    3.00
   2  -3   0   73.09    3.00
  -2   3   0   73.09    2.90
  -2   3   0   76.69    2.90
  -2   3   0   77.19    3.00
  -2   3   0   74.29    3.20
  -2   3   0   75.89    3.40
   1  -3   0   69.89    2.70
   1  -3   0   68.29    2.70
   1  -3   0   64.99    2.70
  -1   3   0   73.59    3.30
  -1   3   0   74.09    2.80
  -1   3   0   63.99    2.50
  -1   3   0   70.39    2.70
   0  -3   0   93.89    3.70
   0  -3   0   94.09    3.60
   0  -3   0   92.99    3.60
   0   3   0   94.59    4.20
   0   3   0   94.99    3.60
  -1  -3   0  417.66   15.00
  -1  -3   0  393.76   14.70
  -1  -3   0  395.66   14.80
  -1  -3   0  422.96   14.80
   1   3   0  416.06   14.70
   1   3   0  416.66   14.80
   1   3   0  406.66   15.40
  -2  -3   0   57.39    2.50
  -2  -3   0   58.49    2.40
  -2  -3   0   62.49    2.80
  -2  -3   0   61.59    2.50
   2   3   0   57.89    2.30
   2   3   0   59.19    2.30
   2   3   0   62.29    3.10
  -3  -3   0   13.30    1.00
  -3  -3   0   10.70    0.90
   3   3   0   13.00    1.10
   3   3   0   12.70    1.40
  -4  -3   0   54.79    3.10
  -4  -3   0   62.89    2.80
  -4  -3   0   52.89    2.30
   4   3   0   62.39    2.90
  -5  -3   0   30.10    1.60
  -5  -3   0   30.60    2.00
   5   3   0   31.00    2.10
  -6  -3   0  102.59    4.30
  -6  -3   0   98.09    5.40
   6   3   0  103.29    4.80
  -7  -3   0    3.30    1.60
  -7  -3   0    2.50    1.10
  -7  -3   0    3.10    1.60
  -8  -3   0   32.60    2.50
  -8  -3   0   28.70    3.50
  -8  -3   0   23.00    3.50
  -9  -3   0   26.30    2.40
  -9  -3   0   28.80    3.60
  -9  -3   0   31.20    3.60
 -10  -3   0   10.60    2.50
 -10  -3   0   13.50    2.50
 -11  -3   0    9.70    2.20
 -11  -3   0   10.30    1.70
  13  -4   0    1.80    0.90
 -13   4   0    1.60    1.00
  12  -4   0   20.50    2.10
 -12   4   0   16.30    2.10
 -11   4   0   62.59    3.90
 -11   4   0   62.29    4.80
 -10   4   0    9.80    2.30
 -10   4   0    8.20    2.30
 -10   4   0    5.90    1.60
  -9   4   0   11.60    1.70
  -9   4   0   13.10    2.20
  -9   4   0   12.50    1.70
  -8   4   0   11.50    1.40
  -8   4   0   12.80    1.50
  -7   4   0   69.69    3.80
  -7   4   0   64.49    3.60
  -7   4   0   70.89    3.40
  -7   4   0   70.49    3.30
   6  -4   0   21.70    1.40
  -6   4   0   22.40    1.80
  -6   4   0   22.90    1.60
  -6   4   0   24.70    2.00
  -6   4   0   21.60    1.50
   5  -4   0   13.30    1.00
  -5   4   0   13.50    1.10
  -5   4   0   16.60    1.60
  -5   4   0   13.80    1.30
  -5   4   0   11.80    1.10
   4  -4   0    0.80    0.30
   4  -4   0    0.90    0.30
  -4   4   0    0.00    0.60
  -4   4   0    0.30    0.80
  -4   4   0    1.10    0.40
  -4   4   0    0.40    0.40
  -4   4   0    1.20    0.40
   3  -4   0  103.99    3.90
   3  -4   0  100.79    4.00
  -3   4   0  101.39    4.60
  -3   4   0   94.59    3.80
  -3   4   0  105.89    4.10
  -3   4   0   97.19    4.30
  -3   4   0   98.29    3.90
   2  -4   0  313.67   11.20
   2  -4   0  309.47   11.20
  -2   4   0  322.37   12.00
  -2   4   0  289.87   11.30
  -2   4   0  294.37   11.00
  -2   4   0  310.47   11.40
   1  -4   0  142.49    5.70
   1  -4   0  156.48    5.70
   1  -4   0  143.59    5.70
  -1   4   0  152.58    5.80
  -1   4   0  156.38    6.50
   0  -4   0  306.47   11.80
   0  -4   0  333.77   11.70
   0  -4   0  327.07   11.90
   0   4   0  304.77   11.60
   0   4   0  333.47   12.60
   0   4   0  325.07   11.80
  -1  -4   0    1.10    0.50
  -1  -4   0    1.10    0.30
   1   4   0    1.30    0.30
   1   4   0    1.30    0.70
  -2  -4   0  184.08    7.10
  -2  -4   0  189.98    7.50
   2   4   0  189.38    8.00
  -3  -4   0   14.40    1.20
   3   4   0   14.50    1.30
  -4  -4   0   28.50    1.80
  -4  -4   0   29.40    1.40
   4   4   0   30.20    2.00
  -5  -4   0   59.19    3.80
  -5  -4   0   59.39    2.70
  -5  -4   0   55.89    3.00
   5   4   0   62.09    3.30
  -6  -4   0    1.50    1.30
  -6  -4   0    2.40    0.90
  -6  -4   0    1.10    1.30
   6   4   0    0.30    0.80
  -7  -4   0    3.00    1.10
  -7  -4   0    3.40    1.70
  -7  -4   0    2.20    1.60
  -8  -4   0    9.00    1.60
  -8  -4   0   13.50    2.80
  -8  -4   0   13.10    2.70
  -9  -4   0    1.50    2.00
  -9  -4   0    1.40    1.70
 -10  -4   0    1.40    1.40
 -10  -4   0    0.30    1.50
  13  -5   0    0.70    0.70
 -13   5   0    0.10    1.00
  12  -5   0    3.40    1.30
 -12   5   0    2.00    1.20
  11  -5   0   12.00    1.80
 -11   5   0   10.00    1.70
  10  -5   0    1.80    1.10
 -10   5   0    1.50    1.30
  -9   5   0    1.20    1.10
  -9   5   0    2.90    1.60
  -9   5   0    3.10    1.40
  -9   5   0    4.70    1.10
  -8   5   0    0.30    0.80
  -8   5   0    2.00    0.90
  -8   5   0    4.70    1.10
  -7   5   0   35.60    2.80
  -7   5   0   39.30    2.30
   6  -5   0  226.88    8.80
  -6   5   0  233.68    8.90
  -6   5   0  246.98    9.50
  -6   5   0  219.68    8.80
   5  -5   0   75.29    3.10
  -5   5   0   70.19    3.20
  -5   5   0   74.79    3.80
   4  -5   0   96.69    3.80
   4  -5   0   94.79    3.90
  -4   5   0   92.19    3.70
  -4   5   0   88.99    4.30
  -4   5   0   92.09    3.80
   3  -5   0    0.40    0.40
   3  -5   0    0.70    0.30
  -3   5   0    0.20    0.70
  -3   5   0    0.80    0.30
  -3   5   0    0.60    0.60
  -3   5   0    0.70    0.40
   2  -5   0   40.00    1.90
   2  -5   0   43.90    1.90
  -2   5   0   38.60    2.60
  -2   5   0   33.40    2.00
   1  -5   0  390.06   14.60
   1  -5   0  383.56   14.80
  -1   5   0  417.06   14.80
  -1   5   0  415.86   15.80
   0  -5   0    1.40    0.50
   0  -5   0    1.50    0.40
   0   5   0    1.90    0.40
   0   5   0    2.30    0.90
  -1  -5   0    7.30    1.00
  -1  -5   0    5.80    0.70
   1   5   0    7.40    1.40
  -2  -5   0   12.50    1.40
  -2  -5   0    9.70    0.70
  -2  -5   0   10.40    1.00
   2   5   0   10.80    1.70
  -3  -5   0   21.40    1.20
  -3  -5   0   20.50    1.50
   3   5   0   23.50    1.70
  -4  -5   0    8.10    1.10
  -4  -5   0   11.20    1.00
   4   5   0   10.40    1.40
  -5  -5   0    3.20    0.90
  -5  -5   0    3.70    1.40
  -5  -5   0    3.10    1.50
   5   5   0    0.10    0.80
  -6  -5   0    0.00    1.40
  -6  -5   0    0.70    1.10
  -6  -5   0    1.00    1.40
  -7  -5   0    5.00    2.00
  -7  -5   0    5.10    1.90
  -7  -5   0    6.60    1.40
  -8  -5   0   45.20    4.10
  -8  -5   0   42.20    4.10
  -8  -5   0   36.10    2.70
  -9  -5   0    3.40    1.80
  -9  -5   0    0.70    1.60
 -10  -5   0   -1.20    1.00
  13  -6   0    4.70    1.10
 -13   6   0    4.20    1.10
  12  -6   0   12.60    1.70
 -12   6   0   11.90    1.70
  11  -6   0   17.30    2.00
 -11   6   0   17.20    2.10
  10  -6   0    1.60    1.10
 -10   6   0    2.50    1.30
 -10   6   0    1.60    1.50
   9  -6   0   19.10    2.00
  -9   6   0   17.40    2.40
  -9   6   0   18.80    2.00
  -8   6   0  159.38    6.60
  -8   6   0  147.49    7.10
  -7   6   0   98.19    4.50
  -7   6   0  106.59    5.20
   6  -6   0   74.99    3.50
  -6   6   0   81.69    3.60
  -6   6   0   86.39    4.30
   5  -6   0   22.00    1.40
  -5   6   0   21.60    1.30
  -5   6   0   18.30    2.00
   4  -6   0  100.99    4.10
   4  -6   0   96.79    4.00
   4  -6   0   97.79    4.20
  -4   6   0  107.99    4.90
  -4   6   0   96.19    5.60
  -4   6   0  104.99    4.10
  -4   6   0   96.79    3.90
   3  -6   0  102.19    4.30
   3  -6   0   97.59    4.00
   3  -6   0  104.79    4.20
  -3   6   0  101.59    4.70
  -3   6   0  102.09    4.20
  -3   6   0  107.69    5.50
   2  -6   0  242.58    9.00
   2  -6   0  242.58    9.20
   2  -6   0  244.18    9.30
  -2   6   0  238.08    9.50
  -2   6   0  250.97   10.50
   1  -6   0    4.00    0.70
   1  -6   0    4.20    0.50
   1  -6   0    4.40    0.70
  -1   6   0    4.60    1.30
  -1   6   0    6.60    0.90
   0  -6   0   26.90    1.60
   0  -6   0   27.30    1.30
   0  -6   0   28.80    1.80
   0   6   0   29.40    1.60
   0   6   0   32.50    2.70
  -1  -6   0    1.50    0.50
  -1  -6   0    1.80    0.40
  -1  -6   0    1.30    0.70
   1   6   0    1.90    1.00
  -2  -6   0    9.40    0.80
  -2  -6   0    8.10    1.00
   2   6   0   11.80    1.30
   2   6   0    8.90    1.90
  -3  -6   0    4.40    0.90
  -3  -6   0    6.30    0.70
   3   6   0    5.50    1.10
  -4  -6   0   13.10    2.10
  -4  -6   0   13.60    1.30
  -4  -6   0   12.50    2.00
   4   6   0   15.20    1.80
  -5  -6   0    0.50    1.40
  -5  -6   0    2.50    1.00
  -5  -6   0   -0.60    1.30
  -6  -6   0    3.20    1.70
  -6  -6   0    4.60    2.00
  -6  -6   0    4.40    1.30
  -7  -6   0    6.90    2.10
  -7  -6   0    5.20    2.10
  -7  -6   0    7.90    1.50
  -8  -6   0   -0.40    1.70
  -8  -6   0   -0.30    1.60
  -9  -6   0    7.20    1.80
  -9  -6   0    7.10    1.70
  13  -7   0    1.90    0.90
  12  -7   0    3.60    1.20
 -12   7   0    4.80    1.30
  11  -7   0   19.10    2.10
 -11   7   0   14.60    2.60
  10  -7   0    1.30    1.10
 -10   7   0    2.20    1.60
   9  -7   0   20.10    2.00
  -9   7   0   17.40    2.40
   8  -7   0    1.10    0.80
  -8   7   0    2.60    1.40
  -8   7   0    0.90    0.80
  -7   7   0   32.50    2.10
  -7   7   0   35.60    2.80
   6  -7   0   15.70    1.60
  -6   7   0   19.30    2.30
   5  -7   0    1.10    0.50
  -5   7   0   -3.10    1.50
  -5   7   0    0.00    1.00
   4  -7   0  106.99    4.50
   4  -7   0  112.29    4.70
   4  -7   0  111.19    4.30
  -4   7   0  105.79    4.50
  -4   7   0  104.29    6.30
  -4   7   0  106.09    5.20
   3  -7   0  110.69    4.30
   3  -7   0  106.19    4.60
   3  -7   0  106.59    4.60
  -3   7   0  110.99    6.10
  -3   7   0  107.39    4.40
  -3   7   0  104.99    5.00
   2  -7   0   49.80    2.60
   2  -7   0   51.79    2.50
   2  -7   0   47.00    2.20
  -2   7   0   55.29    4.00
  -2   7   0   51.49    2.80
   1  -7   0  136.89    5.20
   1  -7   0  131.69    5.70
   1  -7   0  135.89    5.50
  -1   7   0  137.09    7.10
  -1   7   0  133.39    5.70
   0  -7   0   31.60    1.90
   0  -7   0   32.50    2.20
   0  -7   0   30.70    1.60
   0   7   0   32.70    3.20
  -1  -7   0    0.20    0.70
  -1  -7   0    0.70    0.50
  -1  -7   0    1.40    0.60
   1   7   0    1.00    1.20
  -2  -7   0   88.79    4.10
  -2  -7   0   91.29    3.70
   2   7   0   88.59    4.30
  -3  -7   0  291.27   12.30
  -3  -7   0  291.37   11.00
  -3  -7   0  290.17   12.10
   3   7   0  303.97   11.80
  -4  -7   0  108.29    6.10
  -4  -7   0  107.09    5.90
  -4  -7   0  113.39    4.70
  -5  -7   0   25.00    3.00
  -5  -7   0   22.80    3.00
  -5  -7   0   23.40    2.40
  -6  -7   0    1.10    1.60
  -6  -7   0    0.60    1.30
  -6  -7   0   -1.00    1.40
  -7  -7   0   27.70    3.20
  -7  -7   0   18.10    2.80
  -8  -7   0   11.80    2.00
  -8  -7   0   14.20    2.20
  13  -8   0    3.90    0.90
  12  -8   0   13.30    1.60
 -12   8   0   11.90    2.10
  11  -8   0    0.80    1.00
 -11   8   0   -0.40    1.50
  10  -8   0    2.60    1.10
 -10   8   0    1.30    1.70
   9  -8   0   23.00    2.20
  -9   8   0   23.00    2.80
   8  -8   0    2.20    1.00
  -8   8   0    4.40    1.60
  -7   8   0   25.70    2.60
  -6   8   0    5.90    1.40
   5  -8   0    1.10    0.60
  -5   8   0   -5.40    1.70
  -5   8   0    1.00    1.10
   4  -8   0   26.10    1.70
   4  -8   0   22.50    1.70
   4  -8   0   24.40    1.50
  -4   8   0   23.90    1.60
  -4   8   0   23.40    2.30
  -4   8   0   15.10    3.10
   3  -8   0    3.60    0.80
   3  -8   0    3.30    0.80
   3  -8   0    3.50    0.70
  -3   8   0    5.30    1.20
  -3   8   0    2.00    1.70
  -3   8   0    2.80    0.60
   2  -8   0    6.10    1.00
   2  -8   0    7.50    1.00
   2  -8   0    7.10    0.90
  -2   8   0    6.00    2.00
  -2   8   0    5.30    1.10
   1  -8   0   36.30    1.90
   1  -8   0   37.20    2.20
   1  -8   0   33.90    2.30
  -1   8   0   33.90    3.80
   0  -8   0    2.60    0.60
   0  -8   0    1.90    0.70
   0  -8   0    2.10    0.90
   0   8   0    2.00    1.50
  -1  -8   0    7.00    0.90
  -1  -8   0    6.40    1.30
  -2  -8   0   -0.10    0.70
  -2  -8   0    1.00    1.30
   2   8   0   -0.70    0.80
  -3  -8   0    0.40    0.90
  -3  -8   0    1.40    1.40
  -3  -8   0    2.50    1.90
  -4  -8   0   14.90    1.60
  -4  -8   0   15.70    2.40
  -5  -8   0    0.40    1.40
  -5  -8   0    0.10    1.30
  -5  -8   0    1.30    1.70
  -6  -8   0    1.60    1.60
  -6  -8   0   -0.30    1.50
  -7  -8   0   -0.40    1.30
  -7  -8   0   -0.90    1.30
  13  -9   0    0.50    0.70
  12  -9   0    2.20    1.00
 -12   9   0   -0.60    1.30
  11  -9   0   18.50    2.10
 -11   9   0   15.10    2.50
  10  -9   0   41.20    2.90
 -10   9   0   35.60    3.70
   9  -9   0   42.20    2.80
  -9   9   0   31.70    3.60
   8  -9   0   91.69    4.60
  -8   9   0   93.99    5.50
   7  -9   0   52.29    2.80
   7  -9   0   53.09    3.20
  -7   9   0   58.49    3.90
   6  -9   0   55.89    3.30
  -6   9   0   60.99    3.80
   5  -9   0  181.38    7.40
  -5   9   0  177.38    7.90
   4  -9   0   64.89    3.00
   4  -9   0   60.09    3.20
  -4   9   0   65.79    3.90
   3  -9   0   26.70    1.90
   3  -9   0   27.60    2.00
   3  -9   0   26.00    1.70
  -3   9   0   25.50    2.30
  -3   9   0   25.10    1.70
   2  -9   0   36.60    2.00
   2  -9   0   32.60    2.20
   2  -9   0   33.50    2.40
   1  -9   0   33.70    2.00
   1  -9   0   33.60    2.50
   0  -9   0   11.60    1.20
   0  -9   0   12.60    1.70
   0  -9   0    7.60    3.10
   0  -9   0   12.00    1.80
  -1  -9   0   16.80    1.40
  -1  -9   0   13.80    2.20
  -1  -9   0    6.90    3.30
   1   9   0   14.20    1.80
  -2  -9   0   63.29    4.30
  -2  -9   0   55.99    3.10
  -3  -9   0  129.89    5.60
  -3  -9   0  125.89    6.80
  -4  -9   0   61.09    4.60
  -4  -9   0   64.29    3.60
  -5  -9   0   28.80    3.30
  -6  -9   0   19.70    2.50
  -7  -9   0   10.70    1.50
  13 -10   0    1.70    0.80
  12 -10   0    5.40    1.20
 -12  10   0    5.90    1.70
  11 -10   0    1.50    1.10
 -11  10   0    1.00    1.60
  10 -10   0    0.90    1.10
 -10  10   0   -1.20    1.40
   9 -10   0    2.90    1.20
  -9  10   0    0.80    1.70
   8 -10   0    1.40    1.10
  -8  10   0    1.00    1.80
   7 -10   0   53.39    3.40
   7 -10   0   52.69    3.00
  -7  10   0   51.49    4.00
   6 -10   0    0.40    0.90
   6 -10   0    1.50    1.10
  -6  10   0    2.70    1.20
   5 -10   0    1.30    1.20
   5 -10   0    3.10    1.20
  -5  10   0    3.00    1.20
   4 -10   0   -4.60    3.00
   4 -10   0    0.80    1.00
   4 -10   0    0.80    0.70
   4 -10   0   -0.90    0.70
   3 -10   0    0.10    0.90
   3 -10   0   -2.80    2.30
   3 -10   0    0.50    0.70
   3 -10   0    0.80    0.80
   2 -10   0    0.80    0.90
   2 -10   0   -0.90    2.50
   2 -10   0    2.40    1.00
   2 -10   0    1.30    1.10
   1 -10   0    3.00    2.90
   1 -10   0    7.20    1.10
   1 -10   0    6.60    1.70
   1 -10   0    6.70    1.60
   0 -10   0    0.40    3.00
   0 -10   0    0.70    1.00
   0 -10   0    0.40    1.20
  -1 -10   0   15.80    2.50
  -1 -10   0   15.60    4.30
  -1 -10   0   17.20    1.70
  -2 -10   0   10.80    1.50
  -2 -10   0    9.00    2.00
  -3 -10   0    1.60    1.30
  -3 -10   0    0.20    1.50
  -4 -10   0    5.80    1.80
  -5 -10   0   10.30    2.00
  -6 -10   0    0.10    1.00
  12 -11   0    1.80    0.90
 -12  11   0    1.30    1.30
  11 -11   0   10.70    1.60
 -11  11   0    8.50    2.00
  10 -11   0    5.30    1.40
 -10  11   0    4.50    1.80
   9 -11   0   31.60    2.70
  -9  11   0   32.10    3.50
   8 -11   0   46.30    3.30
  -8  11   0   43.50    4.00
   7 -11   0    1.40    1.00
   7 -11   0    1.60    1.10
  -7  11   0    7.70    1.90
   6 -11   0   17.10    2.10
   6 -11   0   17.30    2.00
  -6  11   0   28.00    2.80
   5 -11   0    4.20    1.40
   5 -11   0    2.30    1.20
   5 -11   0   -2.90    3.90
   4 -11   0    0.40    1.30
   4 -11   0    2.40    0.90
   4 -11   0    0.70    1.10
   4 -11   0   -3.10    3.60
   3 -11   0   36.70    7.70
   3 -11   0   43.10    3.30
   3 -11   0   46.20    2.70
   2 -11   0    1.40    1.00
   2 -11   0    1.50    1.30
   2 -11   0    1.30    3.10
   1 -11   0   15.60    2.30
   1 -11   0   14.40    4.40
   1 -11   0   12.90    1.60
   0 -11   0    4.60    1.30
   0 -11   0    5.00    3.60
   0 -11   0    5.20    1.80
  -1 -11   0   -0.80    1.20
  -1 -11   0    3.20    3.70
  -1 -11   0    1.30    1.40
  -2 -11   0    7.10    1.40
  -2 -11   0    6.90    1.90
  -3 -11   0    2.90    1.60
  -4 -11   0    0.20    1.30
  -5 -11   0    7.60    1.40
  12 -12   0   14.60    1.50
 -12  12   0    9.50    1.70
  11 -12   0    2.70    1.00
 -11  12   0    2.20    1.40
  10 -12   0   26.70    2.40
 -10  12   0   24.60    2.90
   9 -12   0   14.70    1.90
  -9  12   0    8.70    2.00
   8 -12   0    7.00    1.60
  -8  12   0    8.10    2.00
   7 -12   0    1.00    1.00
   7 -12   0    1.70    1.30
  -7  12   0    7.70    1.80
   6 -12   0   22.10    5.30
   6 -12   0   24.40    2.60
   6 -12   0   23.80    2.60
   5 -12   0   31.30    2.90
   5 -12   0   30.90    2.80
   5 -12   0   34.60    6.60
   4 -12   0   42.30    8.70
   4 -12   0   50.09    3.50
   4 -12   0   53.29    3.00
   4 -12   0   52.69    3.70
   3 -12   0   29.90    3.00
   3 -12   0   28.50    5.80
   3 -12   0   31.00    2.50
   3 -12   0   24.30    3.00
   2 -12   0   14.40    2.20
   2 -12   0   14.60    1.70
   2 -12   0   11.30    4.50
   1 -12   0   14.10    4.50
   1 -12   0   13.90    2.30
   1 -12   0   13.80    1.70
   0 -12   0    8.10    2.00
   0 -12   0    9.70    4.30
   0 -12   0    8.10    1.50
  -1 -12   0   21.10    2.70
  -1 -12   0   36.80    7.50
  -2 -12   0   24.70    2.80
  -3 -12   0    0.80    1.30
  11 -13   0    0.10    0.80
 -11  13   0   -0.50    1.00
  10 -13   0    4.00    1.20
 -10  13   0    3.10    1.40
   9 -13   0   48.70    3.20
  -9  13   0   50.49    3.70
   8 -13   0   24.70    2.50
   7 -13   0   -0.10    0.90
   7 -13   0    1.50    1.20
   6 -13   0    0.00    1.10
   6 -13   0   -0.20    1.20
   6 -13   0   -1.50    2.40
   5 -13   0   11.50    2.00
   5 -13   0    5.50    3.90
   5 -13   0    9.10    1.80
   4 -13   0   81.89    4.60
   4 -13   0   66.89    9.30
   4 -13   0   81.39    4.50
   3 -13   0   25.40    2.90
   3 -13   0   26.50    5.80
   3 -13   0   25.40    3.20
   3 -13   0   23.00    2.30
   2 -13   0    1.50    1.40
   2 -13   0    3.20    3.80
   2 -13   0    0.20    1.10
   2 -13   0   -0.70    1.60
   1 -13   0    8.90    4.00
   1 -13   0    5.30    1.70
   0 -13   0   14.80    2.10
   0 -13   0   16.50    4.40
  -1 -13   0   11.90    1.90
   1  13   0   -6.20    6.50
  -2 -13   0    1.40    1.20
  10 -14   0    6.30    1.20
 -10  14   0    8.80    1.50
   9 -14   0   70.59    3.70
  -9  14   0   65.39    3.90
   8 -14   0    9.90    1.50
   7 -14   0    4.00    1.40
   7 -14   0    3.60    0.90
   6 -14   0   -0.70    2.00
   6 -14   0    0.90    1.20
   6 -14   0   -0.40    0.90
   5 -14   0   13.40    1.80
   5 -14   0   13.50    1.90
   5 -14   0    5.70    3.50
   4 -14   0   12.10    4.00
   4 -14   0   17.30    2.20
   4 -14   0   23.10    2.90
   3 -14   0   27.40    3.20
   3 -14   0   23.90    2.70
   3 -14   0   19.80    4.50
   2 -14   0    2.30    1.70
   2 -14   0    1.20    1.30
   2 -14   0    2.70    3.50
   1 -14   0    0.60    1.10
   1 -14   0    4.60    1.90
  -1  14   0    2.00    4.80
   0 -14   0   19.00    2.20
   0 -14   0   15.70    1.90
   0  14   0    3.30    4.10
   9 -15   0    2.40    0.90
   8 -15   0   -0.70    0.80
   7 -15   0    0.60    1.00
   6 -15   0   10.90    1.30
   6 -15   0   11.00    1.70
  -6  15   0   27.80    9.00
   5 -15   0    0.20    1.00
   5 -15   0    0.80    1.30
   4 -15   0    2.30    1.50
   4 -15   0    0.50    1.10
   3 -15   0    1.00    1.00
   3 -15   0    3.30    1.60
   2 -15   0    0.60    0.90
   2 -15   0    2.30    1.60
  -2  15   0    5.20    5.10
  -1  15  -1    3.00    3.90
  -2  15  -1    5.70    4.90
   2 -15   1    3.40    1.20
   2 -15   1    3.80    1.60
  -3  15  -1   22.70    6.80
   3 -15   1    1.20    1.10
   3 -15   1    2.40    1.50
  -4  15  -1   63.69   10.70
   4 -15   1   16.80    1.90
   4 -15   1   14.80    2.00
  -5  15  -1   67.49   11.40
   5 -15   1   15.80    2.00
   5 -15   1   12.90    1.80
  -6  15  -1    4.80    7.80
   6 -15   1    3.90    0.80
   6 -15   1    3.80    1.30
   7 -15   1    1.10    1.00
   8 -15   1    1.10    1.00
   9 -15   1    0.80    0.90
  -1 -14   1    0.70    1.50
  -1 -14   1   -0.40    0.90
   0  14  -1   -0.40    3.40
   0 -14   1   -1.00    1.60
   0 -14   1    0.70    1.10
  -1  14  -1    8.60    5.50
   1 -14   1    1.80    1.20
   1 -14   1    5.80    1.90
   2 -14   1    1.50    1.30
   2 -14   1    5.20    1.80
   3 -14   1    2.10    1.60
   3 -14   1   -0.20    1.20
   3 -14   1   -1.20    3.10
   4 -14   1    3.20    1.50
   4 -14   1   -1.80    2.90
   4 -14   1    1.00    1.20
   5 -14   1    9.20    1.70
   5 -14   1   -0.50    2.60
   5 -14   1    5.30    1.40
  -6  14  -1   88.99   15.30
   7 -14   1    5.80    1.40
   8 -14   1    1.60    1.10
  -9  14  -1    5.50    1.90
   9 -14   1    4.40    1.20
 -10  14  -1   11.50    1.70
  10 -14   1   13.70    1.60
  -2 -13   1   12.40    1.80
   1  13  -1   10.60    5.20
  -1 -13   1   17.70    2.10
   0 -13   1   45.70    3.50
   1 -13   1    9.30    4.10
   1 -13   1    9.00    1.90
   1 -13   1    8.40    2.00
   2 -13   1   51.79    8.10
   2 -13   1   52.79    3.80
   2 -13   1   53.39    4.00
   2 -13   1   42.60    2.90
   3 -13   1   45.50    8.30
   3 -13   1   45.30    2.90
   3 -13   1   48.70    3.80
   3 -13   1   45.20    3.50
   4 -13   1   75.99    9.10
   4 -13   1   92.29    4.90
   4 -13   1   88.09    4.80
   5 -13   1    2.70    1.40
   5 -13   1   -1.10    2.80
   5 -13   1    2.10    1.40
   6 -13   1   -1.30    2.10
   6 -13   1    1.30    1.20
   6 -13   1    0.00    1.00
   7 -13   1    6.00    1.10
   7 -13   1    6.80    1.60
   8 -13   1   48.00    3.30
  -9  13  -1   21.50    2.60
   9 -13   1   25.10    2.30
 -10  13  -1   -0.70    1.20
  10 -13   1    0.30    1.00
 -11  13  -1   18.80    2.30
  11 -13   1   17.40    1.80
  -4 -12   1   -0.30    0.90
  -3 -12   1   12.10    1.90
  -2 -12   1    0.70    1.40
  -1 -12   1    8.70    3.90
  -1 -12   1    6.00    1.80
  -1 -12   1    6.00    1.70
   0 -12   1   25.50    3.00
   0 -12   1   18.50    2.00
   0 -12   1   20.10    4.90
   1 -12   1   15.20    4.50
   1 -12   1   16.70    2.40
   1 -12   1   16.00    1.80
   2 -12   1    2.10    1.40
   2 -12   1   -0.10    1.10
   2 -12   1    3.00    1.60
   2 -12   1   -1.60    3.30
   3 -12   1    8.90    4.20
   3 -12   1   15.20    1.60
   3 -12   1   13.70    2.10
   3 -12   1   15.40    2.10
   4 -12   1    0.10    1.20
   4 -12   1   -2.40    3.40
   4 -12   1    0.80    1.30
   5 -12   1   -1.70    3.70
   5 -12   1    3.00    1.30
   5 -12   1    3.40    1.30
   6 -12   1    4.80    1.40
   6 -12   1    1.10    2.90
   6 -12   1    5.80    1.50
   7 -12   1    5.70    1.50
   7 -12   1    7.60    1.20
  -8  12  -1   56.99    4.30
   8 -12   1   63.59    3.80
  -9  12  -1   84.09    5.30
   9 -12   1   94.19    4.70
 -10  12  -1   24.60    3.00
  10 -12   1   30.40    2.40
 -11  12  -1    0.20    1.30
  11 -12   1    2.60    1.00
 -12  12  -1    0.50    1.10
  12 -12   1    3.20    0.90
  -5 -11   1    0.70    1.10
  -4 -11   1    1.20    1.40
  -3 -11   1    0.60    1.40
  -2 -11   1    3.20    1.70
  -2 -11   1    3.10    1.30
  -1 -11   1   16.30    1.90
  -1 -11   1   16.10    4.60
  -1 -11   1   17.40    2.50
   0 -11   1    3.00    3.50
   0 -11   1    2.40    1.50
   0 -11   1    2.70    1.20
   1 -11   1   22.00    4.90
   1 -11   1   31.20    3.00
   1 -11   1   34.40    2.50
   2 -11   1    3.90    3.40
   2 -11   1    3.60    1.40
   2 -11   1    1.60    1.10
   3 -11   1   -1.80    2.90
   3 -11   1    0.70    1.20
   3 -11   1    0.90    1.10
   3 -11   1   -0.60    0.80
   4 -11   1    7.20    1.60
   4 -11   1    4.80    3.90
   4 -11   1    7.60    1.20
   4 -11   1    8.40    1.60
   5 -11   1   20.70    2.30
   5 -11   1   19.50    5.70
   5 -11   1   18.40    2.00
   6 -11   1    1.20    1.10
   6 -11   1    1.50    1.10
  -7  11  -1    4.90    1.70
   7 -11   1    2.80    1.00
   7 -11   1    1.20    1.00
  -8  11  -1    0.90    1.50
   8 -11   1    0.40    1.10
  -9  11  -1   10.40    2.30
   9 -11   1   11.70    1.80
 -10  11  -1    5.10    1.80
  10 -11   1    6.10    1.40
 -11  11  -1    7.90    1.90
  11 -11   1    9.60    1.50
 -12  11  -1    1.70    1.30
  12 -11   1    4.70    1.10
  -6 -10   1   42.40    3.00
  -5 -10   1   41.60    3.40
  -4 -10   1    0.60    1.50
  -3 -10   1   -2.10    1.40
  -3 -10   1    0.60    1.30
  -2 -10   1    6.80    2.00
  -2 -10   1    5.60    1.30
  -1 -10   1   11.80    2.10
  -1 -10   1   13.00    1.50
  -1 -10   1   10.70    4.00
   0 -10   1    1.60    3.10
   0 -10   1    3.60    1.50
   0 -10   1    3.20    1.00
   1 -10   1   20.80    4.40
   1 -10   1   26.50    2.40
   1 -10   1   26.00    2.00
   1 -10   1   22.40    2.50
   2 -10   1   34.30    2.80
   2 -10   1   35.20    2.30
   2 -10   1   31.40    6.30
   2 -10   1   35.00    2.60
   3 -10   1   44.20    2.50
   3 -10   1   42.20    2.70
   3 -10   1   38.00    2.90
   3 -10   1   37.50    6.50
   4 -10   1   83.79    3.80
   4 -10   1   81.09    4.30
   4 -10   1   81.69    8.60
  -5  10  -1   34.90    2.50
   5 -10   1   27.30    2.40
   5 -10   1   24.40    2.30
  -6  10  -1   58.49    3.60
   6 -10   1   45.50    3.10
   6 -10   1   45.30    2.90
  -7  10  -1   19.30    2.60
   7 -10   1   15.80    1.70
   7 -10   1   13.90    1.80
  -8  10  -1  119.89    6.50
   8 -10   1  125.79    5.80
  -9  10  -1   64.79    4.70
   9 -10   1   68.89    3.90
 -10  10  -1    2.40    1.60
  10 -10   1    2.30    1.20
 -11  10  -1   29.10    3.30
  11 -10   1   31.20    2.40
 -12  10  -1    3.00    1.60
  12 -10   1    4.00    1.10
  13 -10   1    6.80    1.00
  -7  -9   1    7.00    1.50
  -6  -9   1   10.40    2.10
  -6  -9   1   13.20    2.20
  -5  -9   1   13.10    2.40
  -5  -9   1   11.50    2.20
  -4  -9   1   15.10    1.80
  -4  -9   1   12.10    2.20
  -4  -9   1   11.40    2.30
  -3  -9   1    8.10    2.10
  -3  -9   1   11.00    1.50
  -2  -9   1    1.60    1.40
  -2  -9   1    2.30    1.00
   1   9  -1    6.10    1.20
  -1  -9   1    7.30    1.70
  -1  -9   1    3.00    3.20
  -1  -9   1    7.80    1.10
   0  -9   1    2.90    2.90
   0  -9   1    7.30    1.00
   0  -9   1    7.30    1.60
   0  -9   1    4.90    1.20
   1  -9   1    5.90    1.10
   1  -9   1    6.10    1.10
   1  -9   1    7.30    1.00
   2  -9   1    1.10    0.70
   2  -9   1    0.20    0.70
   2  -9   1    0.90    0.70
  -3   9  -1   26.30    1.80
   3  -9   1   24.10    2.00
   3  -9   1   23.90    1.80
   3  -9   1   28.80    2.00
  -4   9  -1   -0.90    0.80
  -4   9  -1   -4.10    2.10
   4  -9   1    0.00    0.60
   4  -9   1   -1.80    0.60
  -5   9  -1    1.20    0.90
  -6   9  -1    3.90    1.20
   6  -9   1    1.70    1.00
  -7   9  -1    3.00    1.40
   7  -9   1    0.40    0.70
   7  -9   1    0.00    0.80
  -8   9  -1    9.30    2.00
   8  -9   1    7.70    1.40
  -9   9  -1   17.30    2.70
   9  -9   1   16.10    1.90
 -10   9  -1   -1.40    1.50
  10  -9   1   -0.40    1.00
 -11   9  -1    3.90    1.80
  11  -9   1    4.40    1.20
 -12   9  -1    1.70    1.50
  12  -9   1    2.10    0.90
  13  -9   1   11.10    1.30
  -7  -8   1   12.30    2.20
  -7  -8   1   13.40    2.30
  -6  -8   1   42.70    3.80
  -6  -8   1   36.60    3.70
  -5  -8   1   20.40    2.00
  -5  -8   1   21.20    2.90
  -5  -8   1   11.50    2.20
  -4  -8   1   13.40    2.40
  -4  -8   1   16.20    1.70
  -4  -8   1   15.90    2.50
  -3  -8   1   62.89    4.20
  -3  -8   1   63.79    4.40
  -3  -8   1   67.39    3.30
   2   8  -1  338.47   13.20
  -2  -8   1  339.47   12.50
  -2  -8   1  322.07   13.50
  -2  -8   1  336.07   13.80
   1   8  -1  105.59    5.00
  -1  -8   1  109.79    4.50
   0   8  -1    0.70    1.30
   0  -8   1    2.40    0.70
   0  -8   1    2.20    0.90
   0  -8   1    2.00    0.70
  -1   8  -1    7.50    2.20
   1  -8   1   13.50    1.30
   1  -8   1   14.20    1.50
   1  -8   1   14.10    1.20
  -2   8  -1  138.39    6.00
  -2   8  -1  100.69    7.40
   2  -8   1  136.69    5.70
   2  -8   1  140.89    5.30
   2  -8   1  144.79    5.70
  -3   8  -1  120.99    5.00
  -3   8  -1  106.99    5.40
   3  -8   1  117.49    5.00
   3  -8   1  124.19    4.70
   3  -8   1  116.39    5.10
  -4   8  -1   29.50    2.40
   4  -8   1   29.30    1.80
   4  -8   1   28.30    1.70
  -5   8  -1    0.50    2.50
  -5   8  -1   20.30    2.10
  -6   8  -1   19.10    2.00
  -7   8  -1  121.39    6.00
  -8   8  -1   22.60    2.80
   8  -8   1   20.30    2.00
  -9   8  -1    8.30    2.00
   9  -8   1   12.10    1.60
 -10   8  -1    1.70    1.70
  10  -8   1    4.10    1.20
 -11   8  -1    1.80    1.80
  11  -8   1    2.70    1.10
 -12   8  -1    6.60    1.80
  12  -8   1    6.70    1.30
  13  -8   1    2.40    0.80
  -8  -7   1    3.10    1.60
  -8  -7   1    1.80    1.50
  -7  -7   1   -2.80    1.40
  -7  -7   1    0.30    1.60
  -6  -7   1    8.10    1.60
  -6  -7   1    6.80    2.00
  -6  -7   1    4.90    2.00
  -5  -7   1    9.40    2.20
  -5  -7   1    8.10    2.10
  -5  -7   1   10.40    1.50
  -4  -7   1   40.80    3.50
  -4  -7   1   37.80    3.60
  -4  -7   1   41.80    2.50
   3   7  -1    1.40    0.90
  -3  -7   1    2.20    1.20
  -3  -7   1    2.20    0.80
  -3  -7   1    1.80    1.40
   2   7  -1    2.40    0.90
  -2  -7   1    3.10    0.70
  -2  -7   1    1.50    0.70
   1   7  -1   25.20    3.30
  -1  -7   1   40.50    1.90
  -1  -7   1   40.10    2.20
  -1  -7   1   39.90    2.50
   0   7  -1    7.20    2.00
   0  -7   1    7.50    1.00
   0  -7   1    6.70    0.70
   0  -7   1    7.60    1.10
  -1   7  -1   -0.30    1.00
  -1   7  -1   -0.30    0.60
   1  -7   1    0.50    0.50
   1  -7   1    0.50    0.40
   1  -7   1    0.60    0.50
  -2   7  -1    1.30    1.30
  -2   7  -1    2.40    0.80
   2  -7   1    1.70    0.60
   2  -7   1    0.90    0.50
   2  -7   1    1.60    0.60
  -3   7  -1    1.80    0.60
  -3   7  -1    2.60    0.90
  -3   7  -1    1.00    1.30
   3  -7   1    1.70    0.50
   3  -7   1    2.50    0.60
   3  -7   1    1.20    0.50
  -4   7  -1  118.19    5.00
  -4   7  -1  106.49    5.30
   4  -7   1  108.89    4.50
   4  -7   1  117.19    5.30
   4  -7   1  120.69    4.80
  -5   7  -1   15.00    1.80
   5  -7   1   13.00    1.10
  -6   7  -1    2.60    1.10
  -7   7  -1    2.50    1.20
  -7   7  -1   -0.60    0.70
  -8   7  -1   44.90    3.40
  -8   7  -1   51.09    2.90
   8  -7   1   46.30    2.80
  -9   7  -1   28.60    3.10
   9  -7   1   28.70    2.30
 -10   7  -1   -0.10    1.40
  10  -7   1    0.60    1.00
 -11   7  -1    0.20    1.60
  11  -7   1    2.00    1.10
 -12   7  -1    5.70    1.30
  12  -7   1    6.70    1.30
  13  -7   1   11.10    1.40
  -9  -6   1    1.30    1.40
  -9  -6   1    0.50    1.50
  -8  -6   1   17.40    2.60
  -8  -6   1   12.60    2.40
  -7  -6   1   71.39    5.20
  -7  -6   1   76.19    5.20
  -7  -6   1   75.99    4.00
  -6  -6   1    2.70    1.80
  -6  -6   1    4.60    1.30
  -6  -6   1    1.60    1.70
  -5  -6   1   15.30    1.60
  -5  -6   1   14.90    2.50
  -5  -6   1   14.00    2.40
   4   6  -1    1.40    0.80
  -4  -6   1    1.90    1.40
  -4  -6   1    2.10    1.20
  -4  -6   1    2.50    0.80
   3   6  -1   13.80    1.50
  -3  -6   1   10.50    1.00
  -3  -6   1   11.90    1.40
   2   6  -1   14.70    2.30
   2   6  -1   22.40    1.60
  -2  -6   1   20.80    1.20
  -2  -6   1   22.30    1.60
   1   6  -1   43.00    3.60
  -1  -6   1   51.59    2.40
  -1  -6   1   51.39    2.70
  -1  -6   1   42.80    2.00
   0   6  -1   38.90    3.20
   0  -6   1   35.90    2.10
   0  -6   1   34.80    1.70
   0  -6   1   37.90    1.90
  -1   6  -1  524.55   20.20
  -1   6  -1  494.95   18.70
   1  -6   1  487.75   18.30
   1  -6   1  502.65   18.60
   1  -6   1  523.95   18.50
  -2   6  -1 1137.89   42.30
  -2   6  -1 1099.39   41.00
   2  -6   1 1137.89   40.40
   2  -6   1 1153.28   40.70
   2  -6   1 1125.39   40.70
  -3   6  -1   16.00    1.50
  -3   6  -1   15.90    2.30
  -3   6  -1   17.90    1.20
   3  -6   1   18.20    1.10
   3  -6   1   20.00    1.20
   3  -6   1   17.00    1.20
  -4   6  -1   29.90    2.20
  -4   6  -1   31.70    1.70
  -4   6  -1   30.70    1.90
   4  -6   1   31.90    1.70
   4  -6   1   29.30    1.80
  -5   6  -1  116.69    5.20
  -5   6  -1  115.99    4.60
   5  -6   1  108.59    4.50
  -6   6  -1  216.98    8.70
  -6   6  -1  236.38    9.40
  -7   6  -1  442.16   17.30
  -7   6  -1  445.96   16.70
  -8   6  -1   35.90    2.40
  -8   6  -1   33.70    2.80
  -9   6  -1    4.90    1.60
  -9   6  -1    5.30    1.30
   9  -6   1    4.40    1.10
 -10   6  -1    6.20    2.00
 -10   6  -1    8.70    1.60
  10  -6   1    7.70    1.50
 -11   6  -1   16.70    2.00
  11  -6   1   19.20    2.20
 -12   6  -1   25.60    2.40
  12  -6   1   27.00    2.30
 -13   6  -1    0.10    1.00
  13  -6   1    0.50    0.70
 -10  -5   1    8.50    1.70
  -9  -5   1    0.10    1.60
  -9  -5   1    0.80    1.70
  -8  -5   1   -1.40    1.70
  -8  -5   1   -1.60    1.00
  -8  -5   1   -1.10    1.70
  -7  -5   1    0.70    1.70
  -7  -5   1    0.80    1.10
  -7  -5   1    2.00    1.80
  -6  -5   1   10.40    1.40
  -6  -5   1    5.30    1.90
  -6  -5   1    7.80    1.90
   5   5  -1    4.80    1.10
  -5  -5   1    4.10    1.50
  -5  -5   1    5.60    1.70
  -5  -5   1    6.00    1.00
   4   5  -1   99.19    4.50
  -4  -5   1   93.19    3.80
  -4  -5   1   89.09    4.20
   3   5  -1    0.90    0.60
  -3  -5   1    0.90    0.60
  -3  -5   1    1.30    0.50
   2   5  -1    2.80    0.60
   2   5  -1    2.40    1.10
  -2  -5   1    3.00    0.50
  -2  -5   1    2.30    0.60
   1   5  -1    2.80    1.00
  -1  -5   1    3.00    0.40
  -1  -5   1    3.00    0.60
  -1  -5   1    2.80    0.70
   0   5  -1   60.79    3.60
   0   5  -1   54.49    2.60
   0  -5   1   61.79    2.60
   0  -5   1   61.79    2.80
  -1   5  -1    2.50    0.90
  -1   5  -1    2.00    0.50
   1  -5   1    2.80    0.50
   1  -5   1    1.90    0.40
  -2   5  -1    4.60    0.80
  -2   5  -1    4.50    1.10
   2  -5   1    4.40    0.60
   2  -5   1    3.70    0.50
  -3   5  -1  281.27   10.20
  -3   5  -1  276.27   10.30
  -3   5  -1  264.27   10.00
  -3   5  -1  274.07   10.60
  -3   5  -1  251.17   11.40
   3  -5   1  289.97   10.30
   3  -5   1  281.77   10.20
  -4   5  -1   10.20    1.10
  -4   5  -1    9.30    0.80
  -4   5  -1    7.20    1.10
  -4   5  -1    7.80    0.80
   4  -5   1    9.20    0.70
   4  -5   1   10.30    0.90
  -5   5  -1   20.30    1.50
  -5   5  -1   20.40    1.30
  -5   5  -1   24.50    1.80
  -5   5  -1   22.30    1.40
   5  -5   1   20.30    1.20
  -6   5  -1   46.90    2.30
  -6   5  -1   43.70    2.70
  -6   5  -1   37.70    2.40
  -6   5  -1   41.80    2.20
  -7   5  -1   51.29    2.80
  -7   5  -1   56.39    3.30
  -7   5  -1   51.89    2.70
  -8   5  -1   33.50    2.60
  -8   5  -1   29.60    2.20
  -8   5  -1   26.60    2.20
  -9   5  -1    0.70    1.10
  -9   5  -1    1.20    1.20
  -9   5  -1    2.10    1.50
  -9   5  -1    0.10    0.90
 -10   5  -1    7.00    1.60
 -10   5  -1    7.20    1.40
  10  -5   1    5.80    1.40
 -11   5  -1   27.50    2.70
 -12   5  -1   47.00    3.30
  12  -5   1   58.79    3.30
 -13   5  -1   42.60    2.70
  13  -5   1   43.30    2.50
 -10  -4   1    4.30    1.70
 -10  -4   1    5.00    1.90
  -9  -4   1   33.90    3.90
  -9  -4   1   30.80    3.40
  -8  -4   1   82.59    4.30
  -8  -4   1   88.39    5.90
  -8  -4   1   84.99    5.70
  -7  -4   1    2.60    1.70
  -7  -4   1    2.50    1.20
  -7  -4   1    1.00    1.70
   6   4  -1   12.00    1.70
  -6  -4   1   11.10    2.10
  -6  -4   1   10.90    1.40
  -6  -4   1    9.20    2.00
   5   4  -1   24.10    2.00
  -5  -4   1   24.50    1.60
  -5  -4   1   26.80    2.60
  -5  -4   1   22.10    1.90
   4   4  -1   99.79    4.20
  -4  -4   1   87.09    3.60
  -4  -4   1   89.19    4.00
   3   4  -1   49.50    2.40
  -3  -4   1   46.10    2.30
  -3  -4   1   41.80    1.90
   2   4  -1   29.80    1.60
   2   4  -1   26.60    2.30
  -2  -4   1   27.00    1.50
   1   4  -1   18.80    1.70
   1   4  -1   18.20    0.90
  -1  -4   1   18.10    1.30
  -1  -4   1   17.00    1.10
   0   4  -1   11.00    1.30
   0   4  -1   10.60    0.80
   0  -4   1    9.60    0.80
   0  -4   1    9.30    0.80
   0  -4   1   10.00    0.80
  -1   4  -1  745.33   27.70
  -1   4  -1  772.22   27.80
  -1   4  -1  826.12   28.60
   1  -4   1  783.02   27.70
   1  -4   1  726.03   27.70
  -2   4  -1    8.00    1.20
  -2   4  -1    7.90    1.00
  -2   4  -1    7.90    0.50
  -2   4  -1    7.70    0.80
   2  -4   1    8.60    0.70
   2  -4   1    9.50    0.70
  -3   4  -1   10.40    1.10
  -3   4  -1   12.50    0.80
  -3   4  -1    7.60    1.40
  -3   4  -1    9.70    0.70
  -3   4  -1   10.20    0.90
   3  -4   1   11.40    0.70
   3  -4   1   10.30    0.80
  -4   4  -1   57.49    2.60
  -4   4  -1   56.09    2.40
  -4   4  -1   56.59    2.80
   4  -4   1   53.79    2.50
   4  -4   1   54.79    2.30
  -5   4  -1    3.10    0.70
  -5   4  -1    3.00    0.60
  -5   4  -1    4.00    0.90
   5  -4   1    4.20    0.50
  -6   4  -1  107.19    4.90
  -6   4  -1  104.69    4.70
  -6   4  -1  104.99    4.50
  -6   4  -1  112.89    4.60
  -7   4  -1    1.70    0.80
  -7   4  -1    1.80    0.70
  -7   4  -1    0.70    0.80
  -7   4  -1    2.50    0.80
  -8   4  -1   15.00    1.60
  -8   4  -1   11.50    1.60
  -8   4  -1   16.80    2.00
  -8   4  -1   15.30    2.30
  -8   4  -1   14.00    1.80
  -9   4  -1   15.20    1.80
  -9   4  -1   16.80    2.60
  -9   4  -1   15.20    1.90
  -9   4  -1   16.30    2.50
 -10   4  -1   -0.80    1.40
 -10   4  -1   -1.30    1.20
 -10   4  -1    1.30    1.60
 -11   4  -1   58.19    3.70
 -11   4  -1   50.79    4.40
 -11   4  -1   52.29    3.40
 -12   4  -1    1.90    1.30
 -12   4  -1    0.20    1.70
  12  -4   1    1.60    1.00
 -13   4  -1    0.30    1.00
  13  -4   1    0.90    0.80
 -11  -3   1    0.60    1.30
 -11  -3   1    0.40    1.30
 -10  -3   1    1.60    1.90
 -10  -3   1    1.20    1.70
  -9  -3   1    9.70    1.60
  -9  -3   1   12.20    2.70
  -9  -3   1   12.80    2.60
  -8  -3   1   49.10    3.20
  -8  -3   1   48.70    4.40
  -8  -3   1   53.79    4.70
  -7  -3   1   33.90    3.50
  -7  -3   1   32.50    3.40
  -7  -3   1   36.90    2.50
   6   3  -1    0.00    0.70
  -6  -3   1   -1.30    1.20
  -6  -3   1    0.40    0.70
   5   3  -1   75.59    3.60
  -5  -3   1   71.29    3.20
  -5  -3   1   73.89    3.50
   4   3  -1   94.89    4.00
  -4  -3   1   85.09    3.50
  -4  -3   1   94.19    4.00
   3   3  -1  146.99    5.60
  -3  -3   1  135.99    5.50
  -3  -3   1  138.09    5.40
   2   3  -1   16.10    1.10
   2   3  -1   17.40    1.60
  -2  -3   1   15.90    1.00
  -2  -3   1   14.70    0.80
   1   3  -1  154.78    5.90
   1   3  -1  167.28    5.90
   1   3  -1  170.08    6.70
  -1  -3   1  159.68    6.00
  -1  -3   1  161.68    6.10
  -1  -3   1  151.68    5.80
  -1  -3   1  160.68    6.20
   0   3  -1   39.80    2.20
   0   3  -1   36.20    1.70
   0   3  -1   38.10    1.70
   0   3  -1   44.60    1.60
   0  -3   1   39.60    1.80
   0  -3   1   36.30    1.70
   0  -3   1   38.70    1.70
  -1   3  -1 1592.64   56.09
  -1   3  -1 1551.34   55.59
  -1   3  -1 1493.15   55.49
   1  -3   1 1570.54   55.39
   1  -3   1 1578.84   55.39
  -2   3  -1  551.34   20.50
  -2   3  -1  591.74   20.30
  -2   3  -1  534.75   21.10
  -2   3  -1  581.24   20.70
  -2   3  -1  572.64   20.30
   2  -3   1  561.14   20.40
   2  -3   1  576.14   20.30
  -3   3  -1  157.38    6.20
  -3   3  -1  157.38    5.90
  -3   3  -1  153.78    5.90
  -3   3  -1  167.68    6.00
   3  -3   1  160.08    5.90
   3  -3   1  147.89    5.80
  -4   3  -1   60.89    2.80
  -4   3  -1   58.09    2.60
  -4   3  -1   60.49    2.50
   4  -3   1   54.69    2.40
  -5   3  -1    8.10    0.90
  -5   3  -1    9.00    1.00
  -5   3  -1   10.80    1.20
  -5   3  -1    8.90    0.90
   5  -3   1    8.90    0.70
  -6   3  -1  136.39    5.60
  -6   3  -1  132.69    5.30
  -6   3  -1  128.29    5.40
  -6   3  -1  134.39    5.70
   6  -3   1  123.59    5.10
  -7   3  -1   50.19    3.00
  -7   3  -1   49.99    2.80
  -7   3  -1   53.19    2.70
  -7   3  -1   49.99    2.90
  -8   3  -1   13.40    1.70
  -8   3  -1   15.50    2.30
  -8   3  -1   15.30    1.60
  -8   3  -1   13.70    1.70
  -9   3  -1   17.80    2.70
  -9   3  -1   24.50    2.30
  -9   3  -1   17.80    2.10
  -9   3  -1   22.70    2.90
 -10   3  -1   32.70    3.70
 -10   3  -1   31.40    3.60
 -10   3  -1   30.20    2.70
 -10   3  -1   29.90    2.90
 -11   3  -1   21.10    2.50
 -11   3  -1   20.20    3.00
 -11   3  -1   22.50    3.10
 -12   3  -1    9.50    2.10
 -12   3  -1    8.80    1.70
  12  -3   1   11.50    1.60
 -13   3  -1    5.00    1.20
  13  -3   1    9.90    1.20
 -11  -2   1    9.00    2.00
 -11  -2   1    8.70    2.00
 -10  -2   1   36.70    4.00
 -10  -2   1   36.90    2.90
 -10  -2   1   39.10    3.90
  -9  -2   1   23.70    2.30
  -9  -2   1   21.80    2.40
  -9  -2   1   23.60    3.20
  -9  -2   1   21.90    3.30
  -8  -2   1   50.49    4.40
  -8  -2   1   53.59    3.40
  -8  -2   1   45.20    4.10
  -8  -2   1   52.09    3.10
   7   2  -1    4.90    1.10
  -7  -2   1    4.60    1.00
  -7  -2   1    2.80    1.60
  -7  -2   1    2.60    1.50
  -7  -2   1    3.60    1.20
   6   2  -1   14.20    1.50
  -6  -2   1   15.40    1.60
  -6  -2   1   15.20    1.50
  -6  -2   1   14.10    1.40
   5   2  -1   68.69    3.20
  -5  -2   1   58.89    2.70
  -5  -2   1   65.89    3.10
  -5  -2   1   62.39    3.00
   4   2  -1   80.99    3.40
  -4  -2   1   71.59    3.20
  -4  -2   1   70.99    2.90
   3   2  -1   31.00    1.60
  -3  -2   1   32.00    1.60
  -3  -2   1   29.10    1.50
   2   2  -1  121.39    5.80
   2   2  -1  144.29    5.30
   2   2  -1  154.68    5.50
  -2  -2   1  145.29    5.40
  -2  -2   1  145.69    5.30
  -2  -2   1  149.59    5.40
   1   2  -1  197.58    6.90
   1   2  -1  189.08    7.00
   1   2  -1  206.08    7.60
   1   2  -1  185.08    6.90
  -1  -2   1  196.18    7.20
  -1  -2   1  181.98    6.90
  -1  -2   1  193.48    7.10
  -1  -2   1  191.18    7.00
   0   2  -1  434.06   14.50
   0   2  -1  376.46   14.60
   0   2  -1  453.85   15.10
   0   2  -1  414.06   14.60
   0  -2   1  348.77   14.60
   0  -2   1  395.76   14.60
   0  -2   1  417.16   14.60
  -1   2  -1  150.38    5.70
  -1   2  -1  139.19    6.10
  -1   2  -1  146.59    5.50
  -1   2  -1  169.18    5.70
   1  -2   1  154.68    5.60
   1  -2   1  155.38    5.60
   1  -2   1  156.98    5.60
  -2   2  -1   32.00    1.50
  -2   2  -1   32.40    1.40
  -2   2  -1   34.50    1.60
  -2   2  -1   30.80    1.40
   2  -2   1   33.20    1.40
   2  -2   1   34.30    1.40
   2  -2   1   31.90    1.30
  -3   2  -1  250.17    9.30
  -3   2  -1  270.17    9.20
  -3   2  -1  255.17    9.10
  -3   2  -1  220.58    9.60
  -3   2  -1  260.37    9.30
   3  -2   1  242.38    9.20
   3  -2   1  254.67    9.10
  -4   2  -1   17.50    1.20
  -4   2  -1   16.80    1.10
  -4   2  -1   16.30    1.10
  -4   2  -1   16.40    1.00
   4  -2   1   15.80    0.90
  -5   2  -1   52.69    2.50
  -5   2  -1   48.30    2.50
  -5   2  -1   52.49    2.50
  -5   2  -1   53.79    2.30
   5  -2   1   53.79    2.30
  -6   2  -1   15.10    1.40
  -6   2  -1   13.50    1.30
  -6   2  -1   16.00    1.20
   6  -2   1   15.40    1.10
  -7   2  -1    0.30    0.70
  -7   2  -1    2.30    0.70
  -7   2  -1   -0.10    0.60
  -8   2  -1    6.80    1.20
  -8   2  -1    8.50    1.40
  -8   2  -1   10.40    2.10
  -9   2  -1   12.70    2.50
  -9   2  -1   16.40    1.80
  -9   2  -1   14.80    2.60
 -10   2  -1    2.50    1.90
 -10   2  -1    2.10    1.80
 -10   2  -1    1.30    1.40
 -10   2  -1    1.70    1.20
 -11   2  -1    5.80    2.10
 -11   2  -1    6.10    2.10
 -11   2  -1    4.80    1.40
 -11   2  -1    5.00    1.60
 -12   2  -1    7.80    1.60
 -12   2  -1   14.10    2.40
 -12   2  -1   10.70    2.20
 -12  -1   1    6.30    1.60
 -11  -1   1   -0.40    1.60
 -11  -1   1   -0.30    1.10
 -11  -1   1    1.10    1.70
 -10  -1   1    7.10    2.40
 -10  -1   1    7.30    1.70
 -10  -1   1    7.90    2.40
 -10  -1   1    4.40    1.40
  -9  -1   1   37.60    3.10
  -9  -1   1   37.20    2.90
  -9  -1   1   41.60    4.20
  -9  -1   1   39.90    4.10
  -8  -1   1   71.39    4.90
  -8  -1   1   72.49    3.70
  -8  -1   1   71.39    4.80
  -8  -1   1   67.39    4.00
   7   1  -1    3.40    0.90
  -7  -1   1    3.80    1.10
  -7  -1   1    5.90    1.60
  -7  -1   1    3.10    0.90
   6   1  -1   25.40    1.80
  -6  -1   1   23.70    1.90
  -6  -1   1   25.60    1.70
  -6  -1   1   24.50    1.80
   5   1  -1    2.60    0.60
  -5  -1   1    3.40    0.60
  -5  -1   1    1.50    0.60
  -5  -1   1    2.20    0.70
   4   1  -1   32.70    1.80
  -4  -1   1   33.10    1.70
  -4  -1   1   33.30    1.80
   3   1  -1    2.40    0.50
   3   1  -1    4.20    0.50
   3   1  -1    4.30    0.60
  -3  -1   1    4.90    0.50
  -3  -1   1    5.00    0.60
  -3  -1   1    4.50    0.60
  -3  -1   1    4.80    0.40
   2   1  -1    3.00    0.40
   2   1  -1    3.50    0.20
   2   1  -1    3.00    0.30
  -2  -1   1    3.20    0.40
  -2  -1   1    3.10    0.40
  -2  -1   1    3.70    0.30
  -2  -1   1    3.50    0.50
   1   1  -1  549.74   21.10
   1   1  -1  611.84   21.10
   1   1  -1  603.74   21.10
  -1  -1   1  600.44   21.20
  -1  -1   1  572.94   21.10
  -1  -1   1  577.44   21.00
  -1  -1   1  626.74   21.10
   0   1  -1 1349.86   47.70
   0   1  -1 1425.66   47.70
   0   1  -1 1333.77   47.70
   0  -1   1 1300.07   47.80
   0  -1   1 1349.86   47.80
   0  -1   1 1384.36   47.80
   0  -1   1 1399.56   47.70
   0  -1   1 1196.18   47.70
  -1   1  -1  325.27   12.00
  -1   1  -1  332.37   11.90
  -1   1  -1  370.46   12.00
  -1   1  -1  319.27   12.00
  -1   1  -1  325.57   12.00
   1  -1   1  332.27   12.00
   1  -1   1  336.27   12.00
  -2   1  -1 1218.88   44.10
  -2   1  -1 1343.47   44.00
  -2   1  -1 1225.68   44.00
  -2   1  -1 1240.88   43.90
  -2   1  -1 1199.08   44.00
  -2   1  -1 1215.38   44.10
   2  -1   1 1251.27   43.90
   2  -1   1 1201.68   43.90
   2  -1   1 1192.48   43.90
   2  -1   1 1271.07   44.10
  -3   1  -1  214.58    7.80
  -3   1  -1  209.28    7.80
  -3   1  -1  209.58    7.70
  -3   1  -1  205.18    7.70
  -3   1  -1  218.28    7.90
   3  -1   1  210.68    7.60
   3  -1   1  205.38    7.70
   3  -1   1  206.88    7.70
  -4   1  -1    2.70    0.50
  -4   1  -1    4.20    0.60
   4  -1   1    4.80    0.50
  -5   1  -1  109.29    4.60
  -5   1  -1  110.29    4.50
  -5   1  -1  107.99    4.50
  -5   1  -1  108.19    4.20
   5  -1   1  106.19    4.30
  -6   1  -1  142.29    5.60
  -6   1  -1  141.99    5.90
  -6   1  -1  142.89    5.90
   6  -1   1  140.79    5.70
  -7   1  -1    2.30    0.80
  -7   1  -1    2.70    0.90
  -7   1  -1    2.00    0.80
  -8   1  -1   24.40    2.10
  -8   1  -1   24.40    2.90
  -8   1  -1   25.80    2.90
  -8   1  -1   28.30    2.30
  -8   1  -1   25.70    2.20
  -9   1  -1   96.79    5.00
  -9   1  -1   94.89    5.70
  -9   1  -1   96.29    4.60
  -9   1  -1   96.19    6.00
 -10   1  -1  100.29    6.20
 -10   1  -1  101.89    6.40
 -10   1  -1  102.59    5.00
 -10   1  -1  102.59    5.40
 -11   1  -1   36.90    2.90
 -11   1  -1   32.80    3.80
 -11   1  -1   35.30    3.80
 -12   1  -1   -0.20    1.10
 -12   1  -1    0.80    1.50
 -12   1  -1    0.30    1.40
 -12   0   1   -0.40    1.00
 -12   0   1   -0.10    1.20
 -12   0   1   -1.20    1.30
 -11   0   1   35.40    3.80
 -11   0   1   31.30    2.90
 -11   0   1   38.30    3.80
 -10   0   1    1.40    2.00
 -10   0   1    2.20    1.40
 -10   0   1    1.10    1.20
 -10   0   1    1.50    1.90
  -9   0   1   55.99    4.70
  -9   0   1   56.59    4.70
  -9   0   1   65.29    3.60
  -9   0   1   60.19    3.80
  -8   0   1    0.50    1.40
  -8   0   1    0.20    0.90
  -8   0   1    1.70    1.50
  -8   0   1    0.30    1.00
  -8   0   1    0.40    1.00
   7   0  -1    2.50    0.70
  -7   0   1    0.80    0.80
  -7   0   1    2.00    0.80
  -7   0   1    1.60    0.80
   6   0  -1   13.60    1.30
  -6   0   1   15.70    1.40
  -6   0   1   13.30    1.40
  -6   0   1   15.80    1.30
   5   0  -1    2.30    0.60
  -5   0   1    1.40    0.50
  -5   0   1    1.10    0.60
  -5   0   1    1.60    0.60
   4   0  -1   60.39    2.60
  -4   0   1   52.29    2.40
  -4   0   1   55.89    2.50
  -4   0   1   61.09    2.60
   3   0  -1   14.40    0.90
  -3   0   1   13.40    0.80
  -3   0   1   13.10    0.90
  -3   0   1   13.60    0.80
  -3   0   1   14.10    0.90
   2   0  -1  295.27   10.40
   2   0  -1  290.17   10.40
   2   0  -1  286.07   10.30
  -2   0   1  279.87   10.30
  -2   0   1  281.47   10.30
  -2   0   1  282.97   10.30
  -2   0   1  286.77   10.40
  -2   0   1  284.57   10.30
   1   0  -1   12.10    0.60
   1   0  -1   12.10    0.70
   1   0  -1   12.50    0.50
   1   0  -1   12.40    0.60
  -1   0   1   13.90    0.60
  -1   0   1   12.00    0.70
  -1   0   1   13.20    0.60
  -1   0   1   13.50    0.60
  -1   0   1   12.40    0.50
  -1   0   1   13.60    0.60
   0   0  -1   11.70    0.40
   0   0  -1   10.80    0.40
   0   0  -1   10.50    0.60
   0   0  -1    9.80    0.40
   0   0  -1    9.90    0.50
   0   0   1   10.00    0.60
   0   0   1   11.10    0.40
   0   0   1   10.00    0.40
   0   0   1    9.60    0.50
  -1   0  -1   58.19    2.30
  -1   0  -1   58.69    2.30
  -1   0  -1   57.59    2.10
  -1   0  -1   59.69    2.10
   1   0   1   58.09    2.30
   1   0   1   57.69    2.20
  -2   0  -1  150.88    5.10
  -2   0  -1  136.39    5.10
  -2   0  -1  131.39    5.00
  -2   0  -1  134.89    5.20
   2   0   1  136.99    5.10
  -3   0  -1   49.80    2.20
  -3   0  -1   49.70    2.00
  -3   0  -1   52.99    2.20
  -3   0  -1   54.69    2.10
   3   0   1   51.09    2.10
   3   0   1   52.29    2.00
   3   0   1   49.50    2.00
   3   0   1   52.09    2.00
   3   0   1   45.40    2.20
  -4   0  -1   -0.20    0.40
  -4   0  -1    0.50    0.40
  -4   0  -1    0.30    0.30
   4   0   1    0.60    0.30
  -5   0  -1    0.00    0.50
  -5   0  -1    0.10    0.40
  -5   0  -1    0.50    0.50
   5   0   1    0.40    0.40
  -6   0  -1   55.89    2.90
  -6   0  -1   55.29    2.60
  -6   0  -1   57.69    2.80
   6   0   1   54.79    2.70
  -7   0  -1   23.60    2.70
  -7   0  -1   22.00    1.90
  -7   0  -1   20.20    1.80
  -7   0  -1   22.10    1.70
  -8   0  -1    5.80    1.40
  -8   0  -1    4.80    1.80
  -8   0  -1    3.70    1.10
  -8   0  -1    4.40    1.10
  -8   0  -1    5.00    1.80
  -9   0  -1   43.80    4.20
  -9   0  -1   40.40    3.90
  -9   0  -1   35.80    2.80
  -9   0  -1   42.00    3.20
 -10   0  -1    2.80    2.10
 -10   0  -1    3.90    2.10
 -10   0  -1    3.90    1.40
 -10   0  -1    5.30    1.60
 -11   0  -1   14.90    2.60
 -11   0  -1   15.70    2.00
 -11   0  -1   13.70    2.70
 -12   0  -1    2.30    1.40
 -12   0  -1    4.50    1.20
 -12   0  -1    2.60    1.50
 -12   1   1    1.20    1.40
 -12   1   1    0.00    1.50
 -12   1   1    1.50    1.10
 -11   1   1    6.30    2.00
 -11   1   1    4.70    2.10
 -11   1   1    4.20    1.50
 -10   1   1   54.89    3.50
 -10   1   1   49.70    4.60
 -10   1   1   58.99    3.80
 -10   1   1   54.99    4.80
  -9   1   1  148.79    7.70
  -9   1   1  154.38    7.70
  -9   1   1  140.69    6.70
  -9   1   1  145.79    6.40
  -8   1   1   12.70    1.50
  -8   1   1   22.80    2.70
  -8   1   1   11.30    1.50
  -8   1   1   15.80    2.40
  -8   1   1   11.10    1.60
   7  -1  -1    4.00    0.80
  -7   1   1    3.90    0.90
  -7   1   1    4.50    0.90
  -7   1   1    3.40    0.90
   6  -1  -1  155.18    6.30
  -6   1   1  158.88    6.40
  -6   1   1  167.48    6.60
  -6   1   1  151.98    6.20
   5  -1  -1   53.19    2.50
  -5   1   1   54.49    2.40
  -5   1   1   56.69    2.50
  -5   1   1   53.49    2.60
  -5   1   1   50.99    2.50
   4  -1  -1  210.98    7.40
  -4   1   1  193.48    7.40
  -4   1   1  196.68    7.50
  -4   1   1  184.68    7.50
   3  -1  -1  119.69    4.70
   3  -1  -1  126.09    4.70
  -3   1   1  118.39    4.80
  -3   1   1  123.89    4.60
  -3   1   1  121.19    4.70
  -3   1   1  130.69    4.80
   2  -1  -1  476.05   17.00
   2  -1  -1  466.85   17.00
  -2   1   1  474.15   17.00
  -2   1   1  477.15   17.10
  -2   1   1  469.75   17.10
  -2   1   1  452.75   17.10
  -2   1   1  511.35   17.10
  -2   1   1  474.45   17.00
   1  -1  -1  805.32   28.40
   1  -1  -1  774.52   28.70
   1  -1  -1  778.82   28.40
  -1   1   1  765.72   28.30
  -1   1   1  880.11   28.40
  -1   1   1  773.92   28.40
  -1   1   1  798.22   28.40
   0  -1  -1  694.93   24.50
   0  -1  -1  661.53   24.60
   0  -1  -1  715.43   24.80
   0  -1  -1  686.93   24.50
   0  -1  -1  681.03   24.50
   0   1   1  698.23   24.60
  -1  -1  -1  135.79    6.00
  -1  -1  -1  164.98    5.80
  -1  -1  -1  174.48    5.80
  -2  -1  -1  238.68    8.60
  -2  -1  -1  236.58    8.50
  -2  -1  -1  233.98    8.60
  -2  -1  -1  228.58    8.40
   2   1   1  234.88    8.80
   2   1   1  237.18    8.60
  -3  -1  -1   26.70    1.30
  -3  -1  -1   26.40    1.20
  -3  -1  -1   28.10    1.40
  -3  -1  -1   26.60    1.30
   3   1   1   26.10    1.40
   3   1   1   28.20    1.40
  -4  -1  -1   72.89    3.10
  -4  -1  -1   77.39    3.10
  -4  -1  -1   67.29    3.10
   4   1   1   71.99    3.10
  -5  -1  -1  868.81   31.60
  -5  -1  -1  870.61   31.70
  -5  -1  -1  865.01   31.30
   5   1   1  890.81   31.70
  -6  -1  -1   41.60    2.30
  -6  -1  -1   40.30    2.10
  -6  -1  -1   38.90    2.40
   6   1   1   38.10    2.30
  -7  -1  -1    5.10    1.60
  -7  -1  -1    5.80    1.00
  -7  -1  -1    5.30    1.10
  -8  -1  -1    5.30    1.20
  -8  -1  -1    6.00    1.50
  -8  -1  -1    7.20    2.00
  -8  -1  -1    4.70    1.70
  -9  -1  -1   40.30    2.80
  -9  -1  -1   35.40    3.90
  -9  -1  -1   36.70    3.10
  -9  -1  -1   33.70    4.20
 -10  -1  -1    1.20    1.20
 -10  -1  -1    2.20    1.90
 -10  -1  -1    0.50    1.90
 -10  -1  -1    2.20    1.40
 -11  -1  -1    2.60    1.90
 -11  -1  -1    2.90    1.80
 -11  -1  -1    1.30    1.20
  13  -2  -1    1.00    0.70
 -13   2   1    1.90    0.90
 -12   2   1    5.80    1.90
 -12   2   1    5.40    1.50
 -12   2   1    5.60    2.00
 -11   2   1   21.50    3.00
 -11   2   1   21.40    2.50
 -11   2   1   25.40    3.40
 -11   2   1   17.20    2.20
 -10   2   1    7.60    2.20
 -10   2   1   10.40    1.70
 -10   2   1   11.60    2.50
 -10   2   1    7.20    1.70
  -9   2   1    2.10    1.60
  -9   2   1    1.00    1.20
  -9   2   1    1.50    1.70
  -9   2   1    1.20    1.10
  -8   2   1    1.80    1.40
  -8   2   1    0.80    0.90
  -8   2   1    1.20    0.90
  -8   2   1    1.90    0.90
   7  -2  -1    4.50    0.80
  -7   2   1    4.30    0.90
  -7   2   1    3.90    0.90
  -7   2   1    2.90    0.90
   6  -2  -1   11.40    1.00
  -6   2   1   11.20    1.30
  -6   2   1   11.10    1.20
  -6   2   1   10.40    1.20
  -6   2   1   11.50    1.10
   5  -2  -1    7.20    0.80
  -5   2   1    7.00    0.80
  -5   2   1    7.50    0.90
  -5   2   1    6.70    0.80
   4  -2  -1    6.50    0.70
   4  -2  -1    6.20    0.60
  -4   2   1    7.60    0.80
  -4   2   1    5.80    0.90
  -4   2   1    6.60    0.80
   3  -2  -1   55.39    2.30
   3  -2  -1   55.69    2.30
  -3   2   1   53.89    2.40
  -3   2   1   56.39    2.50
  -3   2   1   54.89    2.40
  -3   2   1   56.29    2.30
  -3   2   1   56.99    2.30
   2  -2  -1  282.47   10.10
   2  -2  -1  284.37   10.10
  -2   2   1  262.57   10.20
  -2   2   1  284.17   10.20
  -2   2   1  284.37   10.10
  -2   2   1  280.07   10.40
  -2   2   1  272.27   10.10
   1  -2  -1  279.47   10.30
   1  -2  -1  281.57   10.30
   1  -2  -1  291.07   10.30
  -1   2   1  283.47   10.30
  -1   2   1  285.97   10.30
  -1   2   1  289.97   10.70
  -1   2   1  290.27   10.40
   0  -2  -1   35.00    1.40
   0  -2  -1   36.30    1.40
   0  -2  -1   37.40    1.50
   0   2   1   36.10    1.50
   0   2   1   35.20    1.40
   0   2   1   35.50    1.90
  -1  -2  -1   38.50    1.50
  -1  -2  -1   37.60    1.50
  -1  -2  -1   39.70    1.80
  -1  -2  -1   37.70    1.60
   1   2   1   40.40    2.00
   1   2   1   39.80    1.60
  -2  -2  -1   11.20    0.60
  -2  -2  -1   11.70    0.90
  -2  -2  -1   12.20    0.60
  -2  -2  -1   11.10    0.80
  -2  -2  -1   12.10    0.70
   2   2   1   12.00    1.00
  -3  -2  -1   10.20    0.70
  -3  -2  -1   12.70    0.80
  -3  -2  -1   12.90    0.90
   3   2   1   12.30    1.10
   3   2   1   12.30    0.90
  -4  -2  -1    2.10    0.50
  -4  -2  -1    3.40    0.70
   4   2   1    3.20    0.60
  -5  -2  -1   71.59    3.20
  -5  -2  -1   70.09    3.20
  -5  -2  -1   65.09    2.80
   5   2   1   73.79    3.40
  -6  -2  -1   77.69    3.50
  -6  -2  -1   78.59    3.90
  -6  -2  -1   87.59    3.80
  -6  -2  -1   86.79    5.60
   6   2   1   81.89    4.00
  -7  -2  -1   -0.50    1.30
  -7  -2  -1    0.30    1.30
  -7  -2  -1    0.00    1.00
  -7  -2  -1    1.10    0.90
  -8  -2  -1   13.50    1.90
  -8  -2  -1    9.00    2.30
  -8  -2  -1   10.60    1.50
  -8  -2  -1   10.50    2.30
  -9  -2  -1   -0.20    1.70
  -9  -2  -1    1.10    1.10
  -9  -2  -1    1.40    1.30
  -9  -2  -1    2.00    2.10
 -10  -2  -1    9.70    1.70
 -10  -2  -1    9.40    2.30
 -10  -2  -1   10.00    2.60
 -11  -2  -1    7.70    1.80
 -11  -2  -1    7.30    2.00
  13  -3  -1    2.10    0.90
 -13   3   1    1.80    1.10
  12  -3  -1   -0.40    0.90
 -12   3   1   -0.40    1.30
 -11   3   1    4.20    2.10
 -11   3   1    6.40    2.20
 -11   3   1    6.30    1.80
 -10   3   1   36.90    3.90
 -10   3   1   35.30    3.70
 -10   3   1   40.20    3.00
 -10   3   1   38.90    3.10
  -9   3   1   16.90    1.90
  -9   3   1   24.90    2.40
  -9   3   1   20.40    2.80
  -9   3   1   19.30    2.80
  -8   3   1    0.40    0.80
  -8   3   1    1.10    0.90
  -8   3   1    0.70    0.80
   7  -3  -1   44.10    2.30
  -7   3   1   42.10    2.70
  -7   3   1   42.70    2.40
  -7   3   1   47.70    2.60
   6  -3  -1  162.88    6.70
  -6   3   1  172.78    6.80
  -6   3   1  180.78    6.90
  -6   3   1  179.88    7.10
  -6   3   1  168.78    7.10
   5  -3  -1  381.36   14.20
  -5   3   1  381.06   14.50
  -5   3   1  387.16   14.60
  -5   3   1  384.16   14.20
  -5   3   1  402.76   14.30
   4  -3  -1    7.30    0.70
   4  -3  -1    5.90    0.70
  -4   3   1    6.50    0.70
  -4   3   1    6.70    0.70
  -4   3   1    6.30    0.80
  -4   3   1    8.10    1.00
  -4   3   1    6.60    1.00
   3  -3  -1   98.99    3.90
   3  -3  -1  104.39    4.00
  -3   3   1  100.49    3.90
  -3   3   1  100.89    4.40
  -3   3   1  102.49    4.20
  -3   3   1  104.69    3.90
  -3   3   1  100.59    4.10
   2  -3  -1   39.30    1.60
   2  -3  -1   38.30    1.60
  -2   3   1   36.80    1.70
  -2   3   1   33.00    1.60
  -2   3   1   40.10    1.60
  -2   3   1   35.30    2.00
  -2   3   1   35.60    1.50
   1  -3  -1  277.77    9.90
   1  -3  -1  260.57   10.00
   1  -3  -1  266.17   10.00
  -1   3   1  286.37   10.10
  -1   3   1  282.97   10.60
  -1   3   1  270.07    9.80
   0  -3  -1 1037.80   36.70
   0  -3  -1  985.60   36.50
   0  -3  -1 1037.70   36.50
   0   3   1 1006.40   36.40
   0   3   1 1048.70   37.20
   0   3   1 1031.10   36.60
  -1  -3  -1   35.70    1.80
  -1  -3  -1   38.20    1.60
  -1  -3  -1   37.70    1.50
  -1  -3  -1   35.70    1.50
   1   3   1   37.20    1.60
   1   3   1   37.40    2.20
  -2  -3  -1    6.10    0.50
  -2  -3  -1    7.20    0.60
  -2  -3  -1    5.50    0.60
  -2  -3  -1    7.50    0.90
   2   3   1    7.00    1.00
   2   3   1    6.90    0.60
  -3  -3  -1   54.69    2.40
  -3  -3  -1   52.89    2.40
   3   3   1   57.69    2.60
   3   3   1   52.69    2.90
  -4  -3  -1  147.99    5.90
  -4  -3  -1  151.28    6.00
   4   3   1  154.18    6.20
  -5  -3  -1   17.70    1.10
  -5  -3  -1   18.20    1.40
   5   3   1   19.00    1.60
  -6  -3  -1   99.29    5.40
  -6  -3  -1  101.39    4.20
   6   3   1   94.39    4.70
  -7  -3  -1   35.10    3.50
  -7  -3  -1   34.60    2.40
  -7  -3  -1   32.30    3.40
  -8  -3  -1    7.60    1.50
  -8  -3  -1    8.60    2.30
  -8  -3  -1    7.00    2.00
  -9  -3  -1   -0.80    1.70
  -9  -3  -1    0.90    1.10
  -9  -3  -1    4.00    2.10
 -10  -3  -1    6.90    2.30
 -10  -3  -1    8.70    2.00
 -11  -3  -1    5.00    1.40
  13  -4  -1    0.60    0.80
 -13   4   1    0.60    1.00
  12  -4  -1    1.20    1.00
 -12   4   1    1.10    1.30
 -11   4   1    5.80    2.10
 -11   4   1    3.10    1.50
 -10   4   1    6.60    2.10
 -10   4   1    7.20    1.60
  -9   4   1    2.00    1.10
  -9   4   1    2.30    1.10
  -9   4   1    4.00    1.70
  -8   4   1    4.10    1.00
  -8   4   1    3.70    1.00
   7  -4  -1   86.89    3.90
  -7   4   1   85.49    3.90
  -7   4   1   90.19    4.50
  -7   4   1   86.39    4.10
   6  -4  -1    2.80    0.60
  -6   4   1    1.90    0.60
  -6   4   1    2.30    0.90
  -6   4   1    1.40    0.60
  -6   4   1    2.20    0.80
   5  -4  -1  177.38    6.80
  -5   4   1  170.48    7.40
  -5   4   1  175.08    7.10
  -5   4   1  182.38    6.90
   4  -4  -1   16.20    1.00
   4  -4  -1   14.70    1.10
  -4   4   1   15.00    1.00
  -4   4   1   15.80    1.00
  -4   4   1   15.50    1.50
  -4   4   1   17.40    1.60
  -4   4   1   15.70    1.20
   3  -4  -1   20.40    1.20
   3  -4  -1   19.70    1.10
  -3   4   1   21.90    1.70
  -3   4   1   19.70    1.10
  -3   4   1   20.10    1.20
  -3   4   1   21.50    1.40
  -3   4   1   21.90    1.10
   2  -4  -1   22.40    1.20
   2  -4  -1   21.70    1.20
  -2   4   1   23.70    1.30
  -2   4   1   20.90    1.20
  -2   4   1   20.20    1.00
  -2   4   1   22.60    1.70
  -2   4   1   21.50    1.10
   1  -4  -1   61.29    2.60
   1  -4  -1   64.39    2.50
   1  -4  -1   57.99    2.50
  -1   4   1   64.89    3.30
  -1   4   1   58.79    2.30
  -1   4   1   67.09    2.70
   0  -4  -1  225.08    7.90
   0  -4  -1  205.48    7.90
   0  -4  -1  222.38    8.10
   0   4   1  200.58    7.70
   0   4   1  215.08    8.80
   0   4   1  223.48    8.00
  -1  -4  -1  224.08    7.90
  -1  -4  -1  217.78    8.30
  -1  -4  -1  200.98    7.90
   1   4   1  221.28    8.90
   1   4   1  212.78    8.00
  -2  -4  -1    6.50    0.90
  -2  -4  -1    8.00    0.70
   2   4   1    7.10    1.20
  -3  -4  -1    7.40    0.80
   3   4   1    6.90    0.90
  -4  -4  -1    5.50    0.80
   4   4   1    6.80    1.00
  -5  -4  -1   87.99    4.00
  -5  -4  -1   89.39    4.80
  -5  -4  -1   84.69    3.60
   5   4   1   92.69    4.30
  -6  -4  -1   61.99    3.00
  -6  -4  -1   57.99    4.10
  -6  -4  -1   60.89    4.30
   6   4   1   58.29    3.40
  -7  -4  -1    8.20    1.40
  -7  -4  -1    4.40    1.90
  -7  -4  -1    4.60    1.90
  -8  -4  -1   16.00    2.90
  -8  -4  -1   17.30    1.90
  -8  -4  -1   14.60    2.70
  -9  -4  -1   53.59    4.40
  -9  -4  -1   56.09    4.60
 -10  -4  -1   25.70    3.00
  13  -5  -1    8.60    1.20
 -13   5   1    6.90    1.30
  12  -5  -1    6.80    1.50
 -12   5   1    3.80    1.40
  11  -5  -1    8.50    1.60
 -11   5   1    8.30    1.70
  10  -5  -1   13.50    1.80
 -10   5   1   16.40    2.00
  -9   5   1   16.80    2.60
  -9   5   1   11.40    1.70
  -9   5   1   10.70    1.80
  -8   5   1   39.90    2.60
  -8   5   1   46.00    3.20
   7  -5  -1  200.38    8.00
  -7   5   1  208.98    8.20
  -7   5   1  205.48    8.70
   6  -5  -1  104.69    4.40
  -6   5   1  101.09    4.40
  -6   5   1  109.59    5.10
   5  -5  -1   83.79    3.70
  -5   5   1   87.49    4.50
  -5   5   1   92.99    3.70
   4  -5  -1    2.90    0.50
   4  -5  -1    3.70    0.60
  -4   5   1    2.90    0.80
  -4   5   1    2.90    0.50
  -4   5   1    3.10    0.50
   3  -5  -1  103.59    4.20
   3  -5  -1  109.29    4.20
  -3   5   1   98.09    4.00
  -3   5   1  108.69    4.20
  -3   5   1  105.19    5.10
  -3   5   1  104.99    4.50
   2  -5  -1  202.18    7.70
   2  -5  -1  206.68    7.60
  -2   5   1  212.98    7.80
  -2   5   1  208.38    8.60
  -2   5   1  184.98    7.30
   1  -5  -1    6.80    0.70
   1  -5  -1    7.20    0.80
  -1   5   1    5.20    0.70
  -1   5   1    6.00    1.20
   0  -5  -1   98.99    4.10
   0  -5  -1   95.09    3.80
   0   5   1   96.39    4.90
   0   5   1   96.19    3.90
  -1  -5  -1    1.50    0.40
  -1  -5  -1    1.20    0.60
   1   5   1    1.30    0.40
   1   5   1    1.80    0.80
  -2  -5  -1    1.30    0.50
  -2  -5  -1    0.80    0.70
   2   5   1    0.60    0.70
  -3  -5  -1   28.50    1.70
   3   5   1   29.90    2.00
  -4  -5  -1    0.10    0.60
   4   5   1    0.20    0.70
  -5  -5  -1   34.60    3.00
  -5  -5  -1   29.70    3.10
  -5  -5  -1   30.70    1.90
   5   5   1   32.50    2.40
  -6  -5  -1   -0.40    1.30
  -6  -5  -1    0.90    1.00
  -6  -5  -1    0.90    1.50
  -7  -5  -1   12.90    2.60
  -7  -5  -1   17.80    1.80
  -7  -5  -1   14.60    2.70
  -8  -5  -1    8.60    1.40
  -8  -5  -1   12.10    2.50
  -8  -5  -1    7.80    2.30
  -9  -5  -1    4.30    1.80
  -9  -5  -1    5.60    1.80
  13  -6  -1    0.90    0.80
 -13   6   1    0.90    0.90
  12  -6  -1   12.90    1.70
  11  -6  -1   27.70    2.60
 -11   6   1   33.40    2.80
  10  -6  -1    5.90    1.40
 -10   6   1    8.50    2.00
 -10   6   1    7.40    1.50
   9  -6  -1  105.69    4.90
  -9   6   1   98.99    5.00
  -9   6   1   94.89    5.50
   8  -6  -1   42.60    3.30
  -8   6   1   46.50    3.50
  -8   6   1   48.80    2.80
   7  -6  -1   75.09    3.60
  -7   6   1   82.89    4.50
  -7   6   1   78.99    3.70
   6  -6  -1   71.79    3.30
  -6   6   1   69.29    4.10
  -6   6   1   72.89    3.30
   5  -6  -1   40.70    2.00
  -5   6   1   39.20    1.90
  -5   6   1   30.70    3.20
  -5   6   1   39.00    2.80
   4  -6  -1  392.56   14.60
   4  -6  -1  387.16   14.30
   4  -6  -1  393.56   14.50
  -4   6   1  405.16   15.80
  -4   6   1  378.06   14.30
  -4   6   1  393.66   15.10
  -4   6   1  394.46   14.50
   3  -6  -1  195.78    7.40
   3  -6  -1  199.78    7.70
   3  -6  -1  197.48    7.60
  -3   6   1  200.78    8.80
  -3   6   1  203.38    8.00
  -3   6   1  195.28    7.50
   2  -6  -1  306.47   11.50
   2  -6  -1  306.87   11.70
   2  -6  -1  309.57   11.90
  -2   6   1  330.47   12.10
  -2   6   1  329.87   13.10
   1  -6  -1   43.50    2.00
   1  -6  -1   44.20    2.20
   1  -6  -1   39.90    1.80
  -1   6   1   41.00    3.10
  -1   6   1   38.20    2.10
   0  -6  -1   97.29    4.30
   0  -6  -1   92.09    3.70
   0  -6  -1   99.39    4.00
   0   6   1  102.49    5.40
   0   6   1   95.39    4.00
  -1  -6  -1    1.40    0.70
  -1  -6  -1    1.00    0.50
  -1  -6  -1    1.70    0.30
   1   6   1    1.90    1.00
  -2  -6  -1    6.40    1.20
  -2  -6  -1    5.70    0.80
  -2  -6  -1    8.00    0.80
   2   6   1    6.40    1.60
  -3  -6  -1   52.39    2.40
  -3  -6  -1   53.29    2.80
   3   6   1   59.39    3.10
  -4  -6  -1  100.99    5.30
  -4  -6  -1   91.39    3.90
  -4  -6  -1   91.39    5.30
   4   6   1   98.09    4.70
  -5  -6  -1   94.19    5.40
  -5  -6  -1   90.59    4.10
  -5  -6  -1  101.99    5.80
  -6  -6  -1    1.50    1.60
  -6  -6  -1    2.50    1.20
  -6  -6  -1    1.10    1.50
  -7  -6  -1    6.20    1.40
  -7  -6  -1    8.10    2.30
  -7  -6  -1    5.30    2.10
  -8  -6  -1    8.70    2.10
  -8  -6  -1    9.60    2.20
  -9  -6  -1    1.70    1.40
  -9  -6  -1    1.70    1.30
  13  -7  -1   12.80    1.50
  12  -7  -1   13.70    1.70
 -12   7   1   14.40    2.30
  11  -7  -1   11.90    1.70
 -11   7   1   10.50    2.20
  10  -7  -1    1.30    1.10
 -10   7   1   -0.60    1.30
  -9   7   1    1.50    1.40
   8  -7  -1   46.20    2.90
  -8   7   1   48.60    3.70
  -8   7   1   50.69    2.90
  -7   7   1    3.70    0.90
  -7   7   1    6.40    1.50
   6  -7  -1   12.30    1.20
  -6   7   1   11.40    1.90
   5  -7  -1    3.20    0.70
   5  -7  -1    5.30    0.90
  -5   7   1   -0.80    1.50
  -5   7   1    4.30    1.40
   4  -7  -1   11.50    1.20
   4  -7  -1   11.90    1.00
   4  -7  -1   12.20    1.20
  -4   7   1   11.80    1.10
  -4   7   1    8.40    1.40
  -4   7   1    8.10    1.80
   3  -7  -1  113.49    4.90
   3  -7  -1  114.39    4.60
   3  -7  -1  121.59    4.90
  -3   7   1  122.09    6.30
  -3   7   1  119.09    5.30
  -3   7   1  106.59    4.70
   2  -7  -1    4.90    0.90
   2  -7  -1    4.40    0.70
   2  -7  -1    5.50    0.60
  -2   7   1    5.70    1.50
  -2   7   1    5.90    1.00
   1  -7  -1   84.89    3.60
   1  -7  -1   80.59    3.30
   1  -7  -1   84.39    3.80
  -1   7   1   78.99    4.90
  -1   7   1   77.09    3.70
   0  -7  -1   32.60    1.80
   0  -7  -1   32.40    2.10
   0  -7  -1   32.50    1.50
   0   7   1   29.00    3.10
  -1  -7  -1    3.90    1.00
  -1  -7  -1    3.10    0.50
  -1  -7  -1    4.90    0.80
   1   7   1    3.70    1.50
  -2  -7  -1   11.00    1.00
  -2  -7  -1    8.50    1.10
   2   7   1   10.70    1.30
  -3  -7  -1    4.90    0.80
  -3  -7  -1    6.80    1.70
   3   7   1    5.70    1.20
  -4  -7  -1    2.00    1.50
  -4  -7  -1    0.40    0.80
  -4  -7  -1    0.30    1.20
  -5  -7  -1   -0.50    1.50
  -5  -7  -1    1.00    1.10
  -5  -7  -1    0.10    1.40
  -6  -7  -1   -0.50    1.60
  -6  -7  -1    2.90    1.30
  -6  -7  -1   -1.80    1.30
  -7  -7  -1   -0.90    1.50
  -7  -7  -1    0.60    1.40
  -8  -7  -1    2.90    1.40
  -8  -7  -1    0.30    1.30
  13  -8  -1    1.20    0.80
  12  -8  -1    9.10    1.50
  11  -8  -1   19.30    2.20
 -11   8   1   21.20    2.80
  10  -8  -1    1.90    1.10
 -10   8   1    1.10    1.50
   9  -8  -1    9.70    1.50
  -9   8   1   10.20    2.10
   8  -8  -1    1.60    1.00
  -8   8   1    1.80    1.50
   7  -8  -1    2.40    1.00
  -7   8   1    4.20    1.50
   6  -8  -1   36.50    2.30
  -6   8   1   39.10    3.20
   5  -8  -1    2.70    0.60
   5  -8  -1    1.70    0.60
  -5   8   1    0.60    1.10
  -5   8   1   -4.50    1.40
   4  -8  -1   17.50    1.50
   4  -8  -1   18.40    1.30
   4  -8  -1   18.70    1.50
  -4   8   1   14.00    2.70
  -4   8   1   16.30    1.40
  -4   8   1   16.80    2.10
   3  -8  -1  199.28    8.00
   3  -8  -1  214.18    7.70
   3  -8  -1  203.18    8.10
  -3   8   1  191.68    8.50
  -3   8   1  205.78   10.00
  -3   8   1  194.18    7.80
   2  -8  -1  211.88    8.20
   2  -8  -1  210.98    7.90
   2  -8  -1  206.88    8.40
  -2   8   1  198.88    8.60
  -2   8   1  209.28   10.20
   1  -8  -1   67.29    2.90
   1  -8  -1   68.79    3.50
   1  -8  -1   64.69    3.20
  -1   8   1   74.29    5.10
   0  -8  -1   30.00    2.30
   0  -8  -1   27.10    1.80
   0  -8  -1   29.20    1.60
   0   8   1   26.10    3.30
  -1  -8  -1   55.99    2.60
  -1  -8  -1   57.09    3.50
  -2  -8  -1   99.09    4.20
  -2  -8  -1  101.59    5.60
   2   8   1  106.59    5.00
  -3  -8  -1   41.20    3.60
  -3  -8  -1   40.90    2.40
  -4  -8  -1   35.70    2.60
  -4  -8  -1   43.20    3.90
  -5  -8  -1    7.60    1.50
  -5  -8  -1    5.80    2.10
  -5  -8  -1    3.80    1.70
  -6  -8  -1    2.00    1.50
  -6  -8  -1   -0.80    1.50
  -7  -8  -1    1.60    1.60
  -7  -8  -1    2.00    1.40
  13  -9  -1    9.20    1.20
  12  -9  -1    2.60    1.00
 -12   9   1    2.80    1.50
  11  -9  -1    0.20    1.00
 -11   9   1   -1.00    1.50
  10  -9  -1    8.00    1.50
 -10   9   1    6.70    2.20
   9  -9  -1   28.00    2.40
  -9   9   1   25.30    3.20
   8  -9  -1    1.90    1.00
  -8   9   1    3.70    1.80
   7  -9  -1    1.00    0.90
   7  -9  -1    2.80    1.00
  -7   9   1    2.30    1.50
   6  -9  -1    0.50    0.80
   6  -9  -1   -0.50    0.70
  -6   9   1    1.30    1.30
   5  -9  -1    6.30    0.90
   5  -9  -1    6.20    1.10
  -5   9   1    5.50    1.60
   4  -9  -1   36.60    2.10
   4  -9  -1   34.80    2.30
   4  -9  -1   39.00    2.40
  -4   9   1   34.30    2.20
  -4   9   1   41.60    3.50
   3  -9  -1   14.50    1.40
   3  -9  -1   13.70    1.50
   3  -9  -1   14.00    1.60
  -3   9   1   12.00    1.80
  -3   9   1   13.60    1.30
   2  -9  -1    2.10    0.90
   2  -9  -1    2.30    0.80
   2  -9  -1    2.10    0.70
   1  -9  -1   10.60    1.50
   1  -9  -1   14.00    1.30
   0  -9  -1    4.60    1.20
   0  -9  -1    3.10    1.30
   0  -9  -1   -0.30    2.30
   0  -9  -1    2.60    0.70
  -1  -9  -1    2.60    1.40
  -1  -9  -1   -0.80    2.60
  -1  -9  -1    0.40    0.80
  -2  -9  -1   30.30    3.20
  -2  -9  -1   25.50    2.10
  -3  -9  -1   37.70    2.50
  -3  -9  -1   32.30    3.60
  -4  -9  -1   18.50    1.90
  -4  -9  -1   18.00    2.70
  -5  -9  -1    4.10    1.80
  -6  -9  -1    0.00    1.40
  13 -10  -1    0.80    0.70
  12 -10  -1    8.50    1.30
 -12  10   1    6.10    1.70
  11 -10  -1   17.10    1.90
 -11  10   1   14.60    2.40
  10 -10  -1    0.90    1.10
 -10  10   1    0.10    1.70
   9 -10  -1    4.60    1.30
  -9  10   1    2.70    2.00
   8 -10  -1   79.39    4.20
  -8  10   1   77.49    5.20
   7 -10  -1  169.08    7.00
   7 -10  -1  163.18    7.30
  -7  10   1  163.98    7.90
   6 -10  -1   19.30    2.00
   6 -10  -1   19.50    2.20
  -6  10   1   22.10    2.80
   5 -10  -1    1.20    0.80
   5 -10  -1    1.10    0.80
   5 -10  -1    2.70    1.10
   5 -10  -1    1.00    1.10
  -5  10   1    1.20    1.20
   4 -10  -1    5.70    3.60
   4 -10  -1    7.00    1.00
   4 -10  -1    8.60    1.50
   4 -10  -1    6.70    1.20
   3 -10  -1   95.79    4.90
   3 -10  -1   95.79    4.10
   3 -10  -1   88.79    4.60
   3 -10  -1   95.99    8.60
   2 -10  -1   24.80    4.50
   2 -10  -1   28.40    2.40
   2 -10  -1   25.70    2.60
   2 -10  -1   26.30    2.00
   1 -10  -1   20.20    1.90
   1 -10  -1   13.90    3.70
   1 -10  -1   21.70    2.50
   0 -10  -1   -0.30    1.20
   0 -10  -1    1.30    1.00
   0 -10  -1   -0.30    2.70
  -1 -10  -1   48.00    2.80
  -1 -10  -1   49.30    7.80
  -1 -10  -1   49.20    4.00
  -2 -10  -1   14.40    1.60
  -2 -10  -1   13.80    2.30
  -3 -10  -1   49.00    4.10
  -3 -10  -1   47.50    3.00
  -4 -10  -1    1.50    1.60
  -5 -10  -1    2.00    1.40
  -6 -10  -1    2.00    1.10
  12 -11  -1    0.60    0.90
 -12  11   1    0.70    1.20
  11 -11  -1    5.20    1.30
 -11  11   1    1.70    1.50
  10 -11  -1    0.30    1.10
 -10  11   1   -1.40    1.50
   9 -11  -1   -0.60    1.00
  -9  11   1   -1.40    1.70
   8 -11  -1   12.40    1.80
  -8  11   1    9.80    2.30
   7 -11  -1    2.60    1.10
   7 -11  -1    3.00    1.20
  -7  11   1    6.30    1.90
   6 -11  -1   -0.10    1.00
   6 -11  -1    0.30    1.20
  -6  11   1    4.90    1.60
   5 -11  -1   45.40    3.20
   5 -11  -1   53.49    8.20
   5 -11  -1   43.30    2.90
   5 -11  -1   38.90    3.10
  -5  11   1   41.90    4.50
   4 -11  -1   -0.10    1.20
   4 -11  -1   -2.50    3.50
   4 -11  -1    1.00    1.00
   4 -11  -1    2.50    1.00
   3 -11  -1   22.70    2.60
   3 -11  -1   21.00    2.10
   3 -11  -1   22.00    4.90
   2 -11  -1   -0.60    1.00
   2 -11  -1    0.90    1.20
   2 -11  -1    0.10    2.90
   1 -11  -1    6.90    1.30
   1 -11  -1    5.70    1.70
   1 -11  -1    7.60    3.70
   0 -11  -1    7.10    1.90
   0 -11  -1    9.50    1.50
   0 -11  -1   11.10    4.20
  -1 -11  -1    2.30    1.50
  -1 -11  -1    0.40    1.20
  -1 -11  -1    4.70    4.00
  -2 -11  -1   23.20    2.80
  -3 -11  -1    2.10    1.60
  -4 -11  -1   -0.70    1.20
  12 -12  -1   39.30    2.40
 -12  12   1   37.90    3.10
  11 -12  -1   20.40    2.00
 -11  12   1   16.10    2.30
  10 -12  -1   24.20    2.30
 -10  12   1   19.20    2.60
   9 -12  -1    9.30    1.60
  -9  12   1    8.40    2.10
   8 -12  -1    2.00    1.20
  -8  12   1    5.40    1.90
   7 -12  -1   11.00    1.80
   7 -12  -1   13.40    1.70
  -7  12   1   16.90    2.40
   6 -12  -1   15.10    2.10
   6 -12  -1   14.30    1.90
   6 -12  -1   11.10    4.50
   5 -12  -1   -2.50    3.60
   5 -12  -1    3.00    1.30
   5 -12  -1    1.40    1.40
   4 -12  -1   66.39    4.10
   4 -12  -1   61.29    9.10
   4 -12  -1   60.09    3.90
   4 -12  -1   60.99    3.30
   3 -12  -1  119.89    5.50
   3 -12  -1  125.99    6.20
   3 -12  -1  137.49   11.60
   3 -12  -1  121.59    6.30
   2 -12  -1   15.50    1.70
   2 -12  -1   14.70    4.60
   2 -12  -1   16.30    2.40
   1 -12  -1    5.00    1.40
   1 -12  -1    9.00    4.40
   1 -12  -1    6.80    1.90
   0 -12  -1   15.00    1.80
   0 -12  -1   23.20    5.10
   0 -12  -1   18.00    2.60
  -1 -12  -1    4.80    1.60
  -1 -12  -1    7.20    3.90
  -2 -12  -1   15.90    2.20
  -3 -12  -1    1.40    1.20
  11 -13  -1    3.10    1.00
 -11  13   1    2.30    1.30
  10 -13  -1   13.00    1.60
 -10  13   1    7.50    1.70
   9 -13  -1   31.70    2.60
  -9  13   1   30.80    3.00
   8 -13  -1   14.20    1.90
  -8  13   1   11.60    2.00
   7 -13  -1   13.30    2.00
   7 -13  -1   10.90    1.60
   6 -13  -1    0.50    1.30
   6 -13  -1   -4.30    2.40
   6 -13  -1    1.50    1.20
   5 -13  -1   38.20    3.20
   5 -13  -1   33.40    6.00
   5 -13  -1   38.50    3.10
   4 -13  -1  145.89   12.10
   4 -13  -1  121.39    5.70
   4 -13  -1  131.89    6.50
   4 -13  -1  131.89    6.30
   3 -13  -1   29.40    2.60
   3 -13  -1   33.60    3.50
   3 -13  -1   42.60    8.80
   3 -13  -1   33.10    3.10
   2 -13  -1    1.70    2.70
   2 -13  -1   -0.40    1.20
   2 -13  -1    1.00    1.40
   2 -13  -1    1.50    3.70
   1 -13  -1    6.90    4.10
   1 -13  -1    5.50    1.70
   0 -13  -1   22.80    2.70
   0 -13  -1   41.60    7.50
  -1 -13  -1   38.70    3.10
  -2 -13  -1    4.90    1.30
  10 -14  -1   21.40    1.90
 -10  14   1   20.10    2.10
   9 -14  -1   16.80    1.90
  -9  14   1   19.20    2.10
   8 -14  -1    9.40    1.60
   7 -14  -1    2.80    1.20
   7 -14  -1    2.10    0.90
   6 -14  -1    0.90    2.30
   6 -14  -1    4.50    1.40
   6 -14  -1    2.80    1.20
   5 -14  -1   -0.90    2.90
   5 -14  -1    6.40    1.60
   5 -14  -1    3.80    1.40
   4 -14  -1   11.80    4.30
   4 -14  -1   13.80    2.00
   4 -14  -1   18.80    2.30
   3 -14  -1   -0.40    1.10
   3 -14  -1    1.20    1.70
   3 -14  -1    2.00    3.50
   2 -14  -1    3.30    1.70
   2 -14  -1    4.10    3.60
   2 -14  -1    1.80    1.30
   1 -14  -1    9.50    2.00
   1 -14  -1   10.00    1.70
   1 -14  -1   11.00    3.80
   0 -14  -1    0.70    1.60
   0 -14  -1    0.60    1.10
   0  14   1   -9.60    4.00
   9 -15  -1   21.40    1.80
   8 -15  -1    0.90    0.90
   7 -15  -1    1.30    1.00
   6 -15  -1    2.80    1.10
   6 -15  -1    1.60    1.00
  -6  15   1   24.60    8.90
   5 -15  -1    4.40    1.20
   5 -15  -1    6.00    1.50
   4 -15  -1   44.80    6.50
   4 -15  -1   41.90    2.90
   4 -15  -1   43.50    3.10
   3 -15  -1    1.70    1.60
   3 -15  -1    1.20    1.00
   2 -15  -1    1.10    1.00
   2 -15  -1    2.60    1.60
  -2  15   1    7.40    5.30
  -1  15  -2    1.50    2.70
   1 -15   2    1.00    0.80
   1 -15   2   -0.50    1.50
  -2  15  -2    0.30    4.10
   2 -15   2    0.90    1.50
   2 -15   2    0.50    1.00
  -3  15  -2   11.90    5.90
   3 -15   2   -0.20    1.00
   3 -15   2    0.10    1.40
  -4  15  -2   23.10    7.40
   4 -15   2    3.20    1.30
   4 -15   2    2.50    1.20
  -5  15  -2   15.60    7.80
   5 -15   2    1.40    1.10
   5 -15   2    3.70    1.00
  -6  15  -2   -6.70    6.50
   6 -15   2    5.40    1.30
   7 -15   2   -1.00    0.80
   8 -15   2    0.10    0.90
   9 -15   2    3.50    1.00
  -1 -14   2    4.60    1.20
  -1 -14   2    1.90    1.60
   0  14  -2   12.00    3.50
   0 -14   2   14.90    1.90
   0 -14   2   12.40    2.10
  -1  14  -2   19.30    5.80
   1 -14   2   18.90    2.20
   1 -14   2   13.80    2.20
   2 -14   2    9.20    1.90
   2 -14   2    9.20    2.00
   3 -14   2    1.70    1.30
   3 -14   2    4.20    1.70
  -4  14  -2   98.39   13.80
   5 -14   2   58.09    3.60
   5 -14   2   56.99    3.30
  -6  14  -2   51.79   10.80
   6 -14   2   15.20    1.70
   6 -14   2   15.30    2.00
   7 -14   2    5.70    1.40
   8 -14   2   -0.40    0.90
   9 -14   2   10.70    1.50
 -10  14  -2   20.50    2.20
  10 -14   2   22.20    1.90
  -2 -13   2    2.20    1.80
  -2 -13   2   -0.30    1.00
   1  13  -2    1.70    3.20
  -1 -13   2   -0.40    1.70
  -1 -13   2    2.00    1.30
   0  13  -2    9.00    5.90
   0 -13   2   16.80    2.40
   0 -13   2   16.00    2.20
   1 -13   2   10.50    2.10
   1 -13   2   12.40    2.10
   1 -13   2    9.10    4.00
   2 -13   2    6.30    1.30
   2 -13   2    4.90    1.70
   2 -13   2    6.40    1.80
   2 -13   2    2.00    3.40
   3 -13   2    3.00    1.50
   3 -13   2    0.80    1.40
   3 -13   2   -4.60    2.80
   4 -13   2   12.10    1.90
   4 -13   2    2.40    3.30
   4 -13   2    9.80    1.80
   5 -13   2   18.00    2.00
   5 -13   2   11.00    3.70
   5 -13   2   12.90    1.90
  -6  13  -2   84.19   16.80
   7 -13   2   10.10    1.70
   8 -13   2    0.00    1.10
  -9  13  -2   20.30    2.70
   9 -13   2   23.30    2.20
 -10  13  -2   48.20    3.50
  10 -13   2   46.50    2.90
 -11  13  -2   24.00    2.40
  11 -13   2   27.30    2.00
  -4 -12   2    1.00    1.00
  -3 -12   2    0.10    1.10
  -2 -12   2    7.60    1.80
  -1 -12   2   38.60    3.40
  -1 -12   2   35.80    2.90
   0 -12   2   17.90    2.50
   0 -12   2   11.00    4.20
   0 -12   2   11.00    1.60
   1 -12   2   16.20    2.30
   1 -12   2   12.70    4.20
   1 -12   2   15.40    1.70
   1 -12   2   16.20    2.30
   2 -12   2   20.50    4.90
   2 -12   2   23.60    2.20
   2 -12   2   21.50    2.50
   2 -12   2   23.90    2.90
   3 -12   2   -2.50    2.90
   3 -12   2   -0.90    1.30
   3 -12   2    0.30    1.20
   3 -12   2   -0.50    0.90
   4 -12   2    3.50    3.70
   4 -12   2    9.50    1.80
   4 -12   2   10.00    1.70
   5 -12   2   31.50    2.80
   5 -12   2   30.60    2.80
   5 -12   2   33.40    5.80
   6 -12   2   -1.90    2.10
   6 -12   2   -0.80    0.90
   6 -12   2    0.20    1.00
   7 -12   2    2.70    0.90
   7 -12   2    1.00    1.10
  -8  12  -2   66.29    4.50
   8 -12   2   65.79    3.90
  -9  12  -2   10.80    2.20
   9 -12   2   11.00    1.70
 -10  12  -2    5.20    1.80
  10 -12   2    5.00    1.30
 -11  12  -2    1.40    1.40
  11 -12   2    1.20    0.90
 -12  12  -2    1.00    1.20
  12 -12   2    1.30    0.80
  -5 -11   2    0.10    1.00
  -4 -11   2    2.80    1.50
  -3 -11   2   27.50    3.10
  -2 -11   2    5.00    1.40
  -2 -11   2    6.00    1.80
  -1 -11   2  132.59   10.40
  -1 -11   2  117.89    6.40
  -1 -11   2  118.39    5.50
   0 -11   2   61.49    4.30
   0 -11   2   61.09    8.40
   0 -11   2   58.99    3.30
   1 -11   2    0.60    1.20
   1 -11   2    1.80    1.00
   1 -11   2   -0.70    3.00
   2 -11   2   92.39    4.90
   2 -11   2  101.29    9.50
   2 -11   2  100.99    4.50
   2 -11   2   94.79    5.10
   3 -11   2    0.30    1.20
   3 -11   2    0.50    1.10
   3 -11   2   -2.00    3.00
   3 -11   2    2.30    0.90
   4 -11   2    0.70    1.10
   4 -11   2   -4.20    3.20
   4 -11   2    0.10    0.90
   5 -11   2    4.50    1.30
   5 -11   2   -2.30    3.30
   5 -11   2    3.30    1.20
   6 -11   2    0.70    1.00
   6 -11   2    0.60    1.00
  -7  11  -2    9.50    1.80
   7 -11   2    2.60    0.90
   7 -11   2    1.90    1.10
  -8  11  -2   51.09    4.00
   8 -11   2   55.79    3.50
  -9  11  -2    4.00    1.80
   9 -11   2    4.30    1.30
 -10  11  -2   -0.40    1.50
  10 -11   2    2.40    1.20
 -11  11  -2   23.00    2.90
  11 -11   2   23.90    2.10
 -12  11  -2    3.60    1.40
  12 -11   2    4.50    1.10
  -6 -10   2   21.70    2.30
  -5 -10   2    4.70    2.20
  -5 -10   2    9.40    1.80
  -4 -10   2   -0.10    1.20
  -4 -10   2   -0.50    1.50
  -3 -10   2   41.50    3.80
  -3 -10   2   42.10    3.10
  -2 -10   2    6.40    1.40
  -2 -10   2    7.20    1.90
  -1 -10   2   12.00    1.50
  -1 -10   2   12.60    3.90
  -1 -10   2   11.00    2.10
   0 -10   2    8.40    1.80
   0 -10   2    6.70    1.20
   0 -10   2    5.90    3.40
   1 -10   2   27.60    2.40
   1 -10   2   30.40    2.70
   1 -10   2   20.90    4.50
   1 -10   2   30.80    2.20
   2 -10   2    8.70    3.60
   2 -10   2   15.90    1.50
   2 -10   2   14.00    1.90
   2 -10   2   10.70    1.50
   3 -10   2    4.20    1.20
   3 -10   2    5.30    1.00
   3 -10   2    0.80    2.80
   3 -10   2    2.80    1.20
   4 -10   2   44.00    2.60
   4 -10   2   44.80    3.30
   4 -10   2   46.60    2.90
   4 -10   2   41.20    7.60
   5 -10   2   -0.70    1.00
   5 -10   2    0.30    0.90
  -6  10  -2   34.00    2.80
   6 -10   2   23.40    2.10
   6 -10   2   21.20    2.20
  -7  10  -2    3.40    1.50
   7 -10   2   -0.30    0.80
  -8  10  -2   27.20    3.30
   8 -10   2   26.30    2.40
  -9  10  -2   -0.30    1.60
   9 -10   2   -0.70    0.90
 -10  10  -2   49.40    4.20
  10 -10   2   52.29    3.30
 -11  10  -2    1.50    1.60
  11 -10   2    3.10    1.10
 -12  10  -2    1.00    1.30
  12 -10   2    1.20    0.90
  13 -10   2   -1.00    0.60
  -7  -9   2   15.80    1.90
  -6  -9   2   92.39    5.00
  -6  -9   2   78.59    4.90
  -5  -9   2   79.09    5.00
  -5  -9   2   71.89    4.70
  -5  -9   2   71.99    4.40
  -4  -9   2    0.30    1.60
  -4  -9   2    1.80    1.30
  -4  -9   2    0.00    1.40
  -3  -9   2   47.70    3.90
  -3  -9   2   47.80    3.00
  -3  -9   2   48.10    3.80
  -2  -9   2   17.50    1.60
  -2  -9   2   12.90    2.20
  -2  -9   2   12.40    2.20
   1   9  -2   40.30    2.70
  -1  -9   2   35.80    6.50
  -1  -9   2   39.50    3.30
  -1  -9   2   42.00    2.50
   0  -9   2   49.10    3.50
   0  -9   2   61.69    2.90
   0  -9   2   46.20    7.50
   1  -9   2    1.50    0.80
   1  -9   2    2.00    0.80
   1  -9   2    1.80    0.80
   2  -9   2   32.80    2.00
   2  -9   2   30.30    2.20
   2  -9   2   33.30    2.30
   3  -9   2  449.95   17.10
   3  -9   2  454.65   16.70
  -4   9  -2  212.78    9.40
   4  -9   2  241.48    8.80
   6  -9   2    1.80    0.90
  -7   9  -2   59.89    3.90
   7  -9   2   50.29    3.10
  -8   9  -2  204.78    9.20
   8  -9   2  200.68    8.40
  -9   9  -2  179.68    8.60
   9  -9   2  172.88    7.50
 -10   9  -2   53.99    4.30
  10  -9   2   51.49    3.20
 -11   9  -2   30.70    3.60
  11  -9   2   33.50    2.50
 -12   9  -2    1.70    1.50
  12  -9   2    3.30    1.00
  13  -9   2   23.30    1.70
  -8  -8   2   10.40    1.60
  -7  -8   2    1.20    1.50
  -7  -8   2   -0.40    1.50
  -6  -8   2   15.90    2.60
  -6  -8   2   13.60    2.60
  -5  -8   2    3.90    1.90
  -5  -8   2    3.30    1.70
  -5  -8   2    5.10    1.40
  -4  -8   2    0.40    1.30
  -4  -8   2   -0.50    1.20
  -4  -8   2    0.40    1.50
  -3  -8   2   37.60    2.50
  -3  -8   2   41.10    3.50
  -3  -8   2   41.20    3.30
   2   8  -2   30.30    2.30
  -2  -8   2   30.50    3.00
  -2  -8   2   33.30    2.10
  -2  -8   2   31.50    2.90
   1   8  -2    3.70    1.00
   1   8  -2    2.30    1.60
  -1  -8   2    4.00    1.00
  -1  -8   2    4.80    0.90
   0   8  -2   -0.50    1.10
   0  -8   2    1.80    0.80
   0  -8   2    3.10    0.80
   0  -8   2    2.60    0.70
  -1   8  -2    0.60    1.40
   1  -8   2    3.80    0.90
   1  -8   2    4.20    0.90
   1  -8   2    5.90    0.80
  -2   8  -2   -0.20    1.40
   2  -8   2    1.50    0.70
   2  -8   2    0.90    0.60
   2  -8   2    0.30    0.50
  -3   8  -2    9.50    1.10
  -3   8  -2    0.60    1.80
  -3   8  -2    7.70    1.20
   3  -8   2    8.90    1.00
   3  -8   2    8.50    1.20
   3  -8   2    9.60    1.00
  -4   8  -2   22.90    2.00
   4  -8   2   24.20    1.70
   4  -8   2   23.70    1.50
  -5   8  -2    6.20    3.10
  -5   8  -2   23.10    2.10
  -6   8  -2   30.80    2.50
  -7   8  -2    4.50    1.40
  -8   8  -2   15.70    2.20
   8  -8   2   17.30    1.80
  -9   8  -2   -1.30    1.20
   9  -8   2    0.40    0.80
 -10   8  -2   24.70    3.10
  10  -8   2   30.80    2.40
 -11   8  -2   -0.90    1.30
  11  -8   2   -0.50    0.90
 -12   8  -2   -1.10    1.30
  12  -8   2    0.70    0.90
  13  -8   2   10.70    1.30
  -8  -7   2   15.00    2.30
  -8  -7   2   12.40    2.10
  -7  -7   2   36.10    3.70
  -7  -7   2   35.60    3.70
  -6  -7   2   21.60    2.00
  -6  -7   2   14.30    2.60
  -6  -7   2   13.10    2.50
  -5  -7   2   50.09    4.20
  -5  -7   2   45.60    4.20
  -5  -7   2   56.49    3.20
  -4  -7   2   34.70    2.50
  -4  -7   2   38.20    3.40
  -4  -7   2   31.90    3.30
   3   7  -2   31.20    2.40
  -3  -7   2   28.00    2.90
  -3  -7   2   28.90    2.00
  -3  -7   2   31.00    2.80
   2   7  -2   43.80    2.60
  -2  -7   2   44.90    2.30
  -2  -7   2   41.60    2.60
   1   7  -2   24.50    1.80
  -1  -7   2   24.50    1.50
  -1  -7   2   24.40    1.80
   0  -7   2   35.00    2.20
   0  -7   2   36.70    1.90
   0  -7   2   39.30    2.20
   1  -7   2  167.48    6.40
   1  -7   2  159.98    6.70
   1  -7   2  170.78    6.70
  -2   7  -2  341.37   13.60
   2  -7   2  360.56   13.50
   2  -7   2  362.46   13.40
   2  -7   2  369.06   13.20
  -3   7  -2   42.50    2.50
  -3   7  -2   42.50    2.20
   3  -7   2   43.30    2.10
   3  -7   2   44.40    2.20
   3  -7   2   44.30    2.30
  -4   7  -2   37.80    2.50
   4  -7   2   39.90    2.00
  -5   7  -2    2.90    2.50
  -5   7  -2    1.60    0.90
  -6   7  -2    4.40    1.20
  -7   7  -2  146.29    6.80
  -8   7  -2   21.10    2.50
  -8   7  -2   22.60    1.90
   8  -7   2   25.10    2.00
  -9   7  -2   20.30    2.70
   9  -7   2   19.10    2.00
 -10   7  -2   11.90    2.30
  10  -7   2   13.00    1.70
 -11   7  -2    0.90    1.50
 -11   7  -2    0.10    1.60
  11  -7   2    0.20    1.00
 -12   7  -2    7.00    1.40
  12  -7   2    8.40    1.40
  13  -7   2    1.30    0.80
  -9  -6   2    6.20    1.80
  -9  -6   2    8.40    1.70
  -8  -6   2   -0.80    1.70
  -8  -6   2    0.80    1.70
  -7  -6   2    1.00    1.80
  -7  -6   2   -0.10    1.80
  -7  -6   2    3.30    1.30
  -6  -6   2   -0.90    1.50
  -6  -6   2   -0.50    1.40
  -6  -6   2    3.50    1.20
  -5  -6   2    1.60    1.00
  -5  -6   2    0.80    1.40
  -5  -6   2    1.30    1.50
   4   6  -2   61.59    3.40
  -4  -6   2   61.89    4.10
  -4  -6   2   64.99    4.00
  -4  -6   2   57.99    2.90
   3   6  -2    2.20    0.80
  -3  -6   2    1.10    0.70
  -3  -6   2    1.90    0.60
   2   6  -2    1.50    1.00
   2   6  -2    1.40    0.60
  -2  -6   2    1.60    0.60
  -2  -6   2    1.00    0.50
  -1  -6   2   30.30    1.80
  -1  -6   2   26.10    1.40
  -1  -6   2   27.30    1.90
   0   6  -2    4.30    1.40
   0  -6   2    6.60    0.80
   0  -6   2    5.00    0.80
   0  -6   2    5.80    0.60
  -1   6  -2    0.30    0.40
  -1   6  -2    0.40    1.00
   1  -6   2    0.30    0.40
   1  -6   2    0.40    0.40
   1  -6   2    0.10    0.40
  -2   6  -2   24.30    2.90
  -2   6  -2   39.50    2.10
   2  -6   2   37.90    1.90
   2  -6   2   40.00    1.80
   2  -6   2   40.20    2.00
  -3   6  -2    0.80    1.20
  -3   6  -2    3.50    0.80
  -3   6  -2    3.50    0.60
   3  -6   2    5.10    0.60
   3  -6   2    4.80    0.70
   3  -6   2    4.50    0.60
  -4   6  -2  157.78    6.40
   4  -6   2  144.89    5.80
  -5   6  -2   15.60    1.60
  -5   6  -2   14.30    1.10
  -5   6  -2    8.90    2.50
  -6   6  -2   15.00    1.80
  -6   6  -2   14.20    1.30
  -7   6  -2   42.50    3.00
  -7   6  -2   41.40    2.40
  -7   6  -2   41.20    2.50
  -8   6  -2    6.80    1.40
  -8   6  -2    4.10    1.10
  -8   6  -2    4.90    1.00
   8  -6   2    6.10    1.30
  -9   6  -2   30.60    3.20
  -9   6  -2   35.50    2.70
   9  -6   2   33.20    2.40
 -10   6  -2    0.60    1.10
 -10   6  -2    0.90    1.60
  10  -6   2    0.10    0.90
 -11   6  -2    6.70    1.50
  11  -6   2    5.60    1.40
 -12   6  -2    5.90    1.40
  12  -6   2    9.90    1.40
 -13   6  -2   28.50    2.20
  13  -6   2   29.10    2.00
 -10  -5   2   -1.70    1.00
  -9  -5   2   13.70    2.60
  -9  -5   2    9.00    2.10
  -8  -5   2   69.09    5.30
  -8  -5   2   69.29    3.80
  -8  -5   2   73.29    5.10
  -7  -5   2   20.30    2.90
  -7  -5   2   17.30    2.80
  -7  -5   2   26.40    2.40
  -6  -5   2   49.20    4.10
  -6  -5   2   54.29    3.10
  -6  -5   2   49.40    4.10
   5   5  -2   -0.40    0.80
  -5  -5   2    0.80    1.30
  -5  -5   2    0.70    0.80
  -5  -5   2   -0.40    1.10
   4   5  -2    2.30    0.80
  -4  -5   2    1.80    0.60
  -4  -5   2    2.90    0.80
   3   5  -2   27.20    1.80
  -3  -5   2   26.10    1.80
  -3  -5   2   25.40    1.40
   2   5  -2  114.89    4.70
  -2  -5   2  111.39    4.70
  -2  -5   2  107.99    4.30
   1   5  -2    5.50    1.40
  -1  -5   2   10.60    1.00
  -1  -5   2   11.30    1.20
  -1  -5   2   12.20    0.80
   0   5  -2    3.60    0.50
   0   5  -2    2.90    1.10
   0  -5   2    4.00    0.50
   0  -5   2    2.30    0.60
   0  -5   2    2.90    0.50
  -1   5  -2  246.28    8.70
  -1   5  -2  188.68    9.80
   1  -5   2  235.68    8.60
   1  -5   2  240.08    8.60
  -2   5  -2  385.26   14.40
   2  -5   2  396.76   14.20
   2  -5   2  379.76   14.10
  -3   5  -2   22.60    1.20
  -3   5  -2   20.30    1.30
  -3   5  -2   18.80    1.00
  -3   5  -2   17.10    1.40
   3  -5   2   20.50    1.30
   3  -5   2   20.10    1.10
  -4   5  -2   20.80    1.50
  -4   5  -2   16.40    1.30
  -4   5  -2   14.50    1.00
   4  -5   2   14.60    0.90
  -5   5  -2  190.58    7.10
  -5   5  -2  193.08    7.40
  -5   5  -2  188.68    7.50
  -5   5  -2  184.38    7.00
  -5   5  -2  151.88    8.90
  -6   5  -2   58.69    2.80
  -6   5  -2   53.99    3.00
  -6   5  -2   59.69    2.90
  -6   5  -2   57.99    3.30
  -7   5  -2   22.20    2.20
  -7   5  -2   20.90    1.90
  -7   5  -2   26.20    1.90
  -7   5  -2   25.40    1.80
  -8   5  -2    0.80    0.90
  -8   5  -2    3.60    1.50
  -8   5  -2    0.50    0.80
  -8   5  -2    0.70    0.90
  -9   5  -2    6.60    2.00
  -9   5  -2    7.80    1.80
  -9   5  -2    6.60    1.30
  -9   5  -2    5.70    1.40
 -10   5  -2   25.90    2.60
 -10   5  -2   26.50    2.40
 -10   5  -2   24.10    3.20
  10  -5   2   26.40    2.40
 -11   5  -2   45.70    4.10
 -11   5  -2   51.59    3.40
  11  -5   2   48.80    3.10
 -12   5  -2   32.70    2.70
  12  -5   2   32.90    2.50
 -13   5  -2   21.40    2.00
  13  -5   2   22.70    1.80
 -10  -4   2    1.20    1.50
 -10  -4   2    1.70    1.70
  -9  -4   2    4.00    2.20
  -9  -4   2    2.40    1.90
  -8  -4   2    3.50    2.00
  -8  -4   2    3.40    1.30
  -8  -4   2    6.90    2.50
  -7  -4   2    6.70    2.10
  -7  -4   2    6.10    1.30
  -7  -4   2    5.60    2.00
   6   4  -2   13.30    1.70
  -6  -4   2   20.40    2.70
  -6  -4   2   19.50    2.60
  -6  -4   2   19.90    1.90
   5   4  -2   10.70    1.40
  -5  -4   2   11.00    1.20
  -5  -4   2   10.20    1.40
  -5  -4   2    7.70    1.60
   4   4  -2    2.30    0.70
  -4  -4   2    3.00    0.80
  -4  -4   2    2.20    0.60
   3   4  -2    4.90    0.80
  -3  -4   2    5.80    0.90
  -3  -4   2    5.20    0.60
   2   4  -2   11.20    1.00
  -2  -4   2   10.10    0.80
  -2  -4   2   11.10    1.00
   1   4  -2   41.30    1.70
  -1  -4   2   46.10    2.10
  -1  -4   2   46.00    2.20
   0   4  -2   26.50    1.30
   0   4  -2   28.10    1.40
   0   4  -2   24.90    2.20
   0  -4   2   28.60    1.40
   0  -4   2   28.10    1.50
  -1   4  -2   41.70    2.00
  -1   4  -2   42.10    2.00
   1  -4   2   49.80    2.00
   1  -4   2   41.50    1.90
  -2   4  -2   21.00    1.30
  -2   4  -2   20.60    0.90
  -2   4  -2   19.60    1.20
   2  -4   2   21.00    1.20
   2  -4   2   19.70    1.00
  -3   4  -2  322.07   11.50
  -3   4  -2  297.17   11.30
  -3   4  -2  321.47   11.70
  -3   4  -2  302.07   11.30
   3  -4   2  309.37   11.40
   3  -4   2  308.67   11.30
  -4   4  -2   47.70    2.10
  -4   4  -2   43.80    2.40
  -4   4  -2   46.60    2.30
   4  -4   2   44.60    1.90
  -5   4  -2    6.80    0.90
  -5   4  -2    8.20    0.90
  -5   4  -2    7.90    1.10
  -6   4  -2   23.40    1.50
  -6   4  -2   19.40    1.50
  -6   4  -2   19.50    1.60
  -6   4  -2   21.90    1.90
  -7   4  -2   19.60    2.00
  -7   4  -2   20.00    1.80
  -7   4  -2   19.10    1.70
  -7   4  -2   24.20    1.70
  -8   4  -2    7.60    1.50
  -8   4  -2    7.80    1.90
  -8   4  -2    7.20    1.30
  -8   4  -2    5.50    1.20
  -8   4  -2    6.90    1.20
  -9   4  -2   15.90    2.00
  -9   4  -2   15.00    2.50
  -9   4  -2   16.30    1.80
  -9   4  -2   16.20    2.70
 -10   4  -2   16.10    2.70
 -10   4  -2   16.80    2.10
 -10   4  -2   18.20    2.70
 -10   4  -2   16.30    2.00
 -11   4  -2   46.90    3.10
 -11   4  -2   47.40    4.30
 -11   4  -2   45.70    3.40
  11  -4   2   48.30    3.20
 -12   4  -2   25.90    2.50
 -12   4  -2   24.70    3.10
  12  -4   2   28.80    2.20
 -13   4  -2    6.40    1.20
  13  -4   2    9.00    1.10
 -11  -3   2    1.70    1.40
 -11  -3   2    0.70    1.20
 -10  -3   2    6.70    2.20
 -10  -3   2    4.40    1.90
  -9  -3   2   39.20    4.20
  -9  -3   2   34.30    3.90
  -9  -3   2   36.20    2.80
  -8  -3   2  146.69    7.80
  -8  -3   2  142.79    6.30
  -8  -3   2  136.79    7.50
  -7  -3   2    3.60    1.60
  -7  -3   2    6.30    1.30
  -7  -3   2    3.60    1.90
   6   3  -2    1.50    0.80
  -6  -3   2    3.00    0.90
  -6  -3   2    3.00    1.50
   5   3  -2   22.50    1.70
  -5  -3   2   21.70    1.70
  -5  -3   2   20.30    1.50
   4   3  -2   39.60    2.20
  -4  -3   2   39.00    1.80
  -4  -3   2   38.50    2.20
   3   3  -2  228.18    8.30
  -3  -3   2  207.88    7.90
  -3  -3   2  209.68    8.00
  -3  -3   2  216.88    8.30
   2   3  -2    0.60    0.60
   2   3  -2    2.20    0.50
  -2  -3   2    2.40    0.30
  -2  -3   2    1.70    0.40
   1   3  -2    2.20    0.80
  -1  -3   2    5.00    0.40
  -1  -3   2    5.80    0.70
  -1  -3   2    5.60    0.70
  -1  -3   2    4.50    0.60
   0   3  -2   53.99    2.10
   0   3  -2   44.50    2.10
   0  -3   2   50.39    2.00
   0  -3   2   51.89    2.20
   0  -3   2   49.80    2.10
  -1   3  -2 1191.78   44.90
  -1   3  -2 1263.37   45.10
  -1   3  -2 1366.86   45.20
   1  -3   2 1221.88   45.10
   1  -3   2 1261.47   45.00
   1  -3   2 1283.07   45.00
  -2   3  -2   80.89    3.40
  -2   3  -2   88.49    3.40
  -2   3  -2   85.99    3.20
  -2   3  -2   80.89    3.20
   2  -3   2   82.49    3.30
   2  -3   2   87.19    3.30
   2  -3   2   82.79    3.20
  -3   3  -2  226.18    8.50
  -3   3  -2  217.78    8.30
  -3   3  -2  229.38    8.60
  -3   3  -2  230.58    8.30
   3  -3   2  218.18    8.40
   3  -3   2  235.48    8.40
   3  -3   2  225.68    8.20
  -4   3  -2   26.40    1.90
  -4   3  -2   25.10    1.60
  -4   3  -2   23.90    1.50
  -4   3  -2   25.30    1.40
   4  -3   2   24.10    1.10
  -5   3  -2   87.39    3.60
  -5   3  -2   83.39    3.80
  -5   3  -2   81.49    3.40
  -5   3  -2   91.59    3.70
   5  -3   2   77.79    3.30
  -6   3  -2    2.70    0.70
  -6   3  -2    1.60    0.70
  -6   3  -2    2.20    0.70
  -6   3  -2    3.40    0.80
  -7   3  -2    0.90    0.90
  -7   3  -2    0.40    0.70
  -7   3  -2    0.90    0.70
  -7   3  -2    1.70    0.70
  -8   3  -2    8.30    1.40
  -8   3  -2   10.40    1.40
  -8   3  -2   12.20    2.10
  -9   3  -2   26.20    3.30
  -9   3  -2   38.00    3.50
  -9   3  -2   30.10    2.70
  -9   3  -2   35.70    2.60
 -10   3  -2   -1.60    1.10
 -10   3  -2    0.70    1.70
 -10   3  -2   -0.70    1.40
 -10   3  -2    0.60    1.40
 -11   3  -2    4.30    1.50
 -11   3  -2    8.00    2.20
 -11   3  -2    7.00    1.50
 -11   3  -2    5.30    2.10
 -12   3  -2   -0.20    1.20
 -12   3  -2    1.40    1.60
  12  -3   2    1.10    1.00
 -13   3  -2    0.90    0.90
  13  -3   2   -0.30    0.60
 -11  -2   2    1.90    1.60
 -11  -2   2    0.20    1.50
 -10  -2   2    6.90    2.20
 -10  -2   2    5.80    2.30
 -10  -2   2    5.90    1.50
  -9  -2   2   75.19    5.40
  -9  -2   2   76.09    4.40
  -9  -2   2   77.39    5.70
  -9  -2   2   82.29    4.20
  -8  -2   2   22.70    3.20
  -8  -2   2   21.80    2.90
  -8  -2   2   21.60    2.30
  -8  -2   2   20.60    2.10
   7   2  -2    4.40    1.10
  -7  -2   2    4.80    1.30
  -7  -2   2    2.70    1.50
  -7  -2   2    2.50    1.50
  -7  -2   2    4.30    1.10
   6   2  -2   12.90    1.50
  -6  -2   2   11.90    1.40
  -6  -2   2   12.50    1.30
  -6  -2   2   11.60    1.50
   5   2  -2   33.10    2.00
  -5  -2   2   31.00    1.70
  -5  -2   2   29.70    1.80
  -5  -2   2   27.80    1.90
   4   2  -2   23.10    1.50
  -4  -2   2   22.40    1.50
  -4  -2   2   19.80    1.20
   3   2  -2   62.39    2.80
  -3  -2   2   63.09    2.60
  -3  -2   2   63.09    2.80
   2   2  -2  124.29    4.70
  -2  -2   2  119.39    4.50
  -2  -2   2  121.89    4.70
  -2  -2   2  112.59    4.60
   1   2  -2  203.68    7.30
   1   2  -2  184.68    7.30
  -1  -2   2  196.38    7.30
  -1  -2   2  211.08    7.20
  -1  -2   2  201.18    7.40
  -1  -2   2  194.88    7.20
   0   2  -2  573.44   19.60
   0   2  -2  534.25   19.70
   0  -2   2  554.94   19.60
   0  -2   2  478.45   19.50
   0  -2   2  568.04   19.60
   0  -2   2  573.84   19.60
  -1   2  -2  291.57   10.50
  -1   2  -2  295.97   10.60
  -1   2  -2  284.97   10.60
   1  -2   2  281.07   10.40
   1  -2   2  296.57   10.50
   1  -2   2  295.17   10.50
  -2   2  -2  223.38    8.10
  -2   2  -2  211.38    7.80
  -2   2  -2  212.58    7.90
  -2   2  -2  216.08    8.00
   2  -2   2  226.08    7.90
   2  -2   2  213.78    7.90
   2  -2   2  211.08    7.80
  -3   2  -2  237.18    9.10
  -3   2  -2  234.08    8.80
  -3   2  -2  239.68    8.70
  -3   2  -2  244.98    8.70
   3  -2   2  240.58    8.60
   3  -2   2  230.28    8.50
   3  -2   2  217.48    8.60
  -4   2  -2   80.79    3.20
  -4   2  -2   76.49    3.20
  -4   2  -2   73.69    3.30
  -4   2  -2   72.79    3.30
   4  -2   2   75.49    3.00
  -5   2  -2   51.89    2.70
  -5   2  -2   51.99    2.40
  -5   2  -2   49.60    2.20
  -5   2  -2   53.99    2.50
   5  -2   2   48.50    2.20
  -6   2  -2  251.27   10.30
  -6   2  -2  255.27    9.70
  -6   2  -2  257.37   10.00
  -6   2  -2  280.07   10.10
  -7   2  -2   21.60    1.90
  -7   2  -2   25.40    1.90
  -7   2  -2   26.70    1.70
  -8   2  -2   10.20    2.10
  -8   2  -2    8.50    1.40
  -8   2  -2    8.90    1.60
  -8   2  -2   11.10    1.30
  -9   2  -2   15.10    2.00
  -9   2  -2   16.60    2.50
  -9   2  -2   20.40    2.80
  -9   2  -2   19.50    1.90
 -10   2  -2   68.99    4.20
 -10   2  -2   67.29    5.10
 -10   2  -2   66.29    4.80
 -10   2  -2   60.79    3.70
 -11   2  -2   29.90    3.50
 -11   2  -2   36.10    4.00
 -11   2  -2   32.60    3.00
 -12   2  -2    0.50    1.20
 -12   2  -2   -0.30    1.50
 -12  -1   2   -0.80    1.10
 -12  -1   2   -0.10    1.20
 -11  -1   2    6.10    2.00
 -11  -1   2    3.40    1.40
 -11  -1   2    5.00    1.90
 -10  -1   2    7.60    1.70
 -10  -1   2    5.90    2.20
 -10  -1   2    8.10    2.30
 -10  -1   2    6.60    1.50
  -9  -1   2   57.69    4.50
  -9  -1   2   53.39    3.60
  -9  -1   2   48.40    3.30
  -9  -1   2   50.79    4.50
  -8  -1   2    3.90    1.80
  -8  -1   2    6.80    1.60
  -8  -1   2    4.60    1.30
  -8  -1   2    3.60    1.90
   7   1  -2   18.30    1.70
  -7  -1   2   17.00    1.80
  -7  -1   2   20.70    1.80
  -7  -1   2   20.70    2.60
   6   1  -2   12.40    1.40
  -6  -1   2    9.50    1.30
  -6  -1   2   13.60    1.40
  -6  -1   2   13.40    1.30
   5   1  -2    0.80    0.50
  -5  -1   2    2.00    0.70
  -5  -1   2    1.00    0.50
  -5  -1   2    1.30    0.60
   4   1  -2   12.20    1.00
  -4  -1   2   10.00    0.80
  -4  -1   2   12.60    1.10
  -4  -1   2   12.20    1.00
   3   1  -2   15.20    1.10
   3   1  -2   19.40    1.10
  -3  -1   2   18.10    1.20
  -3  -1   2   18.40    1.00
   2   1  -2   59.49    2.40
   2   1  -2   54.59    2.70
   2   1  -2   60.49    2.30
  -2  -1   2   58.49    2.30
  -2  -1   2   55.79    2.50
  -2  -1   2   64.09    2.50
   1   1  -2   38.20    1.50
   1   1  -2   30.20    1.40
   1   1  -2   28.60    1.80
  -1  -1   2   36.70    1.30
  -1  -1   2   32.90    1.30
  -1  -1   2   41.40    1.60
  -1  -1   2   35.70    1.40
   0   1  -2  156.88    6.30
   0   1  -2  146.19    5.80
   0   1  -2  182.58    6.00
   0   1  -2  162.88    5.90
   0  -1   2  161.38    5.90
   0  -1   2  161.18    5.90
  -1   1  -2    5.20    0.70
  -1   1  -2    5.90    0.40
  -1   1  -2    6.50    0.40
  -1   1  -2    5.20    0.50
  -1   1  -2    5.90    0.30
  -1   1  -2    6.00    0.40
   1  -1   2    5.90    0.40
   1  -1   2    5.50    0.40
  -2   1  -2  162.68    5.80
  -2   1  -2  159.28    5.90
  -2   1  -2  157.48    6.20
  -2   1  -2  153.48    5.80
  -2   1  -2  156.08    6.00
   2  -1   2  164.38    5.80
   2  -1   2  160.88    5.70
   2  -1   2  153.38    5.70
  -3   1  -2  187.08    6.80
  -3   1  -2  179.88    7.00
  -3   1  -2  170.68    6.70
  -3   1  -2  188.48    6.90
  -3   1  -2  184.88    6.70
   3  -1   2  186.48    6.60
   3  -1   2  174.68    6.60
   3  -1   2  179.98    6.60
  -4   1  -2   20.70    1.40
  -4   1  -2   19.10    1.20
  -4   1  -2   19.70    1.20
   4  -1   2   18.10    1.00
   4  -1   2   19.10    1.00
  -5   1  -2    6.20    0.90
  -5   1  -2    5.30    0.70
  -5   1  -2    7.00    0.70
   5  -1   2    6.00    0.70
  -6   1  -2    5.10    0.80
  -6   1  -2    4.10    0.90
  -6   1  -2    3.30    0.70
  -7   1  -2    4.10    1.10
  -7   1  -2    6.90    1.00
  -7   1  -2    4.80    1.00
  -8   1  -2    2.30    1.00
  -8   1  -2   -0.60    1.00
  -8   1  -2    2.00    0.90
  -8   1  -2    1.80    1.60
  -8   1  -2    4.10    1.40
  -9   1  -2    5.10    2.10
  -9   1  -2    5.60    1.80
  -9   1  -2    3.10    1.20
  -9   1  -2    3.00    1.30
 -10   1  -2    5.10    2.00
 -10   1  -2    2.30    1.30
 -10   1  -2    4.90    2.20
 -10   1  -2    4.10    1.60
 -11   1  -2    2.00    1.90
 -11   1  -2    1.90    1.80
 -11   1  -2    3.70    1.50
 -12   1  -2   13.40    1.70
 -12   1  -2   14.60    2.40
 -12   1  -2   16.40    2.20
 -12   0   2   -0.50    0.90
 -12   0   2    5.40    1.60
 -12   0   2   -0.70    1.30
 -11   0   2    4.80    1.60
 -11   0   2    3.20    1.90
 -11   0   2    6.50    2.10
 -10   0   2   35.10    3.10
 -10   0   2   36.00    4.10
 -10   0   2   37.00    2.90
 -10   0   2   38.70    4.20
  -9   0   2   61.09    3.60
  -9   0   2   61.29    3.90
  -9   0   2   58.69    4.70
  -9   0   2   65.69    4.80
   8   0  -2    8.90    1.30
  -8   0   2   14.00    1.60
  -8   0   2   12.70    2.20
  -8   0   2    9.90    2.00
  -8   0   2   10.10    1.60
  -8   0   2    7.90    1.40
   7   0  -2   37.80    2.40
  -7   0   2   36.70    2.60
  -7   0   2   37.00    2.40
  -7   0   2   42.80    2.40
   6   0  -2   82.69    3.70
  -6   0   2   78.29    3.70
  -6   0   2   81.59    3.90
  -6   0   2   79.19    3.50
   5   0  -2   31.50    1.80
  -5   0   2   29.00    1.60
  -5   0   2   28.90    1.80
  -5   0   2   29.10    1.70
   4   0  -2 1424.86   48.40
  -4   0   2 1314.97   48.40
  -4   0   2 1387.36   48.30
  -4   0   2 1277.17   48.20
   3   0  -2 2084.79   74.59
   3   0  -2 2137.69   74.69
  -3   0   2 2148.69   74.79
  -3   0   2 2036.80   74.49
  -3   0   2 2104.49   74.59
  -3   0   2 2071.89   74.59
   2   0  -2 8949.41  329.37
   2   0  -2 9002.50  329.07
   2   0  -2 9202.78  328.67
  -2   0   2 9095.49  328.37
  -2   0   2 9310.07  328.47
  -2   0   2 9150.68  328.57
  -2   0   2 9999.00  329.07
   1   0  -2  645.64   23.20
   1   0  -2  588.84   22.90
   1   0  -2  624.14   22.90
  -1   0   2  612.24   22.90
  -1   0   2  683.73   22.90
  -1   0   2  720.73   23.00
  -1   0   2  624.74   22.90
   0   0  -2  479.45   16.50
   0   0  -2  463.55   16.50
   0   0  -2  427.96   16.40
   0   0  -2  466.05   16.80
   0   0  -2  466.65   16.40
   0   0   2  451.05   16.50
   0   0   2  431.66   16.40
   0   0   2  500.05   16.40
  -1   0  -2   15.00    0.80
  -1   0  -2   15.80    1.00
  -1   0  -2   13.80    0.60
  -1   0  -2   13.20    0.70
  -1   0  -2   13.70    0.60
  -1   0  -2   12.90    0.60
  -2   0  -2  251.37    9.60
  -2   0  -2  254.37    9.30
  -2   0  -2  262.97    9.50
  -2   0  -2  262.67    9.30
  -2   0  -2  260.57    9.40
   2   0   2  254.77    9.30
  -3   0  -2   52.39    2.00
  -3   0  -2   46.50    2.20
  -3   0  -2   44.60    1.90
  -3   0  -2   48.90    2.10
   3   0   2   49.00    2.00
  -4   0  -2  134.29    5.60
  -4   0  -2  146.89    5.40
  -4   0  -2  145.09    5.60
   4   0   2  141.79    5.20
   4   0   2  138.19    5.40
  -5   0  -2   51.49    2.70
  -5   0  -2   52.29    2.20
  -5   0  -2   53.39    2.60
  -5   0  -2   53.99    2.50
   5   0   2   51.29    2.40
  -6   0  -2  178.58    7.00
  -6   0  -2  177.48    6.70
  -6   0  -2  171.28    7.10
  -7   0  -2  331.97   13.10
  -7   0  -2  331.77   13.00
  -7   0  -2  349.87   12.70
  -7   0  -2  344.97   14.00
  -8   0  -2   14.90    2.30
  -8   0  -2   15.50    1.60
  -8   0  -2   11.90    1.70
  -8   0  -2   23.10    2.90
  -8   0  -2   18.50    2.10
  -9   0  -2   22.90    2.10
  -9   0  -2   18.00    2.20
  -9   0  -2   21.80    2.90
 -10   0  -2   38.50    4.20
 -10   0  -2   40.30    4.10
 -10   0  -2   43.70    3.20
 -10   0  -2   42.50    3.00
 -11   0  -2   39.30    3.00
 -11   0  -2   38.10    3.90
 -11   0  -2   42.40    3.80
 -12   0  -2    6.00    1.20
 -12   0  -2    6.50    1.80
 -12   0  -2    7.30    1.60
 -12   1   2   -0.50    1.40
 -12   1   2    2.10    1.20
 -12   1   2    0.20    1.50
 -11   1   2    7.70    2.10
 -11   1   2    7.70    2.30
 -11   1   2    9.80    1.80
 -10   1   2   22.60    2.50
 -10   1   2   23.70    3.20
 -10   1   2   24.70    3.40
 -10   1   2   19.30    2.20
  -9   1   2    6.70    1.50
  -9   1   2    4.00    2.00
  -9   1   2    6.90    2.10
  -9   1   2    4.40    1.40
   8  -1  -2   32.90    2.20
  -8   1   2   30.60    2.40
  -8   1   2   35.30    3.30
  -8   1   2   29.10    2.40
  -8   1   2   35.20    2.40
  -8   1   2   33.90    3.20
   7  -1  -2    0.60    0.50
  -7   1   2    0.50    0.70
  -7   1   2   -0.30    0.60
  -7   1   2    0.30    0.70
   6  -1  -2  102.69    4.30
  -6   1   2   99.89    4.20
  -6   1   2   96.79    4.30
  -6   1   2   97.19    4.50
   5  -1  -2    3.00    0.60
  -5   1   2    5.10    0.80
  -5   1   2    2.70    0.60
  -5   1   2    2.50    0.60
  -5   1   2    3.80    0.60
   4  -1  -2   21.10    1.30
  -4   1   2   26.50    1.50
  -4   1   2   23.20    1.30
  -4   1   2   25.70    1.50
   3  -1  -2   40.90    1.80
   3  -1  -2   40.70    1.80
   3  -1  -2   40.80    1.80
  -3   1   2   41.30    1.80
  -3   1   2   43.00    1.90
  -3   1   2   40.60    1.80
  -3   1   2   41.10    1.90
   2  -1  -2   21.70    1.00
   2  -1  -2   21.10    1.20
   2  -1  -2   22.50    1.10
  -2   1   2   21.50    1.00
  -2   1   2   24.30    1.20
  -2   1   2   20.70    1.10
  -2   1   2   22.00    1.00
   1  -1  -2    2.70    0.50
   1  -1  -2    2.80    0.30
   1  -1  -2    2.10    0.30
   1  -1  -2    2.10    0.30
  -1   1   2    2.60    0.30
  -1   1   2    3.10    0.30
  -1   1   2    2.30    0.30
  -1   1   2    2.30    0.30
   0  -1  -2  248.28    8.90
   0  -1  -2  240.38    8.80
   0  -1  -2  239.38    9.20
   0  -1  -2  237.88    8.70
   0  -1  -2  252.07    8.70
   0   1   2  241.28    8.80
  -1  -1  -2  273.67    9.70
  -1  -1  -2  266.57    9.60
  -1  -1  -2  244.58    9.60
  -1  -1  -2  275.87   10.00
  -2  -1  -2  446.66   18.70
  -2  -1  -2  534.15   18.80
  -2  -1  -2  548.65   19.10
  -2  -1  -2  545.45   18.70
  -3  -1  -2   96.39    3.60
  -3  -1  -2   97.69    3.90
  -3  -1  -2   95.29    4.00
  -3  -1  -2   96.39    3.70
   3   1   2  100.19    3.80
   3   1   2   96.49    4.10
  -4  -1  -2    8.60    0.80
  -4  -1  -2    7.50    0.90
  -4  -1  -2    9.00    0.90
   4   1   2    9.50    0.80
  -5  -1  -2   39.20    2.00
  -5  -1  -2   37.20    2.10
   5   1   2   39.80    2.10
  -6  -1  -2   14.90    1.30
  -6  -1  -2   16.90    1.50
  -6  -1  -2   14.20    1.50
   6   1   2   15.10    1.40
  -7  -1  -2    9.00    1.40
  -7  -1  -2    9.30    1.20
  -7  -1  -2    7.70    1.80
  -8  -1  -2    7.10    1.30
  -8  -1  -2    7.00    1.50
  -8  -1  -2    5.30    1.90
  -8  -1  -2    7.00    2.00
  -9  -1  -2    2.50    1.80
  -9  -1  -2    0.10    1.00
  -9  -1  -2    2.00    2.00
  -9  -1  -2    0.20    1.30
 -10  -1  -2   20.50    3.10
 -10  -1  -2   22.60    2.30
 -10  -1  -2   25.60    3.60
 -10  -1  -2   19.90    2.20
 -11  -1  -2    6.00    1.40
 -11  -1  -2    4.70    1.80
 -11  -1  -2    6.50    2.10
  13  -2  -2    2.90    0.80
 -13   2   2    1.50    0.90
 -12   2   2   10.70    2.30
 -12   2   2    9.60    1.70
 -11   2   2   19.80    2.40
 -11   2   2   18.20    2.60
 -11   2   2   24.50    3.20
 -11   2   2   17.50    2.80
 -10   2   2   25.30    3.30
 -10   2   2   24.10    2.60
 -10   2   2   24.30    3.20
 -10   2   2   21.30    2.30
  -9   2   2   44.50    3.90
  -9   2   2   46.80    3.00
  -9   2   2   41.90    3.90
  -9   2   2   43.50    3.10
   8  -2  -2   17.70    1.60
  -8   2   2   19.20    2.50
  -8   2   2   17.10    1.70
  -8   2   2   17.70    2.00
  -8   2   2   17.10    1.90
   7  -2  -2    1.30    0.60
  -7   2   2    1.80    0.80
  -7   2   2    0.70    0.70
  -7   2   2    0.70    0.70
   6  -2  -2    3.20    0.70
  -6   2   2    3.50    0.70
  -6   2   2    4.10    0.90
  -6   2   2    3.10    0.80
   5  -2  -2   21.00    1.30
  -5   2   2   19.40    1.30
  -5   2   2   20.00    1.50
  -5   2   2   20.00    1.30
  -5   2   2   21.20    1.60
   4  -2  -2  199.88    7.80
   4  -2  -2  213.68    7.80
  -4   2   2  207.88    7.70
  -4   2   2  201.28    7.90
  -4   2   2  217.78    7.80
  -4   2   2  199.08    7.70
  -4   2   2  208.68    8.10
   3  -2  -2   29.30    1.30
   3  -2  -2   27.10    1.30
  -3   2   2   23.80    1.40
  -3   2   2   26.00    1.50
  -3   2   2   25.60    1.30
  -3   2   2   23.20    1.40
  -3   2   2   28.80    1.30
   2  -2  -2  342.67   12.30
   2  -2  -2  338.57   12.70
   2  -2  -2  334.77   12.30
  -2   2   2  340.47   12.20
  -2   2   2  345.67   12.40
  -2   2   2  337.77   12.20
  -2   2   2  327.77   12.30
   1  -2  -2 1062.19   36.60
   1  -2  -2 1074.19   37.10
   1  -2  -2  982.20   36.60
   1  -2  -2 1003.20   36.60
  -1   2   2 1046.40   36.60
  -1   2   2 1033.80   36.70
  -1   2   2  990.30   36.60
  -1   2   2 1022.30   36.50
   0  -2  -2    6.90    0.40
   0  -2  -2    7.10    0.90
   0  -2  -2    6.40    0.40
   0  -2  -2    6.80    0.60
   0   2   2    7.40    0.50
   0   2   2    6.40    0.60
  -1  -2  -2  725.13   26.40
  -1  -2  -2  754.22   27.00
  -1  -2  -2  733.83   26.50
  -2  -2  -2   58.49    2.60
  -2  -2  -2   59.59    2.60
   2   2   2   58.89    2.90
  -3  -2  -2    6.60    0.60
  -3  -2  -2    7.10    0.80
  -3  -2  -2    6.90    0.50
  -3  -2  -2    7.30    0.80
   3   2   2    7.60    0.80
   3   2   2    7.40    1.00
  -4  -2  -2  225.48    8.60
  -4  -2  -2  226.18    8.40
   4   2   2  224.18    8.70
  -5  -2  -2  125.29    5.30
  -5  -2  -2  124.19    5.00
   5   2   2  127.99    5.30
  -6  -2  -2   40.20    3.00
  -6  -2  -2   37.90    2.00
  -6  -2  -2   36.80    2.20
  -6  -2  -2   37.00    2.40
   6   2   2   37.50    2.40
  -7  -2  -2    4.80    1.30
  -7  -2  -2    5.80    1.80
  -7  -2  -2    6.50    1.10
  -7  -2  -2    6.70    1.80
  -8  -2  -2    5.60    2.10
  -8  -2  -2    4.80    1.50
  -8  -2  -2    4.70    1.80
  -8  -2  -2    6.30    1.30
  -9  -2  -2    2.70    2.10
  -9  -2  -2    5.40    2.00
  -9  -2  -2    2.00    1.20
  -9  -2  -2    2.50    1.40
 -10  -2  -2    0.80    1.70
 -10  -2  -2    0.50    1.80
 -10  -2  -2    1.70    1.30
 -11  -2  -2    1.40    1.50
 -11  -2  -2   -0.10    1.30
  13  -3  -2    1.70    0.80
 -13   3   2    2.00    1.10
  12  -3  -2   15.70    1.80
 -12   3   2   15.50    2.10
 -11   3   2   18.40    2.40
 -11   3   2   19.20    3.00
 -10   3   2   30.60    2.90
 -10   3   2   26.10    3.30
 -10   3   2   24.60    2.60
  -9   3   2    1.90    1.10
  -9   3   2    2.50    1.60
  -9   3   2   -0.40    0.90
   8  -3  -2    0.40    0.60
  -8   3   2    2.20    0.90
  -8   3   2    0.20    0.80
   7  -3  -2   60.29    3.00
  -7   3   2   54.19    3.20
  -7   3   2   57.79    2.90
  -7   3   2   61.69    3.10
   6  -3  -2  103.09    4.40
  -6   3   2  100.19    4.30
  -6   3   2  106.29    4.50
  -6   3   2  101.59    4.70
  -6   3   2  101.29    4.60
   5  -3  -2   17.60    1.20
  -5   3   2   17.20    1.80
  -5   3   2   15.30    1.30
  -5   3   2   16.40    1.30
  -5   3   2   17.90    1.30
   4  -3  -2   15.00    1.00
   4  -3  -2   14.80    1.00
  -4   3   2   14.20    1.30
  -4   3   2   13.30    1.10
  -4   3   2   12.80    1.20
  -4   3   2   13.00    0.90
  -4   3   2   12.90    0.90
   3  -3  -2   42.00    1.90
   3  -3  -2   39.40    1.80
  -3   3   2   41.10    1.90
  -3   3   2   40.80    1.80
  -3   3   2   41.30    2.00
  -3   3   2   40.60    1.80
  -3   3   2   40.60    2.20
   2  -3  -2  624.24   21.90
   2  -3  -2  609.04   22.00
  -2   3   2  593.84   22.00
  -2   3   2  610.44   21.90
  -2   3   2  607.94   22.50
  -2   3   2  615.44   21.90
  -2   3   2  612.24   22.10
   1  -3  -2  221.08    8.40
   1  -3  -2  232.48    8.30
   1  -3  -2  232.98    8.50
  -1   3   2  231.18    8.50
  -1   3   2  225.68    8.30
  -1   3   2  227.88    9.00
   0  -3  -2   86.69    3.60
   0  -3  -2   89.39    3.40
   0  -3  -2   91.09    3.40
   0   3   2   88.59    3.40
   0   3   2   98.39    3.70
   0   3   2   95.59    4.20
  -1  -3  -2   18.50    0.90
  -1  -3  -2   19.10    0.80
  -1  -3  -2   17.90    1.00
  -1  -3  -2   18.80    1.20
   1   3   2   18.90    1.10
   1   3   2   18.30    1.50
  -2  -3  -2    2.70    0.30
  -2  -3  -2    2.60    0.50
  -2  -3  -2    2.60    0.30
  -2  -3  -2    3.00    0.60
   2   3   2    2.60    0.50
   2   3   2    2.80    0.70
  -3  -3  -2    7.10    0.70
  -3  -3  -2    7.70    0.80
   3   3   2    7.90    0.90
   3   3   2    7.70    1.10
  -4  -3  -2  118.29    4.70
  -4  -3  -2  114.49    4.90
   4   3   2  129.09    5.10
  -5  -3  -2  121.99    5.00
   5   3   2  124.89    5.40
  -6  -3  -2   55.39    2.70
  -6  -3  -2   52.79    4.40
  -6  -3  -2   57.19    3.90
   6   3   2   52.59    3.10
  -7  -3  -2   11.20    2.20
  -7  -3  -2   11.60    1.30
  -7  -3  -2   11.40    2.30
  -8  -3  -2    1.50    1.60
  -8  -3  -2    1.70    1.80
  -8  -3  -2    1.20    1.10
  -9  -3  -2   48.70    4.60
  -9  -3  -2   46.00    4.20
  -9  -3  -2   53.99    3.10
 -10  -3  -2   18.70    2.60
 -10  -3  -2   26.10    3.10
  13  -4  -2    1.70    0.90
 -13   4   2    1.60    1.00
  12  -4  -2    4.90    1.30
 -12   4   2    5.40    1.50
 -11   4   2    0.00    1.30
 -10   4   2    7.80    1.70
 -10   4   2    6.30    2.00
  -9   4   2   -0.20    1.40
  -9   4   2    1.40    1.10
   8  -4  -2    2.10    0.70
  -8   4   2    2.50    0.90
  -8   4   2    2.80    1.00
   7  -4  -2    7.00    1.00
  -7   4   2    6.90    1.10
  -7   4   2    9.80    1.60
  -7   4   2    8.90    1.20
   6  -4  -2   78.59    3.40
  -6   4   2   72.59    4.00
  -6   4   2   76.39    3.50
  -6   4   2   71.09    3.30
   5  -4  -2  438.46   16.10
  -5   4   2  436.26   16.80
  -5   4   2  432.86   16.10
  -5   4   2  445.06   16.40
   4  -4  -2    5.10    0.60
   4  -4  -2    4.50    0.60
  -4   4   2    5.50    1.00
  -4   4   2    4.70    0.90
  -4   4   2    5.10    0.60
  -4   4   2    4.60    0.70
  -4   4   2    4.10    0.60
   3  -4  -2    5.40    0.60
   3  -4  -2    5.80    0.70
  -3   4   2    6.80    0.70
  -3   4   2    8.10    0.90
  -3   4   2    5.70    1.00
  -3   4   2    5.90    0.60
  -3   4   2    6.10    0.60
   2  -4  -2   46.70    2.00
   2  -4  -2   46.90    2.10
  -2   4   2   47.60    2.20
  -2   4   2   45.90    2.00
  -2   4   2   45.80    2.00
  -2   4   2   44.20    1.90
  -2   4   2   49.00    2.70
   1  -4  -2  652.83   23.10
   1  -4  -2  605.74   23.00
   1  -4  -2  659.73   23.00
  -1   4   2  641.04   23.90
  -1   4   2  656.13   23.20
  -1   4   2  621.14   22.80
   0  -4  -2  313.47   11.80
   0  -4  -2  328.47   12.10
   0  -4  -2  328.87   11.70
   0   4   2  309.47   11.70
   0   4   2  338.77   12.00
   0   4   2  329.27   12.80
  -1  -4  -2   10.60    0.70
  -1  -4  -2   10.80    1.00
  -1  -4  -2   11.10    0.70
   1   4   2   10.70    0.80
   1   4   2   10.50    1.40
  -2  -4  -2    0.50    0.30
  -2  -4  -2    1.40    0.60
   2   4   2    0.80    0.40
   2   4   2    1.40    0.70
  -3  -4  -2    5.50    0.70
   3   4   2    6.70    0.90
  -4  -4  -2   15.20    1.20
   4   4   2   16.50    1.50
  -5  -4  -2   83.89    4.60
   5   4   2   78.59    4.00
  -6  -4  -2    0.10    0.80
  -6  -4  -2    2.00    1.40
  -6  -4  -2    0.80    1.40
   6   4   2    0.20    0.90
  -7  -4  -2   -0.10    1.60
  -7  -4  -2    1.90    1.70
  -7  -4  -2    0.10    1.00
  -8  -4  -2   14.80    2.60
  -8  -4  -2   14.70    2.70
  -8  -4  -2   18.50    1.90
  -9  -4  -2   33.90    3.80
  -9  -4  -2   36.80    3.60
 -10  -4  -2    4.90    1.60
 -10  -4  -2    4.50    1.70
 -13   5   2    4.30    1.10
  12  -5  -2   -0.40    0.90
 -12   5   2    0.10    1.10
  11  -5  -2   -1.10    0.90
 -11   5   2   -1.90    1.10
  10  -5  -2    7.60    1.50
 -10   5   2    6.80    1.60
  -9   5   2   13.90    1.80
  -8   5   2   49.40    2.90
  -8   5   2   49.80    3.50
   7  -5  -2    0.10    0.50
  -7   5   2    0.60    0.70
  -7   5   2    2.00    1.20
   6  -5  -2   80.39    3.50
  -6   5   2   74.89    3.50
  -6   5   2   72.09    4.20
   5  -5  -2  208.18    8.10
  -5   5   2  215.48    8.90
  -5   5   2  211.98    8.10
   4  -5  -2    4.90    0.70
   4  -5  -2    5.30    0.60
   4  -5  -2    4.20    0.60
  -4   5   2    5.80    0.70
  -4   5   2    5.10    0.70
  -4   5   2    5.20    0.90
  -4   5   2    5.40    1.10
   3  -5  -2   44.80    2.10
   3  -5  -2   40.90    1.90
   3  -5  -2   46.20    2.10
  -3   5   2   43.90    2.00
  -3   5   2   44.60    1.90
  -3   5   2   43.90    2.80
  -3   5   2   45.40    2.30
   2  -5  -2   45.90    2.00
   2  -5  -2   44.60    2.10
  -2   5   2   42.20    1.80
  -2   5   2   41.90    2.80
  -2   5   2   44.70    2.20
   1  -5  -2   34.10    1.80
   1  -5  -2   30.60    1.50
  -1   5   2   30.30    2.40
  -1   5   2   27.50    1.60
   0  -5  -2  131.39    5.30
   0  -5  -2  133.29    5.00
   0   5   2  128.49    6.20
   0   5   2  129.49    5.20
  -1  -5  -2   24.20    1.20
  -1  -5  -2   25.60    1.70
   1   5   2   21.40    1.30
   1   5   2   24.60    2.20
  -2  -5  -2  114.89    5.10
  -2  -5  -2  114.69    4.50
   2   5   2  112.39    5.70
  -3  -5  -2   23.50    1.50
   3   5   2   26.20    1.80
  -4  -5  -2   18.70    1.40
   4   5   2   17.80    1.70
  -5  -5  -2    4.70    1.80
  -5  -5  -2    5.80    1.70
   5   5   2    6.50    1.30
  -6  -5  -2   40.20    3.70
  -6  -5  -2   44.30    2.70
  -6  -5  -2   46.50    4.00
  -7  -5  -2    1.70    1.60
  -7  -5  -2    1.90    1.20
  -7  -5  -2   -0.30    1.60
  -8  -5  -2    3.90    1.90
  -8  -5  -2    4.30    1.90
  -9  -5  -2    3.60    1.60
  -9  -5  -2    2.70    1.60
  13  -6  -2    8.50    1.20
 -13   6   2    5.50    1.10
  12  -6  -2   38.80    2.70
 -12   6   2   39.40    2.80
  11  -6  -2   73.79    4.20
 -11   6   2   72.99    4.10
  10  -6  -2   27.20    2.40
 -10   6   2   25.90    4.20
 -10   6   2   25.90    2.50
   9  -6  -2    6.70    1.30
  -9   6   2    9.30    2.00
  -9   6   2    4.80    1.70
   8  -6  -2   89.09    4.30
  -8   6   2   91.49    4.30
  -8   6   2   77.19    4.80
   7  -6  -2   19.60    1.60
  -7   6   2   26.90    2.80
  -7   6   2   20.80    1.70
   6  -6  -2   63.29    3.00
  -6   6   2   66.79    4.10
  -6   6   2   59.59    2.90
   5  -6  -2   44.60    2.30
   5  -6  -2   44.70    2.20
  -5   6   2   44.50    2.20
  -5   6   2   44.40    3.00
  -5   6   2   40.50    3.20
   4  -6  -2   98.59    4.10
   4  -6  -2   95.39    3.80
   4  -6  -2   94.79    4.10
  -4   6   2   97.99    4.00
  -4   6   2   96.09    3.90
  -4   6   2   96.49    4.60
  -4   6   2   94.69    5.10
   3  -6  -2   28.50    1.60
   3  -6  -2   29.00    1.40
   3  -6  -2   26.90    1.60
  -3   6   2   26.50    1.50
  -3   6   2   28.90    1.90
  -3   6   2   27.50    2.40
   2  -6  -2    7.10    0.90
   2  -6  -2    8.30    0.80
   2  -6  -2    6.70    0.60
  -2   6   2    7.40    1.40
  -2   6   2    6.70    0.90
   1  -6  -2   32.70    1.50
   1  -6  -2   37.70    2.00
   1  -6  -2   36.60    1.80
  -1   6   2   34.70    2.80
  -1   6   2   32.80    1.90
   0  -6  -2  136.99    5.30
   0  -6  -2  147.49    6.00
   0  -6  -2  148.59    5.60
   0   6   2  140.79    5.80
   0   6   2  147.29    7.00
  -1  -6  -2   47.40    2.70
  -1  -6  -2   43.30    2.10
   1   6   2   43.10    3.30
  -2  -6  -2   17.80    1.30
  -2  -6  -2   17.40    1.80
   2   6   2   17.90    2.40
  -3  -6  -2    1.90    0.70
   3   6   2    2.40    0.80
  -4  -6  -2    9.30    2.00
  -4  -6  -2    6.90    1.60
   4   6   2    7.00    1.30
  -5  -6  -2   12.50    2.20
  -5  -6  -2   11.00    1.30
  -5  -6  -2   10.50    2.30
  -6  -6  -2   -1.20    1.50
  -6  -6  -2    2.30    1.20
  -6  -6  -2    1.40    1.60
  -7  -6  -2    2.70    1.20
  -7  -6  -2   -0.90    1.50
  -7  -6  -2    1.50    1.70
  -8  -6  -2    4.70    1.80
  -8  -6  -2    4.70    1.70
  -9  -6  -2    2.90    1.30
  13  -7  -2    2.00    0.80
  12  -7  -2    5.70    1.20
  11  -7  -2   75.89    4.10
  10  -7  -2    6.30    1.40
 -10   7   2    3.80    1.80
   9  -7  -2    0.90    1.00
  -9   7   2    0.20    1.60
   8  -7  -2    3.10    0.90
  -8   7   2    2.60    0.90
  -8   7   2    2.00    1.40
   7  -7  -2    6.20    1.00
  -7   7   2    6.20    1.00
  -7   7   2    6.60    1.70
   6  -7  -2  141.59    6.00
  -6   7   2  146.49    7.10
   5  -7  -2  121.59    4.90
   5  -7  -2  125.59    5.30
  -5   7   2  127.59    6.10
  -5   7   2  121.39    6.70
   4  -7  -2   31.10    1.90
   4  -7  -2   35.10    1.70
   4  -7  -2   31.10    1.90
  -4   7   2   28.90    1.80
  -4   7   2   33.80    3.00
  -4   7   2   35.10    2.40
   3  -7  -2    6.50    0.80
   3  -7  -2    7.10    1.00
   3  -7  -2    7.30    0.80
  -3   7   2    8.40    0.90
  -3   7   2    6.40    1.50
  -3   7   2    4.40    0.90
   2  -7  -2  489.85   18.00
   2  -7  -2  491.95   17.80
   2  -7  -2  473.85   17.50
  -2   7   2  478.35   19.50
  -2   7   2  478.85   18.10
   1  -7  -2   35.90    1.70
   1  -7  -2   39.40    2.00
   1  -7  -2   35.30    2.20
  -1   7   2   40.00    2.20
  -1   7   2   41.50    3.40
   0  -7  -2   57.79    2.40
   0  -7  -2   59.39    3.10
   0  -7  -2   55.29    2.70
   0   7   2   55.29    4.10
  -1  -7  -2  158.08    6.20
  -1  -7  -2  151.48    5.80
  -1  -7  -2  161.58    6.80
   1   7   2  153.38    8.00
  -2  -7  -2  119.19    5.70
  -2  -7  -2  117.59    4.50
  -3  -7  -2  218.68    8.70
  -3  -7  -2  241.58   10.30
   3   7   2  242.78    9.60
  -4  -7  -2    0.40    1.30
  -4  -7  -2    0.90    0.90
  -5  -7  -2   11.80    1.50
  -5  -7  -2    6.10    2.00
  -5  -7  -2    8.20    2.10
  -6  -7  -2    1.90    1.30
  -6  -7  -2   -0.80    1.50
  -6  -7  -2    1.20    1.60
  -7  -7  -2   10.50    2.10
  -7  -7  -2   11.60    2.30
  -8  -7  -2   23.00    2.50
  -8  -7  -2   15.40    2.40
  13  -8  -2    6.70    1.10
  12  -8  -2    7.20    1.30
  11  -8  -2    6.60    1.40
 -11   8   2    4.20    1.80
  10  -8  -2    1.70    1.00
 -10   8   2   -1.90    1.50
   9  -8  -2    7.10    1.40
  -9   8   2    7.00    2.20
   8  -8  -2   21.20    2.10
  -8   8   2   26.90    3.20
   7  -8  -2    2.70    0.80
   7  -8  -2    2.80    0.90
  -7   8   2    4.30    1.60
   6  -8  -2   11.50    1.30
  -6   8   2    9.00    1.90
   5  -8  -2    5.80    0.80
   5  -8  -2    4.20    0.90
  -5   8   2    2.00    1.20
  -5   8   2    0.60    1.70
   4  -8  -2    2.10    0.70
   4  -8  -2    1.80    0.60
   4  -8  -2    2.30    0.60
  -4   8   2    1.60    0.60
  -4   8   2    1.50    1.00
  -4   8   2    0.10    1.30
   3  -8  -2   46.60    2.60
   3  -8  -2   46.50    2.20
   3  -8  -2   45.00    2.50
  -3   8   2   41.60    3.80
  -3   8   2   45.20    2.30
  -3   8   2   44.20    2.90
   2  -8  -2   15.50    1.20
   2  -8  -2   13.30    1.30
   2  -8  -2   14.90    1.50
  -2   8   2   13.70    2.40
  -2   8   2   15.50    1.60
   1  -8  -2    0.70    0.60
   1  -8  -2    0.90    0.50
   1  -8  -2    0.40    0.80
  -1   8   2    0.00    1.10
   0  -8  -2   13.40    1.30
   0  -8  -2   11.70    1.60
   0  -8  -2   12.20    1.10
   0   8   2   10.90    2.50
  -1  -8  -2   -0.20    0.60
  -1  -8  -2    0.30    0.80
  -2  -8  -2    8.90    1.00
  -2  -8  -2    6.40    1.80
   2   8   2    7.80    1.30
  -3  -8  -2    3.00    0.90
  -3  -8  -2    3.50    1.80
  -4  -8  -2    4.40    1.10
  -4  -8  -2    4.80    1.90
  -5  -8  -2    2.70    1.80
  -5  -8  -2    3.30    1.40
  -6  -8  -2    4.70    1.90
  -7  -8  -2    1.40    1.30
  13  -9  -2    0.90    0.70
  12  -9  -2   85.29    4.10
 -12   9   2   77.59    4.80
  11  -9  -2   64.29    3.60
 -11   9   2   59.69    4.50
  10  -9  -2    3.40    1.10
 -10   9   2    1.10    1.80
   9  -9  -2    6.40    1.40
  -9   9   2    1.10    2.00
   8  -9  -2   48.90    3.00
  -8   9   2   44.10    3.90
   7  -9  -2  190.58    7.80
   7  -9  -2  187.68    8.00
  -7   9   2  189.28    8.80
   6  -9  -2    9.20    1.30
   6  -9  -2   11.60    1.60
  -6   9   2    8.00    1.90
   5  -9  -2    1.10    0.70
   5  -9  -2    1.20    0.70
  -5   9   2   -1.50    1.20
   4  -9  -2   21.30    1.50
   4  -9  -2   16.60    1.70
   4  -9  -2   16.80    1.60
  -4   9   2   15.80    2.40
  -4   9   2   15.10    1.40
   3  -9  -2    2.30    0.90
   3  -9  -2    1.70    0.70
   3  -9  -2    1.50    0.70
  -3   9   2    1.50    0.60
  -3   9   2    2.10    1.00
   2  -9  -2  265.17   10.90
   2  -9  -2  275.07   10.20
   1  -9  -2   25.00    1.60
   1  -9  -2   18.20    4.00
   1  -9  -2   23.10    2.20
   0  -9  -2    6.20    1.50
   0  -9  -2    4.80    2.60
   0  -9  -2    6.00    1.40
   0  -9  -2    6.10    1.00
  -1  -9  -2   65.29    7.20
  -1  -9  -2   68.29    3.10
  -1  -9  -2   74.79    4.60
  -2  -9  -2  370.16   15.00
  -2  -9  -2  353.26   13.40
  -3  -9  -2  232.58   10.50
  -3  -9  -2  224.78    8.80
  -4  -9  -2    5.20    1.30
  -4  -9  -2    5.30    1.90
  -5  -9  -2   17.10    2.60
  -6  -9  -2    4.80    1.60
  13 -10  -2    4.10    0.90
  12 -10  -2    0.20    0.80
 -12  10   2   -0.20    1.20
  11 -10  -2    2.30    1.10
 -11  10   2   -1.00    1.40
  10 -10  -2    4.20    1.20
 -10  10   2    1.30    1.80
   9 -10  -2    0.20    0.90
  -9  10   2   -0.80    1.90
   8 -10  -2    9.20    1.20
   8 -10  -2    6.70    1.40
  -8  10   2    9.50    2.30
   7 -10  -2   11.00    1.70
   7 -10  -2   11.80    1.70
  -7  10   2   13.40    2.30
   6 -10  -2    6.90    1.40
   6 -10  -2    8.80    1.60
  -6  10   2    8.80    2.00
   5 -10  -2   18.10    2.10
   5 -10  -2   19.10    2.20
   5 -10  -2   18.20    1.90
   5 -10  -2   17.80    1.70
  -5  10   2   17.20    2.50
   4 -10  -2    0.50    0.70
   4 -10  -2    0.40    0.70
   4 -10  -2    0.40    1.00
   4 -10  -2   -2.90    2.70
  -4  10   2   -2.40    1.30
   3 -10  -2    8.80    1.20
   3 -10  -2    7.20    3.20
   3 -10  -2   10.20    1.70
   3 -10  -2    5.90    1.30
   2 -10  -2    6.20    1.40
   2 -10  -2    5.40    2.80
   2 -10  -2    8.00    1.60
   2 -10  -2    5.20    1.00
   1 -10  -2    1.50    1.30
   1 -10  -2   -0.20    2.30
   1 -10  -2    1.30    0.80
   0 -10  -2    0.90    0.90
   0 -10  -2    0.70    2.70
   0 -10  -2   -0.40    1.30
  -1 -10  -2    0.50    1.00
  -1 -10  -2    0.30    1.30
  -1 -10  -2   -1.90    2.90
  -2 -10  -2   35.30    3.60
  -2 -10  -2   36.30    2.60
  -3 -10  -2   15.50    2.50
  -3 -10  -2   12.00    1.60
  -4 -10  -2    2.20    1.70
  -5 -10  -2    2.20    1.40
  12 -11  -2   30.80    2.20
 -12  11   2   25.10    2.60
  11 -11  -2    2.70    1.10
 -11  11   2    0.20    1.40
  10 -11  -2    3.30    1.30
 -10  11   2   -0.30    1.60
   9 -11  -2   17.10    2.10
  -9  11   2   17.70    2.80
   8 -11  -2   16.40    1.80
   8 -11  -2   16.90    2.10
  -8  11   2   16.00    2.70
   7 -11  -2   10.50    1.60
   7 -11  -2   10.80    1.70
  -7  11   2   11.50    2.20
   6 -11  -2   18.30    2.10
   6 -11  -2   18.60    2.10
  -6  11   2   17.50    2.40
   5 -11  -2    8.80    1.70
   5 -11  -2    7.60    4.80
   5 -11  -2   10.80    1.80
   5 -11  -2   12.30    1.40
  -5  11   2   13.40    2.10
   4 -11  -2    0.50    0.90
   4 -11  -2   -0.90    3.40
   4 -11  -2    1.50    1.20
   4 -11  -2   -0.50    1.20
   3 -11  -2   79.19    3.90
   3 -11  -2   89.19    9.20
   3 -11  -2   80.29    4.70
   2 -11  -2    6.70    1.30
   2 -11  -2    5.30    3.40
   2 -11  -2    4.40    1.50
   1 -11  -2   11.90    2.20
   1 -11  -2    9.20    3.80
   1 -11  -2   12.40    1.50
   0 -11  -2    5.20    1.30
   0 -11  -2    5.80    1.90
   0 -11  -2    7.00    3.80
  -1 -11  -2    0.70    1.50
  -1 -11  -2    3.60    3.80
  -1 -11  -2    1.50    1.20
  -2 -11  -2   35.80    2.60
  -2 -11  -2   43.20    3.70
  -3 -11  -2    7.70    2.00
  -4 -11  -2    5.40    1.50
  12 -12  -2   11.50    1.30
  11 -12  -2   -0.90    0.80
 -11  12   2   -0.70    1.10
  10 -12  -2    0.70    1.00
 -10  12   2   -1.00    1.40
   9 -12  -2   29.40    2.50
  -9  12   2   25.00    3.00
   8 -12  -2    2.40    1.30
   8 -12  -2    2.20    1.00
  -8  12   2    3.40    2.00
   7 -12  -2    5.90    1.50
   7 -12  -2    4.80    1.50
  -7  12   2   10.20    2.20
   6 -12  -2   -1.60    3.50
   6 -12  -2    5.50    1.50
   6 -12  -2    3.10    1.40
   5 -12  -2   -0.10    1.30
   5 -12  -2    0.20    1.40
   5 -12  -2    0.20    1.20
   5 -12  -2   -3.20    3.80
   4 -12  -2   33.90    2.50
   4 -12  -2   33.10    3.20
   4 -12  -2   35.70    3.10
   4 -12  -2   35.10    6.30
   3 -12  -2  118.79   11.00
   3 -12  -2  103.69    4.80
   3 -12  -2   96.09    5.50
   2 -12  -2    1.70    1.40
   2 -12  -2    1.40    1.20
   2 -12  -2    3.40    3.60
   1 -12  -2    4.10    1.60
   1 -12  -2    9.90    4.10
   1 -12  -2    3.10    1.30
   0 -12  -2    1.80    1.50
   0 -12  -2    2.70    1.30
   0 -12  -2    1.30    3.70
  -1 -12  -2    0.10    1.40
  -1 -12  -2    5.20    3.80
  -2 -12  -2    7.10    1.70
  -3 -12  -2   12.50    1.80
  11 -13  -2    3.60    1.00
 -11  13   2    2.20    1.10
  10 -13  -2   12.40    1.60
 -10  13   2    7.80    1.80
   9 -13  -2   58.49    3.40
  -9  13   2   51.29    3.90
   8 -13  -2   13.40    1.90
   8 -13  -2   11.30    1.60
  -8  13   2   15.80    2.30
   7 -13  -2   10.10    1.60
   7 -13  -2   11.50    1.80
   6 -13  -2   32.80    2.90
   6 -13  -2   34.00    3.00
   6 -13  -2   27.20    5.10
   5 -13  -2   39.90    8.10
   5 -13  -2   45.70    3.50
   5 -13  -2   45.80    3.40
   4 -13  -2   18.70    1.80
   4 -13  -2   17.70    5.20
   4 -13  -2   16.80    2.30
   4 -13  -2   16.90    2.30
   3 -13  -2   22.50    2.00
   3 -13  -2   23.90    2.50
   3 -13  -2   21.20    2.60
   3 -13  -2   22.90    5.40
   2 -13  -2   -0.90    1.20
   2 -13  -2    4.30    4.00
   1 -13  -2    2.20    1.40
   1 -13  -2    4.40    4.00
   0 -13  -2   12.40    2.10
   0 -13  -2   14.10    4.30
  -1 -13  -2   14.10    2.00
  -2 -13  -2    0.20    0.90
  10 -14  -2   -0.20    0.70
 -10  14   2    0.80    1.30
   9 -14  -2    3.60    1.10
  -9  14   2    3.30    1.20
   8 -14  -2   10.00    1.60
   7 -14  -2    8.70    1.30
   7 -14  -2    6.00    1.40
   6 -14  -2   -4.50    2.10
   6 -14  -2    0.90    1.10
   6 -14  -2   -0.40    1.20
   5 -14  -2   13.00    1.90
   5 -14  -2    6.00    3.80
   5 -14  -2    9.30    1.90
   4 -14  -2   16.90    4.70
   4 -14  -2   17.20    2.30
   4 -14  -2   16.80    2.10
   3 -14  -2   14.70    2.20
   3 -14  -2   12.40    1.90
   3 -14  -2   12.10    4.30
   2 -14  -2   14.40    4.30
   2 -14  -2   13.40    2.10
   2 -14  -2   15.10    2.10
   1 -14  -2    6.80    3.40
   1 -14  -2   -0.20    1.10
   1 -14  -2    3.00    1.80
   0 -14  -2    2.60    1.10
   8 -15  -2    1.50    0.90
   7 -15  -2    3.50    0.80
   7 -15  -2    4.40    1.20
   6 -15  -2    8.30    1.50
   6 -15  -2   11.40    1.50
  -6  15   2   38.20    9.20
   5 -15  -2    3.60    3.00
   5 -15  -2    1.40    1.10
   5 -15  -2    4.30    1.40
   4 -15  -2    4.20    1.60
   4 -15  -2    5.90    3.30
   4 -15  -2    4.40    1.20
   3 -15  -2    1.20    1.10
   3 -15  -2    5.60    3.30
   3 -15  -2    1.70    1.50
   2 -15  -2    2.80    1.60
   2 -15  -2   -0.20    0.80
  -2  15   2   -0.90    3.60
  -1  15  -3    9.70    2.70
   1 -15   3    9.00    1.30
   1 -15   3    9.40    1.70
  -2  15  -3   -0.90    3.60
   2 -15   3    3.00    1.50
   2 -15   3    1.60    1.00
  -3  15  -3    2.90    4.90
   3 -15   3    1.60    1.40
   3 -15   3    0.20    1.00
  -4  15  -3    6.90    6.20
   4 -15   3    1.50    1.10
   4 -15   3    1.90    1.10
  -5  15  -3   25.00    7.00
   5 -15   3   16.00    1.50
   5 -15   3   16.80    1.90
  -6  15  -3    1.30    5.50
   6 -15   3    8.60    1.40
   7 -15   3    7.60    1.30
   8 -15   3    6.10    1.20
   9 -15   3   29.70    2.00
  -1 -14   3    4.30    1.10
  -1 -14   3    3.70    1.50
   0  14  -3    0.30    2.50
   0 -14   3    2.40    1.80
   0 -14   3    1.10    1.10
  -1  14  -3    8.70    4.50
   1 -14   3    2.60    1.20
   1 -14   3    4.90    1.80
  -2  14  -3   20.10    6.40
   2 -14   3    1.00    1.30
   2 -14   3    1.80    1.60
   3 -14   3   -0.20    1.30
   3 -14   3   -0.80    1.10
   4 -14   3    1.30    1.20
   4 -14   3   -1.60    0.90
  -5  14  -3   38.40    9.30
   5 -14   3    3.40    1.30
  -6  14  -3   15.10    8.40
   6 -14   3    7.10    1.50
   6 -14   3    9.00    1.10
   7 -14   3   -1.20    1.00
   8 -14   3    0.30    0.90
   9 -14   3    3.30    1.10
 -10  14  -3    2.80    1.60
  10 -14   3    2.10    0.90
  -2 -13   3    3.40    1.70
  -2 -13   3    5.10    1.40
   1  13  -3   16.20    3.50
  -1 -13   3   13.40    2.30
  -1 -13   3   12.00    1.90
   0  13  -3  134.09   12.10
   0 -13   3  147.29    6.80
   0 -13   3  142.79    6.70
  -1  13  -3   29.30    7.10
   1 -13   3   31.30    3.40
   1 -13   3   32.30    3.10
   2 -13   3   -0.80    1.30
   2 -13   3    2.20    1.60
   3 -13   3   -1.50    2.90
   3 -13   3    2.60    1.40
   3 -13   3    1.90    1.30
   4 -13   3   52.99    3.40
   4 -13   3   50.89    3.50
  -5  13  -3  132.99   15.90
   5 -13   3   61.29    3.70
  -6  13  -3   54.89   11.10
   6 -13   3   32.10    2.30
   6 -13   3   31.80    2.80
   7 -13   3   41.60    3.00
   8 -13   3    4.30    1.30
  -9  13  -3   37.90    3.30
   9 -13   3   41.90    2.80
 -10  13  -3   67.59    4.20
  10 -13   3   70.39    3.60
 -11  13  -3    6.70    1.50
  11 -13   3    8.60    1.20
  -4 -12   3   -0.20    0.90
  -4 -12   3   -1.30    1.40
  -3 -12   3    3.10    1.80
  -3 -12   3    2.50    1.30
  -2 -12   3    1.90    1.40
  -2 -12   3   -0.60    2.80
   1  12  -3   -5.70    4.80
  -1 -12   3    8.10    1.80
  -1 -12   3   11.30    2.40
  -1 -12   3   10.50    1.90
   0  12  -3   10.50    6.80
   0 -12   3   32.10    3.20
   0 -12   3   29.10    2.50
   0 -12   3   33.40    3.50
   1 -12   3   24.10    5.00
   1 -12   3   26.70    2.40
   1 -12   3   34.60    3.10
   1 -12   3   27.90    3.00
   2 -12   3   -1.30    2.80
   2 -12   3    2.70    1.40
   2 -12   3    3.20    1.10
   2 -12   3    2.70    1.40
   3 -12   3   50.29    7.30
   3 -12   3   57.89    3.70
   3 -12   3   55.89    3.60
   4 -12   3   18.70    2.20
   4 -12   3   15.30    4.20
   4 -12   3   17.80    2.20
   5 -12   3   57.69    3.60
   5 -12   3   58.79    3.40
   5 -12   3   53.39    7.10
  -6  12  -3   22.30    8.40
   6 -12   3   24.50    2.10
   6 -12   3   29.10    2.60
   7 -12   3    2.00    1.20
  -8  12  -3    1.40    1.40
   8 -12   3    1.50    1.10
  -9  12  -3   40.50    3.70
   9 -12   3   41.40    2.90
 -10  12  -3   49.30    3.90
  10 -12   3   50.39    3.00
 -11  12  -3    5.20    1.70
  11 -12   3    3.90    1.10
  12 -12   3    0.40    0.70
  -5 -11   3    1.40    1.00
  -4 -11   3    1.10    1.30
  -3 -11   3    0.80    1.40
  -2 -11   3    1.10    1.30
  -2 -11   3   -0.70    1.30
  -1 -11   3  151.28    6.50
  -1 -11   3  156.98    7.50
   0 -11   3   10.10    1.50
   0 -11   3   13.60    2.10
   0 -11   3    7.90    3.50
   1 -11   3   24.90    2.60
   1 -11   3   16.60    4.40
   1 -11   3   22.60    2.10
   1 -11   3   21.30    2.70
   2 -11   3   34.00    2.40
   2 -11   3   34.40    2.80
   2 -11   3   34.40    2.90
   2 -11   3   26.10    4.90
   3 -11   3    1.20    0.90
   3 -11   3    0.70    1.20
   3 -11   3   -3.20    2.60
   3 -11   3   -0.20    1.00
   4 -11   3    0.40    1.10
   4 -11   3   -0.80    3.00
   4 -11   3    1.20    1.10
   5 -11   3    2.00    1.10
   5 -11   3   -1.40    2.70
   5 -11   3    1.30    1.10
   6 -11   3   -0.30    0.90
   6 -11   3    0.40    0.80
  -7  11  -3   10.90    1.90
   7 -11   3    3.20    1.20
  -8  11  -3   16.10    2.40
   8 -11   3   17.20    2.00
  -9  11  -3   14.50    2.40
   9 -11   3   13.80    1.80
 -10  11  -3    0.00    1.40
  10 -11   3   -0.30    0.90
 -11  11  -3    0.10    1.50
  11 -11   3    0.70    0.90
 -12  11  -3    4.50    1.40
  12 -11   3    3.50    1.00
  -6 -10   3   15.80    1.90
  -5 -10   3    0.80    1.30
  -5 -10   3    2.50    1.40
  -4 -10   3    4.90    1.80
  -4 -10   3    2.90    1.50
  -3 -10   3   14.80    2.40
  -3 -10   3   17.70    2.00
  -3 -10   3   15.60    2.50
  -2 -10   3    6.80    1.40
  -2 -10   3    4.20    1.70
  -2 -10   3    5.30    1.60
  -1 -10   3    1.80    2.90
  -1 -10   3    0.80    1.00
  -1 -10   3    3.10    1.50
   0 -10   3    6.90    1.70
   0 -10   3    8.20    1.20
   0 -10   3    5.60    3.30
  -1  10  -3    7.00    1.40
   1 -10   3    8.80    1.60
   1 -10   3    5.10    3.10
   1 -10   3    9.10    1.20
   2 -10   3    5.90    1.40
   2 -10   3    5.50    1.30
   2 -10   3    4.10    3.00
   2 -10   3    5.20    1.00
   2 -10   3    6.70    1.90
   3 -10   3   54.99    2.80
   3 -10   3   47.80    3.10
   3 -10   3   46.10    6.60
   3 -10   3   47.30    3.80
   4 -10   3  184.68   12.20
   4 -10   3  176.88    7.40
   4 -10   3  166.88    7.50
  -5  10  -3  155.18    6.60
   5 -10   3  130.49    6.60
   5 -10   3  192.18   10.10
   5 -10   3  139.49    6.50
  -6  10  -3   77.79    4.20
   6 -10   3   66.29    3.40
   6 -10   3   64.79    3.70
  -7  10  -3    4.20    1.50
   7 -10   3    0.30    0.90
  -8  10  -3   16.00    2.40
   8 -10   3   17.40    2.00
  -9  10  -3    6.30    2.00
   9 -10   3    6.60    1.40
 -10  10  -3    8.70    2.20
  10 -10   3   13.30    1.70
 -11  10  -3    2.90    1.60
  11 -10   3    2.70    1.00
 -12  10  -3    3.20    1.50
  12 -10   3    3.30    1.00
  -7  -9   3   14.30    1.80
  -6  -9   3   10.20    2.10
  -6  -9   3   16.70    2.20
  -5  -9   3    3.70    1.60
  -5  -9   3   -1.50    1.30
  -5  -9   3   -1.10    1.40
  -4  -9   3    2.30    1.50
  -4  -9   3    4.90    1.50
  -4  -9   3    2.00    1.70
  -3  -9   3    0.40    1.10
  -3  -9   3    0.50    1.30
  -3  -9   3   -1.30    1.30
  -2  -9   3   15.30    1.60
  -2  -9   3   14.90    2.20
  -2  -9   3   15.80    2.40
   1   9  -3   24.10    2.20
  -1  -9   3   35.70    2.20
  -1  -9   3   23.20    4.40
  -1  -9   3   29.80    2.80
  -1  -9   3   34.60    3.00
   0   9  -3    1.70    0.80
   0  -9   3    0.30    1.00
   0  -9   3    2.10    0.90
   0  -9   3    0.40    2.60
   1  -9   3    0.30    0.70
   1  -9   3    0.80    0.70
   1  -9   3    0.00    0.70
   2  -9   3   23.30    1.70
   2  -9   3   19.20    1.80
   2  -9   3   20.30    1.80
   3  -9   3   94.69    4.10
  -4   9  -3   -0.10    0.80
  -5   9  -3   44.20    2.50
  -6   9  -3   23.80    2.20
   6  -9   3   14.80    1.70
  -7   9  -3    6.10    1.40
   7  -9   3    0.60    0.90
  -8   9  -3   13.20    2.30
   8  -9   3   17.00    1.90
  -9   9  -3   -1.70    1.40
   9  -9   3    0.30    0.80
 -10   9  -3   60.99    4.60
  10  -9   3   60.89    3.50
 -11   9  -3    0.40    1.50
  11  -9   3    0.90    0.90
 -12   9  -3    1.90    1.40
  12  -9   3    2.60    0.90
  13  -9   3    0.60    0.70
  -8  -8   3    1.20    1.00
  -7  -8   3   77.49    4.60
  -7  -8   3   75.59    4.80
  -6  -8   3   98.69    5.90
  -6  -8   3  102.79    5.80
  -5  -8   3   11.40    2.30
  -5  -8   3   12.20    2.40
  -5  -8   3   16.70    1.90
  -4  -8   3   18.80    1.90
  -4  -8   3   12.70    2.30
  -4  -8   3   14.40    2.40
  -3  -8   3   14.60    2.30
  -3  -8   3   15.90    1.60
  -3  -8   3   11.00    2.00
   2   8  -3   17.10    1.90
  -2  -8   3   18.30    2.40
  -2  -8   3   16.50    2.20
  -2  -8   3   18.50    1.70
   1   8  -3   95.99    4.60
  -1  -8   3   94.39    5.10
  -1  -8   3   99.69    4.20
  -1  -8   3   91.89    4.70
   0   8  -3   13.20    1.50
   0  -8   3   14.70    1.40
   0  -8   3   12.00    1.40
  -1   8  -3   -1.00    1.40
   1  -8   3    1.90    0.70
   1  -8   3    2.60    0.70
   1  -8   3    3.10    0.80
  -2   8  -3   -1.20    1.50
   2  -8   3    1.20    0.70
   2  -8   3    1.80    0.70
   2  -8   3    0.80    0.60
  -3   8  -3   53.49    3.00
   3  -8   3   57.99    2.70
   3  -8   3   58.19    2.80
  -4   8  -3    2.80    2.60
  -4   8  -3    7.70    1.30
  -5   8  -3   19.90    2.00
  -5   8  -3   12.50    3.70
  -6   8  -3   39.20    2.80
  -7   8  -3   58.79    3.70
   7  -8   3   49.70    3.10
  -8   8  -3  105.19    5.60
   8  -8   3  100.19    4.80
  -9   8  -3   -0.50    1.30
   9  -8   3    0.30    0.90
 -10   8  -3    7.80    2.20
  10  -8   3    7.90    1.40
 -11   8  -3    3.70    1.80
  11  -8   3    2.30    1.10
 -12   8  -3    1.30    1.50
  12  -8   3    2.20    0.90
  13  -8   3    0.40    0.70
  -8  -7   3   17.40    2.30
  -8  -7   3   19.10    2.60
  -7  -7   3   18.90    2.70
  -7  -7   3   15.50    2.70
  -6  -7   3    0.60    1.80
  -6  -7   3    1.60    1.70
  -6  -7   3    4.90    1.40
  -5  -7   3    9.10    1.50
  -5  -7   3    4.30    2.00
  -5  -7   3    7.50    2.10
  -4  -7   3    0.60    0.90
  -4  -7   3    0.10    1.30
  -4  -7   3    0.60    1.30
   3   7  -3   12.80    1.60
  -3  -7   3   14.30    2.10
  -3  -7   3   17.50    1.60
  -3  -7   3   17.70    2.30
   2   7  -3   11.20    1.40
  -2  -7   3   12.80    1.20
  -2  -7   3   10.90    1.40
   1   7  -3   -0.40    1.00
   1   7  -3    0.60    0.60
  -1  -7   3   -0.10    0.60
  -1  -7   3    0.70    0.60
   0   7  -3    2.30    1.40
   0  -7   3    9.90    1.20
   0  -7   3    8.00    0.80
   0  -7   3    8.30    1.10
  -1   7  -3   -0.70    1.00
   1  -7   3    1.80    0.70
   1  -7   3    2.30    0.70
   1  -7   3    3.50    0.60
  -2   7  -3   -0.10    1.30
  -2   7  -3    1.60    0.60
   2  -7   3    2.70    0.70
   2  -7   3    1.70    0.50
   2  -7   3    1.40    0.50
  -3   7  -3   22.70    1.50
  -3   7  -3   21.20    1.70
   3  -7   3   23.80    1.40
   3  -7   3   22.90    1.40
   3  -7   3   22.50    1.60
  -5   7  -3   10.90    3.20
  -5   7  -3   19.00    1.90
  -6   7  -3   10.20    1.60
  -7   7  -3    5.30    1.30
  -8   7  -3    4.80    1.40
  -8   7  -3    4.80    1.20
   8  -7   3    6.30    1.20
  -9   7  -3   17.70    2.50
   9  -7   3   18.10    1.90
 -10   7  -3    1.30    1.70
  10  -7   3    3.10    1.10
 -11   7  -3    0.10    1.10
 -11   7  -3   -0.60    1.40
  11  -7   3    0.00    0.90
 -12   7  -3    3.60    1.20
  12  -7   3    4.40    1.10
  13  -7   3   12.60    1.30
  -9  -6   3   -0.30    1.20
  -9  -6   3    1.10    1.50
  -8  -6   3    6.50    2.20
  -8  -6   3   12.10    2.30
  -7  -6   3   69.39    5.10
  -7  -6   3   69.39    3.80
  -7  -6   3   68.79    5.00
  -6  -6   3    3.80    1.30
  -6  -6   3    4.60    1.80
  -6  -6   3    2.30    1.80
  -5  -6   3    1.40    1.50
  -5  -6   3    3.20    1.10
  -5  -6   3    1.30    1.40
   4   6  -3    2.20    1.00
  -4  -6   3    2.50    0.90
  -4  -6   3    2.10    1.30
  -4  -6   3    3.20    1.50
   3   6  -3   18.70    1.60
  -3  -6   3   16.20    1.30
  -3  -6   3   14.20    1.60
   2   6  -3   93.19    4.10
  -2  -6   3   85.89    4.10
  -2  -6   3   87.49    3.70
   1   6  -3  119.59    5.10
  -1  -6   3  118.79    4.70
  -1  -6   3  125.99    5.20
   0  -6   3  302.77   11.60
   0  -6   3  306.57   11.50
   0  -6   3  299.27   11.10
  -1   6  -3   81.29    3.50
   1  -6   3   77.39    3.30
   1  -6   3   81.09    3.50
   1  -6   3   84.19    3.60
  -2   6  -3  453.75   16.70
   2  -6   3  443.96   16.50
   2  -6   3  448.16   16.70
   2  -6   3  457.65   16.40
  -3   6  -3  227.98    8.90
  -3   6  -3  232.78    8.70
   3  -6   3  229.98    8.60
   3  -6   3  221.08    8.80
  -4   6  -3  192.38    7.80
  -5   6  -3  170.28    6.80
  -5   6  -3  143.19    8.40
  -5   6  -3  159.68    6.20
  -6   6  -3   40.90    2.70
  -6   6  -3   38.00    2.10
  -6   6  -3   34.90    2.10
  -7   6  -3   49.70    2.70
  -7   6  -3   52.59    2.80
  -7   6  -3   47.30    3.20
  -7   6  -3   56.49    3.70
  -8   6  -3   19.60    2.50
  -8   6  -3   17.30    1.80
  -8   6  -3   19.20    2.60
  -8   6  -3   19.20    1.80
   8  -6   3   13.60    1.60
  -9   6  -3   39.60    3.50
  -9   6  -3   39.70    2.80
  -9   6  -3   37.90    3.60
  -9   6  -3   39.90    2.70
   9  -6   3   40.00    2.60
 -10   6  -3   10.40    1.70
 -10   6  -3    6.80    2.20
 -10   6  -3    8.70    2.10
  10  -6   3    8.50    1.50
 -11   6  -3    9.60    1.70
 -11   6  -3    9.80    2.30
 -11   6  -3   11.90    2.30
  11  -6   3   10.60    1.60
 -12   6  -3   35.00    2.70
  12  -6   3   34.80    2.40
 -13   6  -3   24.80    2.00
  13  -6   3   22.90    1.70
 -10  -5   3    0.60    1.20
  -9  -5   3    1.30    1.50
  -9  -5   3   -0.20    1.70
  -8  -5   3    2.90    1.20
  -8  -5   3    0.50    1.90
  -8  -5   3    1.50    1.80
  -7  -5   3   21.20    2.10
  -7  -5   3   23.50    3.30
  -7  -5   3   17.40    2.70
  -6  -5   3   14.00    2.30
  -6  -5   3   15.80    2.70
  -6  -5   3   18.30    1.80
   5   5  -3    0.30    0.80
  -5  -5   3    1.80    0.90
  -5  -5   3    1.60    1.40
  -5  -5   3    1.90    1.30
   4   5  -3    4.40    1.00
  -4  -5   3    5.30    0.90
  -4  -5   3    4.50    1.00
   3   5  -3    7.30    1.00
  -3  -5   3    6.30    1.00
  -3  -5   3    7.20    0.80
   2   5  -3   24.20    1.50
  -2  -5   3   19.40    1.20
  -2  -5   3   20.80    1.60
   1   5  -3    8.40    0.90
  -1  -5   3    9.90    0.80
  -1  -5   3    8.10    0.90
   0   5  -3    9.10    0.70
   0  -5   3    8.40    0.90
   0  -5   3    9.00    0.90
   0  -5   3    8.10    0.80
  -1   5  -3   39.40    1.90
   1  -5   3   42.70    2.00
   1  -5   3   40.60    2.00
  -2   5  -3    1.20    1.10
  -2   5  -3    6.60    0.80
  -2   5  -3    5.40    0.70
   2  -5   3    4.70    0.60
   2  -5   3    5.30    0.60
  -3   5  -3  147.49    5.40
  -3   5  -3  144.69    5.60
  -3   5  -3  141.79    5.80
  -3   5  -3  153.28    5.90
   3  -5   3  137.69    5.70
   3  -5   3  137.59    5.40
  -4   5  -3  215.08    8.70
  -4   5  -3  225.38    8.60
  -4   5  -3  219.78    8.20
  -5   5  -3   17.10    1.20
  -5   5  -3   16.90    2.70
  -5   5  -3   12.20    1.30
  -5   5  -3   13.20    1.50
  -5   5  -3   14.10    1.20
  -6   5  -3    4.10    0.90
  -6   5  -3    3.20    0.70
  -6   5  -3    5.60    0.90
  -6   5  -3    4.10    1.00
  -7   5  -3   20.40    1.70
  -7   5  -3   22.70    2.20
  -7   5  -3   24.10    1.70
  -7   5  -3   20.90    1.90
  -8   5  -3   42.40    2.60
  -8   5  -3   36.70    2.50
  -8   5  -3   43.80    3.40
  -8   5  -3   43.40    3.50
  -9   5  -3   30.50    3.40
  -9   5  -3   32.20    3.30
  -9   5  -3   30.10    2.60
  -9   5  -3   29.80    2.40
   9  -5   3   31.00    2.40
 -10   5  -3   29.70    2.70
 -10   5  -3   28.50    3.50
 -10   5  -3   28.30    2.50
 -10   5  -3   29.00    3.50
  10  -5   3   27.50    2.40
 -11   5  -3    5.60    2.00
 -11   5  -3    3.30    1.50
 -11   5  -3    5.70    1.30
  11  -5   3    5.10    1.30
 -12   5  -3   48.00    3.20
 -12   5  -3   47.70    3.90
  12  -5   3   54.59    3.10
 -13   5  -3   10.90    1.40
  13  -5   3   13.20    1.40
 -10  -4   3    6.20    1.70
 -10  -4   3    3.60    1.70
 -10  -4   3    0.40    1.20
  -9  -4   3    1.20    1.90
  -9  -4   3   -1.40    1.50
  -8  -4   3   50.19    4.50
  -8  -4   3   52.29    3.20
  -8  -4   3   43.80    4.50
  -7  -4   3    8.20    1.40
  -7  -4   3    8.10    2.10
  -7  -4   3    7.40    2.20
   6   4  -3   11.30    1.60
  -6  -4   3   12.20    1.50
  -6  -4   3   12.80    2.20
  -6  -4   3   10.90    2.30
   5   4  -3   30.40    2.20
  -5  -4   3   35.10    2.10
  -5  -4   3   33.30    2.30
  -5  -4   3   33.70    3.00
   4   4  -3   62.39    3.10
  -4  -4   3   53.79    3.00
  -4  -4   3   59.69    2.70
   3   4  -3   50.19    2.50
  -3  -4   3   50.29    2.20
  -3  -4   3   45.30    2.50
   2   4  -3   26.50    1.50
  -2  -4   3   24.00    1.60
  -2  -4   3   24.50    1.30
   1   4  -3   33.50    1.80
  -1  -4   3   37.00    1.80
   0   4  -3   14.70    1.00
   0   4  -3   15.60    0.90
   0  -4   3   14.40    1.00
   0  -4   3   16.60    1.10
  -1   4  -3  153.88    5.70
  -1   4  -3  146.49    5.80
   1  -4   3  137.79    5.40
   1  -4   3  158.88    5.70
   1  -4   3  151.98    5.70
   1  -4   3  146.79    5.60
  -2   4  -3  648.74   23.70
  -2   4  -3  671.73   24.00
  -2   4  -3  669.63   24.00
   2  -4   3  633.74   23.90
   2  -4   3  673.93   23.80
   2  -4   3  672.83   23.70
  -3   4  -3    8.50    0.70
  -3   4  -3    8.10    0.70
  -3   4  -3    7.80    0.80
  -3   4  -3    7.20    0.90
  -3   4  -3    5.00    1.40
   3  -4   3    7.50    0.50
   3  -4   3    7.50    0.70
   3  -4   3    6.80    0.70
  -4   4  -3   13.10    1.00
  -4   4  -3   13.50    2.00
  -4   4  -3   13.10    1.00
  -4   4  -3   12.60    1.10
  -4   4  -3   13.10    1.30
  -5   4  -3  120.09    4.80
  -5   4  -3  113.09    4.60
  -5   4  -3  112.19    5.00
  -5   4  -3  117.99    4.90
  -6   4  -3    1.20    0.70
  -6   4  -3    1.10    0.80
  -6   4  -3    1.00    0.60
  -6   4  -3    1.50    0.60
  -7   4  -3   18.70    1.60
  -7   4  -3   19.80    1.80
  -7   4  -3   17.90    1.70
  -7   4  -3   17.80    2.00
  -8   4  -3   45.50    2.70
  -8   4  -3   43.50    3.60
  -8   4  -3   45.90    3.40
  -8   4  -3   48.20    2.90
  -9   4  -3    0.50    1.50
  -9   4  -3    1.20    1.10
  -9   4  -3    1.40    1.40
  -9   4  -3   -0.90    1.30
 -10   4  -3   11.70    2.40
 -10   4  -3    9.40    1.60
 -10   4  -3   11.20    1.90
 -10   4  -3   11.20    2.50
 -11   4  -3   34.60    2.70
 -11   4  -3   38.80    4.10
  11  -4   3   42.10    2.80
 -12   4  -3    5.90    1.50
 -12   4  -3    5.60    1.90
  12  -4   3    7.80    1.30
 -13   4  -3    8.70    1.40
  13  -4   3   10.50    1.20
 -11  -3   3    3.80    1.30
 -11  -3   3    2.30    1.60
 -10  -3   3   -0.20    1.50
 -10  -3   3    1.50    1.80
 -10  -3   3   -1.20    1.20
  -9  -3   3    8.10    1.50
  -9  -3   3    8.00    2.40
  -9  -3   3    7.80    2.30
  -8  -3   3    1.80    1.70
  -8  -3   3    1.20    1.20
  -8  -3   3   -1.20    1.90
  -7  -3   3    6.20    1.90
  -7  -3   3    4.40    1.20
  -7  -3   3    6.20    1.90
   6   3  -3    6.10    1.20
  -6  -3   3    7.10    1.80
  -6  -3   3    8.00    1.10
   5   3  -3    1.00    0.70
  -5  -3   3    0.80    0.60
  -5  -3   3    1.10    0.70
   4   3  -3    8.90    1.10
  -4  -3   3    8.60    1.10
  -4  -3   3    8.40    0.80
   3   3  -3  250.67    8.60
   3   3  -3  187.48    9.30
  -3  -3   3  219.88    8.20
  -3  -3   3  223.38    8.60
  -3  -3   3  237.88    8.30
   2   3  -3   75.79    3.20
  -2  -3   3   74.89    3.00
  -2  -3   3   79.69    3.30
   1   3  -3    0.00    0.60
   1   3  -3    0.50    0.30
   1   3  -3    0.50    0.30
  -1  -3   3    0.50    0.20
  -1  -3   3    0.80    0.20
  -1  -3   3    0.50    0.20
  -1  -3   3    0.90    0.40
   0   3  -3   22.90    1.00
   0   3  -3   19.40    1.10
   0  -3   3   17.80    0.90
   0  -3   3   20.70    1.00
   0  -3   3   21.70    1.20
   0  -3   3   19.60    1.10
  -1   3  -3  151.78    6.10
  -1   3  -3  172.58    5.90
   1  -3   3  159.48    6.00
   1  -3   3  163.98    6.00
   1  -3   3  158.08    6.10
  -2   3  -3   13.30    1.00
  -2   3  -3   14.50    0.80
  -2   3  -3   14.80    0.80
  -2   3  -3    9.40    1.70
  -2   3  -3   15.10    1.00
   2  -3   3   13.30    0.90
   2  -3   3   13.90    0.70
  -3   3  -3   38.80    1.70
  -3   3  -3   37.70    2.00
  -3   3  -3   37.90    1.90
  -3   3  -3   38.90    1.70
   3  -3   3   39.40    1.80
   3  -3   3   37.20    1.50
   3  -3   3   40.90    1.80
  -4   3  -3    4.20    0.60
  -4   3  -3    4.60    0.70
  -4   3  -3    4.00    1.00
  -4   3  -3    4.50    0.80
   4  -3   3    3.10    0.50
  -5   3  -3   21.50    1.70
  -5   3  -3   23.80    1.50
  -5   3  -3   21.80    1.30
  -5   3  -3   23.70    1.50
  -6   3  -3   46.00    2.70
  -6   3  -3   44.80    2.30
  -6   3  -3   46.30    2.50
  -6   3  -3   44.40    2.40
  -7   3  -3   36.40    2.40
  -7   3  -3   39.80    2.20
  -7   3  -3   38.10    2.40
  -7   3  -3   34.10    2.60
  -8   3  -3    6.00    1.20
  -8   3  -3    5.80    1.40
  -8   3  -3    5.40    1.80
  -8   3  -3    7.30    1.20
  -9   3  -3    0.70    1.20
  -9   3  -3    1.90    1.60
  -9   3  -3    0.10    1.00
  -9   3  -3    1.70    1.70
 -10   3  -3   31.10    2.70
 -10   3  -3   29.60    3.00
 -10   3  -3   29.20    3.40
 -10   3  -3   26.50    3.40
 -11   3  -3   36.80    3.20
 -11   3  -3   38.30    4.10
 -11   3  -3   40.70    2.80
 -11   3  -3   37.90    3.90
 -12   3  -3   17.10    2.10
 -12   3  -3   25.10    3.10
  12  -3   3   20.40    1.90
 -13   3  -3    3.50    1.00
 -11  -2   3    0.50    1.40
 -11  -2   3    1.00    1.50
 -10  -2   3   17.90    2.80
 -10  -2   3   22.20    2.20
 -10  -2   3   18.90    3.10
 -10  -2   3   20.20    2.40
  -9  -2   3   34.60    4.00
  -9  -2   3   35.10    4.20
  -9  -2   3   47.60    3.10
  -9  -2   3   34.10    2.80
  -8  -2   3   53.19    3.20
  -8  -2   3   52.99    4.20
  -8  -2   3   55.89    3.50
  -8  -2   3   50.19    4.30
   7   2  -3    1.30    0.90
  -7  -2   3    1.60    0.90
  -7  -2   3   -0.50    1.30
  -7  -2   3    1.10    1.00
  -7  -2   3    0.40    1.30
   6   2  -3    3.30    0.90
  -6  -2   3    5.10    1.20
  -6  -2   3    4.50    1.00
  -6  -2   3    5.40    1.00
   5   2  -3   95.29    4.20
  -5  -2   3   91.59    4.20
  -5  -2   3   87.89    3.90
  -5  -2   3   91.49    3.90
   4   2  -3   15.30    1.20
  -4  -2   3   15.00    1.30
  -4  -2   3   14.70    1.10
   3   2  -3    0.90    0.50
   3   2  -3    1.80    0.60
  -3  -2   3    0.40    0.60
  -3  -2   3    1.30    0.40
  -3  -2   3    1.00    0.50
   2   2  -3    6.00    0.70
   2   2  -3    5.40    1.00
   2   2  -3    6.80    0.60
  -2  -2   3    6.30    0.60
  -2  -2   3    7.80    0.90
   1   2  -3    1.10    0.30
   1   2  -3    1.10    0.70
   1   2  -3    1.30    0.30
   1   2  -3    1.80    0.20
  -1  -2   3    1.50    0.30
  -1  -2   3    2.00    0.30
  -1  -2   3    1.60    0.30
  -1  -2   3    2.00    0.40
   0   2  -3   62.99    2.60
   0   2  -3   69.29    2.70
   0   2  -3   70.69    2.80
   0  -2   3   64.99    2.60
   0  -2   3   74.09    2.70
  -1   2  -3   85.69    3.30
  -1   2  -3   82.39    3.10
  -1   2  -3   84.99    4.00
  -1   2  -3   85.59    3.30
  -1   2  -3   76.89    3.00
   1  -2   3   80.49    3.20
   1  -2   3   82.19    3.20
  -2   2  -3  392.16   14.50
  -2   2  -3  409.36   14.50
  -2   2  -3  396.56   14.60
  -2   2  -3  388.26   14.30
  -2   2  -3  428.76   15.20
   2  -2   3  397.96   14.40
   2  -2   3  388.96   14.50
  -3   2  -3  147.29    5.40
  -3   2  -3  145.79    5.60
  -3   2  -3  129.69    5.40
  -3   2  -3  144.49    6.00
  -3   2  -3  146.69    5.40
   3  -2   3  145.49    5.30
   3  -2   3  138.19    5.20
  -4   2  -3   15.60    1.10
  -4   2  -3   15.50    1.10
  -4   2  -3   15.10    1.30
  -4   2  -3   16.70    1.30
   4  -2   3   12.90    0.90
   4  -2   3   14.30    0.70
  -5   2  -3    3.60    0.70
  -5   2  -3    4.20    0.70
  -5   2  -3    4.50    0.90
  -5   2  -3    4.20    0.60
  -6   2  -3   10.20    1.00
  -6   2  -3    8.10    1.20
  -6   2  -3   10.70    1.20
  -6   2  -3    8.80    1.10
  -7   2  -3   14.10    1.50
  -7   2  -3   12.30    1.30
  -7   2  -3   14.10    1.50
  -8   2  -3    5.30    1.50
  -8   2  -3    0.70    1.20
  -8   2  -3    0.80    0.90
  -8   2  -3   -0.60    1.20
  -8   2  -3    1.00    0.80
  -9   2  -3   18.60    2.30
  -9   2  -3   18.90    2.70
  -9   2  -3   21.00    2.10
  -9   2  -3   16.30    2.70
 -10   2  -3    0.60    1.80
 -10   2  -3   -0.80    1.40
 -10   2  -3    1.40    1.70
 -10   2  -3    2.00    1.20
 -11   2  -3    0.20    1.70
 -11   2  -3    0.50    1.40
 -11   2  -3    1.20    1.80
 -12   2  -3    5.20    1.30
 -12   2  -3    3.90    1.80
  12  -2   3    6.30    1.20
 -12  -1   3    1.80    1.20
 -12  -1   3    3.30    1.30
 -11  -1   3   -0.50    1.10
 -11  -1   3    0.10    1.50
 -11  -1   3   -0.70    1.40
 -10  -1   3    1.60    1.40
 -10  -1   3    3.30    1.90
 -10  -1   3   -0.40    1.50
 -10  -1   3    2.40    1.90
 -10  -1   3    1.60    1.20
  -9  -1   3    5.80    1.50
  -9  -1   3    5.60    1.60
  -9  -1   3    7.20    2.20
  -9  -1   3    5.30    2.10
  -8  -1   3  126.79    5.60
  -8  -1   3  123.29    5.80
  -8  -1   3  127.29    6.80
  -8  -1   3  126.49    6.70
   7   1  -3    8.50    1.30
  -7  -1   3   10.40    1.30
  -7  -1   3   10.30    1.40
  -7  -1   3    9.90    1.90
   6   1  -3   24.20    1.80
  -6  -1   3   27.40    1.90
  -6  -1   3   27.10    1.80
  -6  -1   3   26.30    2.10
   5   1  -3   45.80    2.40
  -5  -1   3   46.60    2.50
  -5  -1   3   43.70    2.30
  -5  -1   3   46.00    2.20
   4   1  -3  545.95   19.20
  -4  -1   3  520.55   18.90
  -4  -1   3  500.95   19.20
  -4  -1   3  524.75   19.10
   3   1  -3  752.12   28.60
   3   1  -3  814.12   28.40
  -3  -1   3  811.32   28.50
  -3  -1   3  775.02   28.30
   2   1  -3  667.13   24.70
   2   1  -3  678.03   24.30
   2   1  -3  678.63   24.30
  -2  -1   3  671.53   24.20
  -2  -1   3  753.62   24.40
  -2  -1   3  652.03   24.10
  -2  -1   3  680.23   24.20
  -2  -1   3  636.24   24.10
   1   1  -3   41.30    1.80
   1   1  -3   40.80    1.90
   1   1  -3   43.60    1.80
   1   1  -3   47.60    2.30
  -1  -1   3   48.40    1.90
  -1  -1   3   52.49    2.00
  -1  -1   3   40.50    1.80
   0   1  -3  975.10   33.10
   0   1  -3  927.11   33.60
   0   1  -3  936.11   33.10
   0   1  -3  903.41   33.00
   0  -1   3  877.21   33.10
   0  -1   3  945.81   33.10
   0  -1   3  926.11   33.00
  -1   1  -3  237.68    8.70
  -1   1  -3  239.68    9.20
  -1   1  -3  240.98    8.80
  -1   1  -3  227.48    8.60
  -1   1  -3  232.58    8.50
  -1   1  -3  246.68    8.70
   1  -1   3  243.88    8.60
   1  -1   3  232.78    8.60
  -2   1  -3  180.88    6.90
  -2   1  -3  185.08    7.00
  -2   1  -3  194.58    7.10
  -2   1  -3  188.78    6.90
   2  -1   3  193.68    6.80
   2  -1   3  185.98    6.80
  -3   1  -3  135.19    5.30
  -3   1  -3  147.99    5.50
  -3   1  -3  148.79    5.40
  -3   1  -3  142.19    5.60
  -3   1  -3  143.99    5.80
   3  -1   3  140.49    5.20
   3  -1   3  135.59    5.20
   3  -1   3  148.49    5.30
  -4   1  -3   19.60    1.40
  -4   1  -3   22.20    1.20
  -4   1  -3   19.70    1.30
  -4   1  -3   21.40    1.50
   4  -1   3   19.70    1.00
   4  -1   3   21.10    1.10
  -5   1  -3    3.60    0.70
  -5   1  -3    3.20    0.50
  -5   1  -3    4.40    0.70
  -5   1  -3    5.10    0.90
  -6   1  -3  142.59    5.80
  -6   1  -3  130.99    6.60
  -6   1  -3  153.18    6.00
  -6   1  -3  144.79    5.60
  -7   1  -3  204.48    9.10
  -7   1  -3  204.08    7.80
  -7   1  -3  196.18    8.30
  -7   1  -3  203.58    8.10
  -8   1  -3   20.40    2.80
  -8   1  -3   21.90    2.30
  -8   1  -3   26.60    1.90
  -8   1  -3   22.10    2.20
  -8   1  -3   20.40    2.70
  -9   1  -3    7.50    1.40
  -9   1  -3    7.50    2.10
  -9   1  -3   11.00    2.40
  -9   1  -3    9.40    1.80
 -10   1  -3   39.70    3.30
 -10   1  -3   38.10    2.90
 -10   1  -3   41.10    4.30
 -11   1  -3   11.50    2.30
 -11   1  -3   10.90    1.80
 -11   1  -3   13.80    2.70
 -12   1  -3    1.10    1.10
 -12   1  -3   -0.20    1.40
  12  -1   3    2.60    0.90
 -12   0   3    0.30    1.70
 -12   0   3    1.50    1.30
 -12   0   3    0.10    1.00
 -11   0   3   21.50    2.30
 -11   0   3   22.80    3.00
 -11   0   3   24.20    3.10
 -10   0   3   12.80    2.60
 -10   0   3   12.30    2.60
 -10   0   3   12.20    1.90
 -10   0   3    8.80    1.70
  -9   0   3    6.60    1.50
  -9   0   3    8.80    2.30
  -9   0   3   10.30    2.30
  -9   0   3    9.30    1.60
   8   0  -3   10.00    1.40
  -8   0   3    7.60    1.50
  -8   0   3   12.70    2.20
  -8   0   3    8.20    1.50
  -8   0   3    9.20    1.40
  -8   0   3   10.10    2.10
   7   0  -3    0.90    0.70
  -7   0   3   -0.70    0.70
  -7   0   3    0.70    0.80
  -7   0   3   -0.70    0.70
   6   0  -3   71.79    3.30
  -6   0   3   65.69    3.50
  -6   0   3   68.89    3.30
  -6   0   3   70.59    3.20
   5   0  -3    5.70    0.90
  -5   0   3    5.80    0.80
  -5   0   3    6.00    1.00
  -5   0   3    7.00    0.80
   4   0  -3  129.29    5.10
  -4   0   3  123.79    4.90
  -4   0   3  127.39    5.20
  -4   0   3  130.79    5.10
  -4   0   3  127.99    5.10
   3   0  -3   40.30    1.90
   3   0  -3   39.60    1.80
   3   0  -3   41.90    1.90
  -3   0   3   35.80    1.70
  -3   0   3   41.40    1.80
  -3   0   3   42.00    2.00
  -3   0   3   37.80    1.80
   2   0  -3  204.08    7.90
   2   0  -3  200.68    7.60
   2   0  -3  204.98    7.60
  -2   0   3  236.08    7.70
  -2   0   3  200.98    7.60
  -2   0   3  193.98    7.50
  -2   0   3  205.08    7.60
   1   0  -3    8.50    0.60
   1   0  -3    8.50    0.60
   1   0  -3    8.10    0.90
  -1   0   3    9.10    0.70
  -1   0   3    8.30    0.60
  -1   0   3    9.30    0.60
   0   0  -3   97.29    3.60
   0   0  -3   93.29    3.50
   0   0  -3   87.69    3.50
   0   0  -3   92.99    4.00
   0   0  -3   88.89    3.40
   0   0   3   98.29    3.40
   0   0   3   94.29    3.50
   0   0   3   88.49    3.50
  -1   0  -3  185.58    6.70
  -1   0  -3  181.68    6.60
  -1   0  -3  175.08    6.40
  -1   0  -3  177.88    6.40
  -1   0  -3  177.08    7.00
  -1   0  -3  170.08    6.40
  -2   0  -3  147.19    5.30
  -2   0  -3  138.39    5.20
  -2   0  -3  139.79    5.40
  -2   0  -3  147.89    5.60
  -2   0  -3  146.79    5.80
   2   0   3  142.39    5.30
  -3   0  -3   70.89    3.00
  -3   0  -3   75.69    2.80
  -3   0  -3   69.09    2.70
  -3   0  -3   71.59    3.20
  -3   0  -3   71.19    3.30
   3   0   3   69.59    2.80
  -4   0  -3   24.10    1.60
  -4   0  -3   22.80    1.40
  -4   0  -3   24.60    1.30
   4   0   3   24.60    1.10
   4   0   3   23.10    1.30
  -5   0  -3    4.30    0.80
  -5   0  -3    3.90    0.80
  -5   0  -3    4.40    0.70
   5   0   3    5.00    0.70
  -6   0  -3   13.60    1.30
  -6   0  -3   15.90    1.20
  -6   0  -3   13.60    1.40
  -7   0  -3    0.50    1.20
  -7   0  -3    2.10    0.70
  -7   0  -3    1.20    0.90
  -8   0  -3    3.80    1.60
  -8   0  -3    0.70    1.10
  -8   0  -3    1.70    1.60
  -8   0  -3   -0.10    0.80
  -9   0  -3    0.20    1.20
  -9   0  -3    1.30    1.60
  -9   0  -3   -0.90    0.90
  -9   0  -3   -2.40    1.60
 -10   0  -3    4.80    1.60
 -10   0  -3    4.50    1.30
 -10   0  -3    3.90    2.00
 -10   0  -3    5.80    2.30
 -11   0  -3    1.30    1.50
 -11   0  -3    1.00    1.30
 -11   0  -3    1.20    1.80
 -12   0  -3    3.10    1.60
 -12   0  -3    3.60    1.00
 -12   1   3    1.20    1.20
 -12   1   3    1.10    1.50
 -11   1   3   13.20    2.50
 -11   1   3   13.10    2.00
 -11   1   3   11.40    2.30
 -10   1   3    5.30    1.40
 -10   1   3    6.40    2.10
 -10   1   3    6.10    1.60
 -10   1   3    3.20    1.90
  -9   1   3   58.09    4.40
  -9   1   3   60.69    3.50
  -9   1   3   55.29    3.90
  -9   1   3   55.59    4.40
  -9   1   3   59.09    3.60
   8  -1  -3    1.80    0.70
  -8   1   3    1.70    0.90
  -8   1   3    3.10    1.10
  -8   1   3    1.30    1.40
  -8   1   3    2.10    1.00
  -8   1   3    1.50    1.40
   7  -1  -3   14.10    1.40
  -7   1   3   15.20    1.60
  -7   1   3   13.00    1.70
  -7   1   3   15.70    1.50
   6  -1  -3  257.07    9.90
  -6   1   3  243.08   10.10
  -6   1   3  263.67   10.00
  -6   1   3  261.37    9.80
   5  -1  -3  203.58    8.10
  -5   1   3  207.58    8.10
  -5   1   3  215.38    8.00
  -5   1   3  211.48    8.30
   4  -1  -3 2594.74   92.79
  -4   1   3 2495.35   92.89
  -4   1   3 2685.53   92.99
  -4   1   3 2645.44   92.79
   3  -1  -3  626.94   23.00
   3  -1  -3  635.34   23.00
   3  -1  -3  637.14   23.20
  -3   1   3  647.04   23.00
  -3   1   3  630.34   23.00
  -3   1   3  628.54   23.00
  -3   1   3  660.93   23.10
   2  -1  -3  240.68    8.80
   2  -1  -3  236.68    8.80
   2  -1  -3  230.18    9.10
  -2   1   3  241.98    8.70
  -2   1   3  237.38    8.80
  -2   1   3  243.48    8.80
  -2   1   3  238.58    8.80
   1  -1  -3   17.30    0.80
   1  -1  -3   16.40    1.20
   1  -1  -3   17.00    0.90
   1  -1  -3   16.70    0.80
  -1   1   3   15.30    0.90
  -1   1   3   16.40    0.80
  -1   1   3   15.30    0.80
  -1   1   3   15.70    0.80
   0  -1  -3   34.80    1.90
   0  -1  -3   36.10    1.60
   0  -1  -3   30.90    1.30
   0  -1  -3   30.90    1.40
   0  -1  -3   33.90    1.30
   0   1   3   31.30    1.40
  -1  -1  -3 2679.23   94.59
  -1  -1  -3 2590.94   94.39
  -1  -1  -3 2741.83   94.99
  -1  -1  -3 2618.84   94.39
  -2  -1  -3  111.09    4.60
  -2  -1  -3  115.39    4.50
  -2  -1  -3  118.69    4.50
  -2  -1  -3  116.69    4.90
  -3  -1  -3   24.30    1.70
  -3  -1  -3   24.10    1.30
  -3  -1  -3   23.90    1.10
  -3  -1  -3   22.70    1.00
   3   1   3   24.50    1.20
  -4  -1  -3   13.40    1.20
  -4  -1  -3   14.10    1.20
  -4  -1  -3   14.70    0.90
   4   1   3   13.60    1.00
  -5  -1  -3  177.08    6.90
  -5  -1  -3  184.28    7.20
   5   1   3  177.78    7.00
  -6  -1  -3   95.89    4.50
  -6  -1  -3   98.59    4.20
  -6  -1  -3   97.49    3.90
  -7  -1  -3    4.20    1.60
  -7  -1  -3    5.40    1.30
  -7  -1  -3    3.20    0.90
  -7  -1  -3    3.00    1.50
  -7  -1  -3    1.70    1.00
  -8  -1  -3   18.70    2.10
  -8  -1  -3   15.10    2.50
  -8  -1  -3   15.90    2.70
  -8  -1  -3   16.60    1.70
  -9  -1  -3    7.80    2.30
  -9  -1  -3    4.60    1.60
  -9  -1  -3    7.70    1.40
  -9  -1  -3    3.70    1.90
 -10  -1  -3   93.09    4.80
 -10  -1  -3   90.19    4.50
 -10  -1  -3   92.89    5.90
 -10  -1  -3   86.59    5.60
 -11  -1  -3   11.10    2.00
 -11  -1  -3    5.30    2.00
 -11  -1  -3    7.70    1.40
  13  -2  -3    9.80    1.10
 -13   2   3    5.60    1.10
 -12   2   3   10.80    2.10
 -12   2   3    6.60    1.60
 -11   2   3    3.10    1.90
 -11   2   3    1.30    1.40
 -10   2   3   -0.40    1.30
 -10   2   3    1.40    1.20
 -10   2   3    3.10    1.80
  -9   2   3    1.30    1.50
  -9   2   3    0.30    1.10
  -9   2   3   -0.40    1.10
   8  -2  -3    2.10    0.80
  -8   2   3    3.00    1.00
  -8   2   3    2.60    1.00
   7  -2  -3   29.80    2.00
  -7   2   3   29.10    2.00
  -7   2   3   30.90    1.90
  -7   2   3   28.20    2.20
   6  -2  -3   54.39    2.70
  -6   2   3   54.49    2.80
  -6   2   3   56.49    2.60
  -6   2   3   52.49    2.90
   5  -2  -3   17.60    1.20
  -5   2   3   17.70    1.20
  -5   2   3   16.20    1.60
  -5   2   3   13.20    1.30
  -5   2   3   19.00    1.30
   4  -2  -3   64.39    2.80
   4  -2  -3   61.69    2.70
  -4   2   3   64.39    2.70
  -4   2   3   64.69    2.90
  -4   2   3   61.89    2.70
  -4   2   3   60.19    2.80
  -4   2   3   63.39    2.90
   3  -2  -3   34.00    1.60
   3  -2  -3   33.50    1.90
   3  -2  -3   34.70    1.60
  -3   2   3   34.40    1.60
  -3   2   3   33.90    1.70
  -3   2   3   34.60    1.70
  -3   2   3   33.60    1.60
   2  -2  -3   83.79    3.40
   2  -2  -3   85.99    3.80
   2  -2  -3   85.19    3.40
  -2   2   3   83.69    3.50
  -2   2   3   93.89    3.40
  -2   2   3   86.59    3.30
  -2   2   3   81.79    3.40
   1  -2  -3    0.60    0.30
   1  -2  -3    1.20    0.50
   1  -2  -3    1.00    0.30
   1  -2  -3    1.00    0.30
  -1   2   3    1.40    0.20
  -1   2   3    0.90    0.30
  -1   2   3    0.90    0.30
   0  -2  -3   21.70    0.90
   0  -2  -3   22.60    0.90
   0  -2  -3   21.00    1.60
   0  -2  -3   22.40    1.10
   0   2   3   20.70    1.20
   0   2   3   21.60    1.00
  -1  -2  -3  108.49    4.60
  -1  -2  -3  127.59    4.80
  -1  -2  -3  127.39    4.70
  -1  -2  -3  124.79    5.30
  -2  -2  -3    1.10    0.40
  -2  -2  -3    0.60    0.40
  -2  -2  -3    0.30    0.40
  -2  -2  -3    0.00    0.20
  -3  -2  -3   11.90    0.70
  -3  -2  -3   12.00    1.00
  -3  -2  -3   12.50    1.10
   3   2   3   13.40    1.00
   3   2   3   13.20    1.30
  -4  -2  -3    0.40    0.50
  -4  -2  -3    0.50    0.30
   4   2   3    0.50    0.40
  -5  -2  -3   67.29    3.20
  -5  -2  -3   65.59    2.90
   5   2   3   65.19    3.20
  -6  -2  -3   25.30    1.80
  -6  -2  -3   26.70    2.80
  -6  -2  -3   25.90    2.10
  -7  -2  -3    1.80    1.40
  -7  -2  -3    2.10    0.90
  -7  -2  -3    2.60    1.20
  -7  -2  -3    3.50    1.60
  -8  -2  -3   -0.80    1.10
  -8  -2  -3    1.00    1.50
  -8  -2  -3    0.10    1.60
  -8  -2  -3   -0.40    0.90
  -9  -2  -3    7.00    2.10
  -9  -2  -3    5.40    2.20
  -9  -2  -3    9.70    1.80
  -9  -2  -3    6.10    1.30
 -10  -2  -3    4.30    1.90
 -10  -2  -3    2.00    1.80
 -10  -2  -3    3.20    1.40
 -11  -2  -3   32.00    2.80
 -11  -2  -3   31.10    3.10
  13  -3  -3    9.40    1.20
 -13   3   3    6.50    1.30
  12  -3  -3    2.50    1.10
 -12   3   3    2.30    1.40
 -11   3   3   32.70    3.00
 -11   3   3   33.70    3.80
 -10   3   3  111.59    6.30
 -10   3   3  102.49    5.40
  -9   3   3   40.10    3.00
  -9   3   3   43.10    3.80
  -9   3   3   42.40    2.90
   8  -3  -3    2.00    0.80
  -8   3   3    0.40    0.90
  -8   3   3    2.30    1.00
   7  -3  -3   67.89    3.10
  -7   3   3   57.39    3.10
  -7   3   3   55.39    3.00
   6  -3  -3   14.20    1.20
  -6   3   3   13.90    1.30
  -6   3   3    8.30    1.40
  -6   3   3   13.50    1.40
  -6   3   3   13.20    1.20
   5  -3  -3    5.50    0.80
  -5   3   3    7.30    1.00
  -5   3   3    5.60    1.10
  -5   3   3    5.70    0.80
   4  -3  -3    6.80    0.80
   4  -3  -3    6.40    0.80
  -4   3   3    6.50    1.00
  -4   3   3    9.30    1.00
  -4   3   3    5.70    0.70
  -4   3   3    5.80    0.70
  -4   3   3    6.20    0.70
   3  -3  -3    2.30    0.50
   3  -3  -3    1.10    0.40
  -3   3   3    0.80    0.40
  -3   3   3    1.60    0.50
  -3   3   3    1.10    0.30
  -3   3   3    0.80    0.40
  -3   3   3    0.60    0.40
   2  -3  -3  142.59    5.20
   2  -3  -3  141.39    5.90
   2  -3  -3  136.99    5.20
  -2   3   3  130.69    5.20
  -2   3   3  127.49    5.20
  -2   3   3  140.19    5.10
  -2   3   3  138.49    5.40
   1  -3  -3  453.55   17.40
   1  -3  -3  480.85   16.50
   1  -3  -3  447.56   16.60
   1  -3  -3  423.96   16.50
  -1   3   3  484.85   16.80
  -1   3   3  457.45   16.50
   0  -3  -3    2.50    0.50
   0  -3  -3    2.50    0.80
   0  -3  -3    2.60    0.30
   0  -3  -3    2.40    0.30
   0   3   3    3.60    0.60
   0   3   3    2.60    0.40
  -1  -3  -3  139.49    5.60
  -1  -3  -3  150.78    6.50
  -1  -3  -3  147.09    5.70
   1   3   3  146.79    6.40
   1   3   3  151.68    5.80
  -2  -3  -3  114.09    4.70
  -2  -3  -3  108.39    4.40
   2   3   3  111.29    4.50
   2   3   3  113.09    5.20
  -3  -3  -3   54.69    2.60
   3   3   3   56.59    2.60
   3   3   3   54.99    3.20
   3   3   3   60.39    2.70
  -4  -3  -3  477.95   17.90
  -4  -3  -3  474.65   17.60
   4   3   3  507.85   18.10
  -5  -3  -3  172.08    6.70
   5   3   3  175.78    7.10
  -6  -3  -3    3.70    1.50
  -6  -3  -3    3.20    1.50
  -7  -3  -3    0.90    0.90
  -7  -3  -3    1.20    1.50
  -7  -3  -3    0.00    1.40
  -8  -3  -3   28.20    2.30
  -8  -3  -3   31.30    3.60
  -8  -3  -3   30.10    3.70
  -9  -3  -3   37.70    3.90
  -9  -3  -3   32.70    2.60
  -9  -3  -3   34.60    3.60
 -10  -3  -3   14.90    2.50
 -10  -3  -3   14.60    2.30
  13  -4  -3    4.90    1.00
 -13   4   3    6.10    1.30
  12  -4  -3   40.10    2.70
 -12   4   3   40.70    3.00
  11  -4  -3   18.80    2.10
 -11   4   3   15.40    2.10
 -10   4   3    8.80    1.60
 -10   4   3    5.70    2.10
  -9   4   3    1.80    1.10
  -9   4   3    0.70    1.50
   8  -4  -3    0.60    0.60
  -8   4   3    0.60    0.80
   7  -4  -3    0.90    0.60
  -7   4   3    1.30    1.20
  -7   4   3    0.50    0.70
   6  -4  -3    2.80    0.70
  -6   4   3    3.60    1.30
  -6   4   3    3.00    0.70
   5  -4  -3  117.19    4.90
  -5   4   3  121.79    4.90
  -5   4   3  116.09    5.40
   4  -4  -3    6.50    0.80
   4  -4  -3    7.10    0.80
  -4   4   3    5.60    0.70
  -4   4   3    7.20    1.00
  -4   4   3    7.30    0.70
  -4   4   3    6.30    1.10
   3  -4  -3    2.80    0.50
   3  -4  -3    2.30    0.50
  -3   4   3    3.20    0.50
  -3   4   3    1.70    0.70
  -3   4   3    2.60    0.50
  -3   4   3    2.30    0.60
   2  -4  -3    0.40    0.40
   2  -4  -3    0.30    0.30
  -2   4   3    0.50    0.40
  -2   4   3    0.40    0.60
  -2   4   3    0.40    0.30
  -2   4   3    0.80    0.30
   1  -4  -3  361.46   13.10
   1  -4  -3  357.16   13.30
  -1   4   3  364.26   13.40
  -1   4   3  354.86   13.10
  -1   4   3  365.96   14.20
   0  -4  -3    3.90    0.40
   0  -4  -3    4.70    0.60
   0  -4  -3    3.60    0.40
   0   4   3    2.90    0.90
   0   4   3    3.10    0.60
   0   4   3    3.90    0.40
  -1  -4  -3   56.59    2.30
  -1  -4  -3   60.59    2.30
  -1  -4  -3   61.69    2.80
   1   4   3   57.49    3.40
   1   4   3   56.29    2.40
   1   4   3   57.19    2.60
  -2  -4  -3   16.20    0.90
  -2  -4  -3   15.80    1.40
   2   4   3   16.60    1.20
   2   4   3   17.00    1.80
  -3  -4  -3   11.70    0.90
   3   4   3   13.40    1.20
  -4  -4  -3  117.39    4.70
   4   4   3  123.89    5.20
  -5  -4  -3   36.30    2.90
   5   4   3   32.40    2.30
  -6  -4  -3   11.90    2.20
  -6  -4  -3   11.60    2.10
  -7  -4  -3    3.00    1.70
  -7  -4  -3    1.00    1.10
  -7  -4  -3    3.40    1.80
  -8  -4  -3   46.50    2.90
  -8  -4  -3   53.79    4.50
  -8  -4  -3   47.10    4.20
  -9  -4  -3   10.00    2.30
  -9  -4  -3    9.90    2.10
 -10  -4  -3   11.10    2.00
 -10  -4  -3   13.40    1.90
  13  -5  -3    5.10    1.10
 -13   5   3    6.10    1.20
  12  -5  -3    4.30    1.20
 -12   5   3    5.20    1.50
  11  -5  -3   20.80    2.20
 -11   5   3   18.90    2.20
  10  -5  -3  138.69    6.30
 -10   5   3  134.49    6.30
   9  -5  -3   10.00    1.50
  -9   5   3   10.00    1.60
   8  -5  -3   12.30    1.40
  -8   5   3   14.40    1.70
  -8   5   3    9.60    1.80
   7  -5  -3  211.08    8.70
  -7   5   3  224.88    9.60
  -7   5   3  221.18    8.70
   6  -5  -3  132.49    5.50
  -6   5   3  125.69    6.30
  -6   5   3  133.19    5.50
   5  -5  -3   23.10    1.50
  -5   5   3   22.90    1.50
  -5   5   3   24.90    2.20
   4  -5  -3   16.40    1.20
   4  -5  -3   14.40    1.10
   4  -5  -3   14.00    1.00
  -4   5   3   13.90    1.60
  -4   5   3   13.80    1.00
  -4   5   3   14.20    1.10
  -4   5   3   14.30    1.40
   3  -5  -3   33.30    1.80
   3  -5  -3   33.30    1.70
   3  -5  -3   32.50    1.50
  -3   5   3   36.00    1.70
  -3   5   3   36.70    2.00
  -3   5   3   33.60    2.50
  -3   5   3   34.00    1.60
   2  -5  -3   73.89    3.10
   2  -5  -3   68.79    2.90
   2  -5  -3   66.39    2.70
  -2   5   3   71.89    3.20
  -2   5   3   68.59    3.90
  -2   5   3   62.89    2.70
  -2   5   3   70.99    2.80
   1  -5  -3  274.87   10.30
   1  -5  -3  269.67   10.00
  -1   5   3  274.07   11.30
  -1   5   3  267.87   10.30
   0  -5  -3    1.60    0.60
   0  -5  -3    1.60    0.40
   0   5   3    0.90    0.50
   0   5   3    1.30    0.80
  -1  -5  -3  330.37   12.30
  -1  -5  -3  327.97   11.70
   1   5   3  319.57   13.20
   1   5   3  308.37   12.00
  -2  -5  -3    2.00    0.40
  -2  -5  -3    1.40    0.80
   2   5   3    1.40    0.90
  -3  -5  -3    8.50    1.00
   3   5   3   12.60    1.40
  -4  -5  -3   25.00    1.60
  -4  -5  -3   27.50    2.60
   4   5   3   29.70    2.10
  -5  -5  -3    0.50    1.30
  -5  -5  -3   -0.50    1.30
   5   5   3   -0.90    0.70
  -6  -5  -3    6.20    2.00
  -6  -5  -3    7.20    2.20
  -7  -5  -3    0.80    1.50
  -7  -5  -3   -1.20    1.60
  -7  -5  -3    1.90    1.20
  -8  -5  -3    1.40    1.70
  -8  -5  -3    0.30    1.50
  -9  -5  -3    1.20    1.40
  -9  -5  -3    2.30    1.40
  13  -6  -3   -0.20    0.70
 -13   6   3   -0.50    0.80
  12  -6  -3   -0.10    0.80
 -12   6   3    2.20    1.20
  11  -6  -3   33.00    2.70
 -11   6   3   32.60    2.70
  10  -6  -3   30.40    2.50
 -10   6   3   28.10    2.60
   9  -6  -3   31.00    2.40
  -9   6   3   34.70    3.60
   8  -6  -3    4.50    1.10
   8  -6  -3    5.70    1.00
  -8   6   3    4.50    1.10
  -8   6   3    5.80    1.60
   7  -6  -3    1.40    0.70
  -7   6   3    5.40    1.80
  -7   6   3    2.20    0.80
   6  -6  -3  429.06   15.80
  -6   6   3  421.16   15.70
  -6   6   3  408.06   16.70
   5  -6  -3  238.58    9.20
   5  -6  -3  224.58    8.90
  -5   6   3  234.28   10.30
  -5   6   3  246.58    9.10
  -5   6   3  248.48    9.90
   4  -6  -3    0.40    0.40
   4  -6  -3    1.00    0.50
   4  -6  -3    1.60    0.60
  -4   6   3    1.10    0.40
  -4   6   3    0.40    0.70
  -4   6   3    0.50    0.40
  -4   6   3    0.50    0.80
   3  -6  -3   13.00    1.20
   3  -6  -3   12.30    1.10
   3  -6  -3   12.90    0.90
  -3   6   3   13.60    1.90
  -3   6   3   12.90    1.00
  -3   6   3   13.90    1.30
   2  -6  -3  178.38    6.80
   2  -6  -3  175.58    6.60
   2  -6  -3  182.68    7.10
  -2   6   3  176.88    7.20
  -2   6   3  178.68    8.20
  -2   6   3  173.88    6.70
   1  -6  -3    2.20    0.50
   1  -6  -3    2.10    0.70
   1  -6  -3    2.60    0.40
  -1   6   3    3.30    1.20
  -1   6   3    2.80    0.70
   0  -6  -3  266.07    9.60
   0  -6  -3  260.57   10.10
   0   6   3  254.97   11.30
   0   6   3  252.47   10.00
  -1  -6  -3   17.50    1.10
  -1  -6  -3   15.50    1.60
   1   6   3   18.50    2.30
  -2  -6  -3   15.50    1.20
  -2  -6  -3   19.70    1.90
   2   6   3   15.50    2.30
  -3  -6  -3   74.89    4.00
   3   6   3   93.69    4.20
  -4  -6  -3  147.89    7.20
   4   6   3  140.09    6.40
  -5  -6  -3   33.50    3.30
  -5  -6  -3   32.30    3.60
  -6  -6  -3   42.50    3.80
  -6  -6  -3   41.20    3.90
  -7  -6  -3    6.70    2.10
  -7  -6  -3    5.70    1.80
  -7  -6  -3    7.50    2.00
  -8  -6  -3    3.90    1.70
  -8  -6  -3    2.90    1.60
  -9  -6  -3    4.30    1.70
  13  -7  -3    3.70    0.90
  12  -7  -3    9.00    1.40
  11  -7  -3   41.00    2.90
  10  -7  -3    3.10    1.20
 -10   7   3    2.00    1.70
   9  -7  -3   22.80    2.10
  -9   7   3   21.60    2.90
   8  -7  -3   40.50    2.60
   8  -7  -3   37.20    2.60
  -8   7   3   34.90    3.50
  -8   7   3   37.20    2.50
   7  -7  -3   66.89    3.40
  -7   7   3   64.29    3.30
  -7   7   3   67.19    4.60
   6  -7  -3   46.70    2.60
  -6   7   3   46.90    3.80
   5  -7  -3   19.40    1.60
   5  -7  -3   21.40    1.40
  -5   7   3   17.40    2.50
  -5   7   3   20.80    2.20
   4  -7  -3    1.00    0.50
   4  -7  -3   -0.20    0.40
   4  -7  -3    1.20    0.60
  -4   7   3   -0.50    0.90
  -4   7   3   -0.50    0.60
  -4   7   3    0.10    0.40
   3  -7  -3   36.30    1.80
   3  -7  -3   37.40    2.20
   3  -7  -3   38.50    2.10
  -3   7   3   40.80    2.50
  -3   7   3   37.50    2.00
  -3   7   3   35.70    3.20
   2  -7  -3    8.20    1.10
   2  -7  -3    7.30    0.70
   2  -7  -3    8.70    1.00
  -2   7   3    6.80    0.80
  -2   7   3    7.20    1.00
   1  -7  -3   23.30    1.30
   1  -7  -3   26.40    1.60
   1  -7  -3   25.50    1.90
  -1   7   3   27.30    2.80
  -1   7   3   25.50    1.80
   0  -7  -3    1.00    0.70
   0  -7  -3   -0.10    0.30
   0  -7  -3    0.50    0.50
   0   7   3    0.50    1.00
  -1  -7  -3   53.49    3.10
  -1  -7  -3   48.70    2.40
   1   7   3   46.80    4.00
  -2  -7  -3   11.00    1.60
  -3  -7  -3    3.20    1.50
   3   7   3    5.00    1.10
  -4  -7  -3   14.80    2.50
  -5  -7  -3   18.70    2.90
  -6  -7  -3    1.90    1.30
  -6  -7  -3    0.60    1.60
  -7  -7  -3   -0.60    1.30
  -8  -7  -3    1.00    1.20
  13  -8  -3    0.70    0.70
  12  -8  -3   46.40    2.80
  11  -8  -3   13.20    1.80
 -11   8   3   13.40    2.40
  10  -8  -3   11.00    1.60
 -10   8   3    2.40    2.00
   9  -8  -3   16.90    2.00
  -9   8   3   16.20    2.80
   8  -8  -3   12.40    1.60
  -8   8   3   12.40    2.40
   7  -8  -3    8.30    1.30
   7  -8  -3    8.10    1.70
   7  -8  -3    7.70    1.20
  -7   8   3    4.20    1.80
   6  -8  -3   91.79    4.30
  -6   8   3   82.79    5.30
   5  -8  -3   33.30    1.90
   5  -8  -3   37.20    2.30
  -5   8   3   34.90    3.00
  -5   8   3   30.90    3.70
   4  -8  -3    1.40    0.60
   4  -8  -3    1.20    0.70
   4  -8  -3    1.60    0.60
  -4   8   3    1.50    0.60
  -4   8   3    0.30    1.10
  -4   8   3    1.00    0.90
   3  -8  -3   40.90    2.40
   3  -8  -3   39.30    2.00
   3  -8  -3   34.30    2.10
  -3   8   3   34.90    3.50
  -3   8   3   37.60    2.60
  -3   8   3   35.30    2.00
   2  -8  -3   90.09    3.60
   2  -8  -3   85.09    4.20
   2  -8  -3   89.49    3.90
  -2   8   3   81.89    3.70
  -2   8   3   82.49    5.50
  -2   8   3   81.89    4.20
   1  -8  -3   72.09    3.00
   1  -8  -3   71.89    3.70
   1  -8  -3   68.19    3.30
  -1   8   3   72.99    5.20
   0  -8  -3  118.09    5.80
   0  -8  -3  130.49    4.90
  -1  -8  -3  124.19    4.80
  -1  -8  -3  128.29    6.30
  -1  -8  -3  110.89   10.50
  -1  -8  -3  128.79    6.00
  -2  -8  -3   20.40    1.50
  -2  -8  -3   19.80    2.50
  -3  -8  -3  115.99    6.30
  -3  -8  -3  111.49    4.60
  -4  -8  -3   30.30    2.10
  -4  -8  -3   34.30    3.60
  -5  -8  -3    7.20    1.40
  -5  -8  -3    7.20    2.10
  -6  -8  -3    2.20    1.60
  -7  -8  -3   20.60    2.30
  13  -9  -3    9.20    1.20
  12  -9  -3    1.40    0.90
 -12   9   3    1.20    1.30
  11  -9  -3   12.10    1.70
 -11   9   3   14.30    2.40
  10  -9  -3    1.70    1.00
 -10   9   3   -3.40    1.70
   9  -9  -3    0.70    0.90
  -9   9   3    0.00    1.90
   8  -9  -3   37.30    2.70
   8  -9  -3   34.00    2.30
  -8   9   3   40.80    4.10
   7  -9  -3    0.00    0.60
   7  -9  -3    0.80    1.00
   7  -9  -3    0.00    0.80
  -7   9   3    2.90    1.80
   6  -9  -3    2.50    1.00
   6  -9  -3    0.70    1.00
   6  -9  -3    0.90    0.70
  -6   9   3   -0.20    1.60
   5  -9  -3    3.10    1.00
   5  -9  -3    3.30    0.80
  -5   9   3    1.10    1.60
   4  -9  -3   29.00    1.90
   4  -9  -3   25.30    2.00
   4  -9  -3   28.70    2.20
  -4   9   3   25.10    3.00
   3  -9  -3    0.90    0.80
   3  -9  -3    1.80    0.70
   2  -9  -3   -0.80    0.60
   2  -9  -3   -0.40    0.70
   1  -9  -3    0.60    0.90
   1  -9  -3   -0.50    1.70
   1  -9  -3    0.50    0.60
   1  -9  -3    1.40    1.10
   0  -9  -3   46.30    3.60
   0  -9  -3   48.60    2.40
   0  -9  -3   45.70    3.20
   0  -9  -3   49.40    6.00
  -1  -9  -3    1.20    1.50
  -1  -9  -3   -1.40    2.20
  -1  -9  -3    0.70    0.80
  -2  -9  -3    5.20    1.10
  -2  -9  -3    5.10    1.80
  -3  -9  -3   -1.20    0.90
  -3  -9  -3    1.90    1.70
  -4  -9  -3    6.40    2.00
  -4  -9  -3    6.10    1.30
  -5  -9  -3    3.20    1.60
  -6  -9  -3    0.40    1.20
  13 -10  -3    5.90    1.00
  12 -10  -3   22.10    2.00
 -12  10   3   19.50    2.40
  11 -10  -3   53.59    3.10
 -11  10   3   43.70    3.80
  10 -10  -3    4.10    1.20
 -10  10   3    0.00    1.90
   9 -10  -3   41.00    2.90
  -9  10   3   39.70    4.50
   8 -10  -3   63.99    3.80
   8 -10  -3   61.29    3.30
  -8  10   3   62.99    4.90
   7 -10  -3  172.38    7.60
   7 -10  -3  169.28    7.30
  -7  10   3  173.58    8.50
   6 -10  -3    2.10    1.10
   6 -10  -3    3.40    1.10
  -6  10   3    0.70    1.70
   5 -10  -3   19.30    1.70
   5 -10  -3   16.40    1.90
   5 -10  -3   18.00    2.90
   5 -10  -3   16.20    2.00
  -5  10   3   15.70    2.50
   4 -10  -3    5.90    1.30
   4 -10  -3    5.40    1.40
   4 -10  -3    7.30    3.60
   4 -10  -3    8.80    1.20
  -4  10   3   -0.80    1.60
   3 -10  -3    4.40    1.00
   3 -10  -3    4.00    1.30
   3 -10  -3    3.50    2.70
   3 -10  -3    4.80    1.30
   2 -10  -3   34.10    3.10
   2 -10  -3   40.40    6.10
   2 -10  -3   42.80    2.40
   1 -10  -3    0.70    2.30
   1 -10  -3    1.40    1.30
   1 -10  -3    1.00    0.90
   0 -10  -3    5.20    1.70
   0 -10  -3    1.40    2.70
   0 -10  -3    2.50    0.90
  -1 -10  -3   65.49    4.60
  -1 -10  -3   65.69    3.30
  -1 -10  -3   67.39    8.10
  -2 -10  -3   50.49    4.20
  -2 -10  -3   47.40    2.80
  -3 -10  -3   12.50    2.40
  -4 -10  -3    6.80    1.90
  -5 -10  -3    5.90    1.60
  12 -11  -3    2.20    0.90
 -12  11   3    1.10    1.10
  11 -11  -3    0.70    1.00
 -11  11   3   -1.30    1.20
  10 -11  -3    4.20    1.30
 -10  11   3   -2.50    1.40
   9 -11  -3   20.60    2.30
  -9  11   3   18.80    3.10
   8 -11  -3    1.20    1.10
   8 -11  -3    1.60    1.00
  -8  11   3    4.00    2.10
   7 -11  -3   10.00    1.70
   7 -11  -3   10.80    1.70
  -7  11   3   12.10    2.40
   6 -11  -3    1.00    1.20
   6 -11  -3    2.60    1.20
  -6  11   3    4.30    1.80
   5 -11  -3    2.20    1.30
   5 -11  -3    1.50    1.20
   5 -11  -3   -5.10    3.40
   5 -11  -3    0.80    0.90
  -5  11   3    2.10    1.70
   4 -11  -3    4.20    1.00
   4 -11  -3    4.40    1.40
   4 -11  -3    1.10    3.40
   3 -11  -3   13.30    4.10
   3 -11  -3   18.60    2.30
   3 -11  -3   16.60    1.60
   2 -11  -3    2.80    1.10
   2 -11  -3    5.00    3.30
   2 -11  -3    3.40    1.50
   1 -11  -3    2.10    3.00
   1 -11  -3    0.10    1.00
   1 -11  -3   -1.30    1.20
   0 -11  -3    2.30    3.20
   0 -11  -3    1.80    1.60
   0 -11  -3    0.30    1.10
  -1 -11  -3    2.90    1.60
  -1 -11  -3    3.00    3.60
  -1 -11  -3    1.90    1.20
  -2 -11  -3    1.20    1.50
  -3 -11  -3   17.70    2.40
  -4 -11  -3    0.60    1.20
  12 -12  -3   36.90    2.20
  11 -12  -3    0.20    0.90
 -11  12   3    0.40    1.10
  10 -12  -3   21.40    2.10
 -10  12   3   14.10    2.40
   9 -12  -3   24.50    2.40
  -9  12   3   19.50    2.80
   8 -12  -3   11.20    1.80
   8 -12  -3   10.90    1.40
  -8  12   3   12.10    2.40
   7 -12  -3   58.59    3.70
   7 -12  -3   59.39    3.80
  -7  12   3   64.49    4.70
   6 -12  -3   11.70    4.70
   6 -12  -3   19.20    2.20
   6 -12  -3   19.30    2.40
   5 -12  -3   43.80    2.80
   5 -12  -3   42.70    8.90
   5 -12  -3   46.20    3.40
   5 -12  -3   45.70    3.40
   4 -12  -3   40.30    8.30
   4 -12  -3   32.20    2.60
   4 -12  -3   29.10    3.00
   4 -12  -3   34.60    3.00
   3 -12  -3   39.20    3.40
   3 -12  -3   44.80    8.10
   3 -12  -3   40.30    2.90
   2 -12  -3    5.50    3.60
   2 -12  -3    4.80    1.70
   2 -12  -3    3.80    1.30
   1 -12  -3    0.20    1.20
   1 -12  -3    2.10    1.60
   1 -12  -3    2.50    3.60
   0 -12  -3    8.20    4.10
   0 -12  -3    5.70    1.80
   0 -12  -3    4.20    1.30
  -1 -12  -3    0.00    1.40
  -1 -12  -3    5.90    3.90
  -2 -12  -3    4.30    1.50
  -3 -12  -3    0.00    1.10
  11 -13  -3    7.30    1.20
 -11  13   3    5.80    1.40
  10 -13  -3   -1.30    0.80
 -10  13   3   -0.90    1.10
   9 -13  -3    2.80    1.10
  -9  13   3    0.90    1.50
   8 -13  -3    4.00    1.00
   8 -13  -3    5.60    1.40
  -8  13   3    5.10    1.80
   7 -13  -3   41.00    2.90
   7 -13  -3   38.60    3.00
   6 -13  -3   20.90    4.70
   6 -13  -3   26.50    2.70
   6 -13  -3   30.00    2.90
   5 -13  -3   -3.70    3.20
   5 -13  -3   -0.10    1.20
   5 -13  -3    1.70    1.50
   4 -13  -3    1.80    1.60
   4 -13  -3    0.80    3.70
   4 -13  -3    1.00    1.30
   4 -13  -3   -0.20    1.10
   3 -13  -3   54.89    8.70
   3 -13  -3   45.00    3.40
   3 -13  -3   42.70    3.60
   2 -13  -3   53.39    8.50
   2 -13  -3   41.90    3.50
   1 -13  -3   15.80    4.70
   1 -13  -3   13.10    2.10
   0 -13  -3   -0.60    1.20
   0 -13  -3    5.30    3.80
  -1 -13  -3    0.20    1.10
  10 -14  -3    2.50    0.90
   9 -14  -3    2.50    1.00
  -9  14   3    3.30    1.10
   8 -14  -3   18.20    2.00
   7 -14  -3    3.50    1.10
   7 -14  -3    5.80    1.40
   6 -14  -3    2.20    1.20
   6 -14  -3   -1.80    2.60
   6 -14  -3    1.90    1.40
   5 -14  -3    5.30    1.70
   5 -14  -3    6.10    1.50
   5 -14  -3    2.20    3.40
   4 -14  -3   16.00    2.10
   4 -14  -3   13.60    4.40
   4 -14  -3   15.40    2.10
   3 -14  -3    7.70    1.70
   3 -14  -3    9.90    1.90
   3 -14  -3    9.30    4.20
   2 -14  -3    3.90    1.80
   2 -14  -3    2.20    1.30
   2 -14  -3    8.20    3.90
   1 -14  -3    0.80    1.00
   1 -14  -3    4.10    3.30
   0 -14  -3    2.80    1.10
   8 -15  -3   10.30    1.30
   7 -15  -3    0.30    0.80
   7 -15  -3    1.90    0.90
   6 -15  -3    3.60    2.40
   6 -15  -3    3.90    1.10
   6 -15  -3    3.30    1.30
   5 -15  -3    2.00    1.40
   5 -15  -3    1.30    2.70
   5 -15  -3    0.20    1.00
   4 -15  -3   14.10    1.90
   4 -15  -3   11.40    3.50
   4 -15  -3   13.10    1.70
   3 -15  -3   14.60    3.70
   3 -15  -3   14.30    1.90
   3 -15  -3   16.00    1.80
  -1  15  -4    5.10    2.60
   1 -15   4    0.50    1.30
   1 -15   4   -0.20    0.80
  -2  15  -4   -2.70    3.10
   2 -15   4    1.60    0.90
   2 -15   4    3.10    1.40
  -3  15  -4   -0.50    4.20
   3 -15   4    1.90    1.30
   3 -15   4    1.50    1.00
  -4  15  -4    1.70    5.10
   4 -15   4    2.80    1.10
   4 -15   4    2.40    0.90
  -5  15  -4   -7.60    5.10
   5 -15   4    1.30    1.00
  -6  15  -4  -12.20    4.30
   6 -15   4   -0.10    0.90
   7 -15   4    5.30    1.20
   8 -15   4    0.60    0.80
   9 -15   4    0.10    0.70
  -1 -14   4    3.00    1.00
  -1 -14   4    2.00    1.50
   0  14  -4   43.40    5.00
   0 -14   4   36.30    3.40
   0 -14   4   39.80    2.70
  -1  14  -4   33.90    7.00
   1 -14   4   35.80    2.70
   1 -14   4   31.60    3.20
  -2  14  -4   12.50    5.40
   2 -14   4    3.50    1.40
   2 -14   4    4.40    1.50
  -3  14  -4   14.10    6.30
   3 -14   4    1.00    1.10
   3 -14   4    0.40    1.10
  -4  14  -4   29.10    7.80
   4 -14   4    4.50    1.10
   4 -14   4    8.00    1.50
  -5  14  -4   47.40    8.90
   5 -14   4   26.50    2.50
   5 -14   4   25.70    2.00
  -6  14  -4   45.10    7.80
   6 -14   4   32.20    2.70
   7 -14   4    1.10    1.00
   8 -14   4    3.70    1.20
   9 -14   4   18.50    1.80
  10 -14   4    5.50    1.00
  -2 -13   4    0.40    1.70
  -2 -13   4    2.60    1.20
   1  13  -4    7.40    2.60
  -1 -13   4    2.00    1.80
  -1 -13   4    0.00    1.10
   0  13  -4    3.50    4.20
   0 -13   4    7.50    2.00
  -1  13  -4    8.30    5.80
   1 -13   4    2.90    1.70
   1 -13   4    4.60    1.40
  -2  13  -4   19.00    6.70
   2 -13   4    4.40    1.50
   2 -13   4    3.70    1.50
   3 -13   4    2.60    1.30
   3 -13   4    0.30    1.20
   4 -13   4    0.40    1.10
   4 -13   4   -1.10    1.10
  -5  13  -4   34.90    9.00
   5 -13   4    8.90    1.70
   5 -13   4    8.30    1.40
  -6  13  -4   73.09   10.60
   6 -13   4   52.39    3.40
   6 -13   4   50.69    2.80
   7 -13   4    6.30    1.40
   8 -13   4   11.30    1.70
  -9  13  -4    9.90    1.90
   9 -13   4    9.20    1.50
 -10  13  -4   10.20    1.80
  10 -13   4   12.80    1.50
 -11  13  -4   17.00    2.10
  11 -13   4   13.40    1.50
  -4 -12   4    0.80    0.90
  -4 -12   4   -2.50    1.30
  -3 -12   4   16.60    2.30
  -3 -12   4   16.70    2.10
  -2 -12   4   18.70    2.20
  -2 -12   4   16.20    2.40
   1  12  -4   19.00    4.90
  -1 -12   4   27.20    2.80
  -1 -12   4   30.00    3.40
   0  12  -4   51.09    8.20
   0 -12   4   63.29    4.20
   0 -12   4   71.29    4.30
   0 -12   4   59.89    3.50
  -1  12  -4   13.20    6.60
   1 -12   4   20.30    2.10
   1 -12   4   20.90    2.40
   1 -12   4   26.10    2.80
   2 -12   4    7.70    3.60
   2 -12   4   13.80    1.90
   2 -12   4   15.60    2.10
   3 -12   4    0.80    1.10
   3 -12   4   -1.50    2.50
   3 -12   4    0.40    1.10
   4 -12   4    0.90    1.10
   4 -12   4    0.90    1.10
  -5  12  -4  100.19   14.30
   5 -12   4   91.39    4.50
   5 -12   4   94.59    4.90
  -6  12  -4   17.30    8.00
   6 -12   4   14.10    1.50
   6 -12   4   13.90    1.80
   7 -12   4    3.50    1.20
  -8  12  -4    5.00    2.60
   8 -12   4    3.40    1.20
  -9  12  -4   65.59    4.50
   9 -12   4   64.59    3.70
 -10  12  -4   18.40    2.50
  10 -12   4   20.60    2.00
 -11  12  -4    4.60    1.50
  11 -12   4    3.60    1.00
  12 -12   4    3.90    1.20
  -5 -11   4   -3.40    1.20
  -5 -11   4    0.20    0.90
  -4 -11   4    9.90    1.80
  -4 -11   4    9.80    1.70
  -4 -11   4    5.40    1.90
  -3 -11   4    0.30    1.20
  -3 -11   4    0.00    1.30
  -2 -11   4    0.90    1.40
  -2 -11   4   -0.40    1.40
  -2 -11   4    4.10    1.40
  -1 -11   4    2.50    1.20
  -1 -11   4    1.50    1.40
   0 -11   4    0.90    1.00
   0 -11   4   -0.60    1.40
   0 -11   4    0.60    1.30
   1 -11   4   17.20    4.20
   1 -11   4   19.70    2.30
   1 -11   4   21.90    2.50
   1 -11   4   19.80    1.80
   2 -11   4   40.60    2.70
   2 -11   4   39.80    6.50
   2 -11   4   44.50    3.10
   2 -11   4   44.10    3.10
   3 -11   4   -0.90    2.30
   3 -11   4   -0.60    1.00
   3 -11   4   -0.10    1.00
   4 -11   4   13.90    1.80
   4 -11   4   15.20    1.80
   4 -11   4   17.30    4.00
   5 -11   4   76.79    3.90
   5 -11   4   74.59    4.10
   6 -11   4   13.80    1.50
   6 -11   4   10.30    1.60
  -7  11  -4    4.60    1.60
   7 -11   4    1.70    1.00
  -8  11  -4    2.60    1.80
   8 -11   4    3.90    1.20
  -9  11  -4    5.70    1.90
   9 -11   4    6.50    1.40
 -10  11  -4   24.20    3.10
  10 -11   4   22.70    2.20
 -11  11  -4    0.90    1.40
  11 -11   4    1.00    0.90
 -12  11  -4   21.60    2.30
  12 -11   4   21.20    1.70
  -6 -10   4   10.60    1.50
  -6 -10   4    7.30    1.50
  -5 -10   4    1.10    1.30
  -5 -10   4    1.50    1.30
  -4 -10   4    2.20    1.50
  -4 -10   4    3.40    1.60
  -3 -10   4    4.00    1.70
  -3 -10   4    5.60    1.80
  -3 -10   4    5.20    1.50
  -2 -10   4    2.20    1.20
  -2 -10   4   -0.10    1.30
  -2 -10   4    0.70    1.30
  -1 -10   4   17.70    2.40
  -1 -10   4   14.40    2.20
  -1 -10   4   16.90    1.70
   0 -10   4   22.50    2.80
   0 -10   4   20.30    4.30
   0 -10   4   22.10    2.50
   0 -10   4   26.50    2.10
   1 -10   4   20.30    1.90
   1 -10   4   15.00    3.70
   1 -10   4   19.30    2.20
   1 -10   4   19.10    2.30
   2 -10   4   61.79    3.60
   2 -10   4   64.19    3.20
   2 -10   4   64.39    3.70
   2 -10   4   58.59    6.70
   3 -10   4   -0.10    0.80
   3 -10   4   -0.20    2.30
   3 -10   4    0.60    1.10
   4 -10   4  125.69    5.70
   4 -10   4  121.69    5.60
   4 -10   4  129.79    9.60
   5 -10   4    5.20    1.10
   5 -10   4    4.50    1.10
   6 -10   4   -0.70    0.70
   6 -10   4    0.10    0.60
  -7  10  -4    7.50    1.70
   7 -10   4    4.10    1.10
  -8  10  -4    0.90    1.50
   8 -10   4    1.50    1.00
  -9  10  -4    6.90    2.10
   9 -10   4    6.50    1.30
 -10  10  -4   -0.90    1.50
  10 -10   4    0.00    0.80
 -11  10  -4    0.30    1.50
  11 -10   4   -0.60    0.80
 -12  10  -4    4.50    1.60
  12 -10   4    4.20    1.00
  -7  -9   4   14.50    1.70
  -7  -9   4    9.80    1.40
  -6  -9   4    0.80    1.40
  -6  -9   4   -0.10    1.20
  -5  -9   4   13.30    2.40
  -5  -9   4   14.70    2.30
  -4  -9   4    3.50    1.80
  -4  -9   4    2.20    1.60
  -4  -9   4    6.30    1.50
  -3  -9   4    7.10    1.40
  -3  -9   4    9.00    1.90
  -3  -9   4    7.00    1.90
  -2  -9   4    9.30    1.80
  -2  -9   4   10.30    2.10
  -2  -9   4    9.10    1.30
   1   9  -4  105.89    5.40
  -1  -9   4  121.39    6.10
  -1  -9   4  123.59    9.10
  -1  -9   4  119.09    6.00
  -1  -9   4  122.99    5.10
   0   9  -4    4.50    1.10
   0  -9   4    5.40    1.00
   0  -9   4    6.30    1.60
   0  -9   4    5.20    2.90
   0  -9   4    7.10    1.50
  -1   9  -4   42.40    2.60
   1  -9   4   44.80    2.40
   1  -9   4   41.10    2.70
   1  -9   4   35.10    2.90
   2  -9   4   76.59    3.60
   3  -9   4    5.90    1.00
  -4   9  -4   58.89    3.40
  -5   9  -4  191.68    8.00
  -6   9  -4  134.99    6.20
   6  -9   4  120.19    5.70
  -7   9  -4   50.59    3.70
   7  -9   4   47.00    2.90
  -8   9  -4    1.60    1.50
   8  -9   4    2.40    1.00
  -9   9  -4    8.00    2.10
   9  -9   4    9.50    1.50
 -10   9  -4    6.30    2.00
  10  -9   4    5.00    1.20
 -11   9  -4   15.50    2.50
  11  -9   4   15.30    1.70
 -12   9  -4   20.30    2.80
  12  -9   4   25.60    1.90
  -8  -8   4    2.70    1.20
  -8  -8   4    5.10    1.20
  -7  -8   4   12.70    2.40
  -7  -8   4   12.60    2.00
  -6  -8   4   15.50    2.40
  -6  -8   4   12.50    2.40
  -5  -8   4   -0.20    1.40
  -5  -8   4    3.90    1.40
  -5  -8   4   -0.60    1.60
  -4  -8   4   18.50    2.00
  -4  -8   4   16.00    2.60
  -4  -8   4   19.20    2.60
  -3  -8   4   15.10    1.60
  -3  -8   4   12.60    2.20
  -3  -8   4   17.60    2.60
   2   8  -4    1.30    0.90
  -2  -8   4   -0.10    1.10
  -2  -8   4    0.40    1.20
  -2  -8   4    1.20    0.80
   1   8  -4   11.00    1.40
  -1  -8   4   14.60    2.00
  -1  -8   4   11.50    1.70
  -1  -8   4   12.10    1.30
   0   8  -4    0.00    0.60
   0   8  -4   -0.40    1.70
   0  -8   4    0.30    0.60
   0  -8   4   -0.40    0.60
  -1   8  -4   -0.90    1.80
   1  -8   4    1.80    0.70
   1  -8   4    1.40    0.70
   1  -8   4    1.70    0.70
  -2   8  -4    0.60    2.00
   2  -8   4    1.40    0.60
   2  -8   4    0.90    0.60
   2  -8   4    1.30    0.70
  -3   8  -4   31.10    2.00
  -3   8  -4   14.10    3.50
   3  -8   4   30.40    1.80
  -4   8  -4    3.00    2.90
  -5   8  -4    5.40    1.20
  -5   8  -4    8.30    3.40
  -6   8  -4   24.70    2.20
  -7   8  -4   26.40    2.70
   7  -8   4   20.40    1.80
  -8   8  -4    2.70    1.50
   8  -8   4    3.20    1.00
  -9   8  -4   11.20    2.30
   9  -8   4   13.10    1.70
 -10   8  -4    3.40    1.80
  10  -8   4    3.10    1.10
 -11   8  -4    3.70    1.80
  11  -8   4    2.70    1.00
 -12   8  -4    1.20    1.30
  12  -8   4    0.70    0.80
  13  -8   4    0.30    0.60
  -8  -7   4   -1.00    1.50
  -8  -7   4   -0.80    1.20
  -8  -7   4    0.80    1.30
  -7  -7   4   43.60    3.70
  -7  -7   4   48.10    4.20
  -6  -7   4  113.19    5.20
  -6  -7   4  102.89    6.30
  -6  -7   4  108.69    6.10
  -5  -7   4    2.60    1.20
  -5  -7   4    1.10    1.60
  -5  -7   4    2.40    1.50
  -4  -7   4    0.70    1.30
  -4  -7   4    1.60    1.30
  -4  -7   4   -0.20    0.90
   3   7  -4    3.30    1.00
  -3  -7   4    1.20    1.30
  -3  -7   4    3.40    1.40
  -3  -7   4    2.80    0.90
   2   7  -4  225.48    8.90
  -2  -7   4  208.28    8.90
  -2  -7   4  217.28    9.50
  -2  -7   4  220.78    8.40
   1   7  -4  397.36   14.90
  -1  -7   4  376.66   15.00
  -1  -7   4  406.36   14.50
   0   7  -4   31.80    2.00
   0  -7   4   38.10    2.00
   0  -7   4   39.00    2.30
   1  -7   4   26.60    1.90
   1  -7   4   29.60    1.90
   1  -7   4   30.20    1.70
  -2   7  -4  117.09    5.00
   2  -7   4  118.49    4.90
   2  -7   4  122.49    5.20
  -3   7  -4   50.39    2.70
  -4   7  -4    9.60    1.30
  -4   7  -4    6.30    2.70
  -5   7  -4   82.39    6.70
  -5   7  -4   75.39    4.00
  -6   7  -4    1.90    1.00
  -7   7  -4   19.10    2.50
  -7   7  -4   19.60    2.40
  -8   7  -4  213.58    9.50
  -8   7  -4  214.28    9.50
   8  -7   4  198.68    8.50
  -9   7  -4    5.10    1.80
  -9   7  -4   11.60    2.20
   9  -7   4    6.50    1.20
 -10   7  -4   71.29    5.00
 -10   7  -4   71.59    5.00
  10  -7   4   73.89    3.90
 -11   7  -4   16.10    1.90
 -11   7  -4   16.80    2.70
  11  -7   4   12.20    1.60
 -12   7  -4    1.60    1.10
  12  -7   4    1.80    0.90
  13  -7   4   14.40    1.30
  -9  -6   4    6.50    1.70
  -9  -6   4    5.90    1.20
  -9  -6   4    6.70    1.50
  -8  -6   4    7.80    2.20
  -8  -6   4    6.50    1.80
  -7  -6   4    3.10    1.80
  -7  -6   4    5.60    1.30
  -7  -6   4    1.10    2.00
  -6  -6   4    5.60    2.10
  -6  -6   4    6.70    1.50
  -6  -6   4    3.80    1.70
  -5  -6   4   10.40    1.50
  -5  -6   4   13.20    2.30
  -5  -6   4   11.80    2.10
   4   6  -4   25.30    2.10
  -4  -6   4   24.60    2.70
  -4  -6   4   29.20    2.10
  -4  -6   4   27.70    2.90
   3   6  -4   16.90    1.60
  -3  -6   4   18.80    2.50
  -3  -6   4   20.80    1.60
  -3  -6   4   17.90    1.80
   2   6  -4    4.30    0.80
   2   6  -4    1.20    1.50
  -2  -6   4    3.60    0.90
  -2  -6   4    4.50    0.80
   1   6  -4    1.40    1.20
   1   6  -4    5.40    0.80
  -1  -6   4    6.10    1.00
  -1  -6   4    5.10    0.70
   0   6  -4   45.30    2.30
   0  -6   4   47.70    2.20
   0  -6   4   48.40    2.50
  -1   6  -4   -0.40    1.00
  -1   6  -4    0.20    0.40
   1  -6   4   -0.10    0.40
   1  -6   4    0.10    0.40
   1  -6   4    0.10    0.40
  -2   6  -4   15.00    1.30
   2  -6   4   13.60    1.00
   2  -6   4   12.90    1.10
   2  -6   4   14.70    1.30
  -3   6  -4    0.30    0.60
  -3   6  -4    0.90    1.70
  -4   6  -4   68.39    3.30
  -4   6  -4   60.59    5.30
  -5   6  -4   27.90    1.60
  -5   6  -4   26.10    2.10
  -5   6  -4   24.10    1.60
  -6   6  -4   11.30    1.20
  -6   6  -4    9.50    1.40
  -6   6  -4   12.60    1.30
  -7   6  -4   29.90    2.60
  -7   6  -4   27.60    2.10
  -7   6  -4   30.10    2.00
  -8   6  -4   18.70    2.60
  -8   6  -4   16.40    2.40
  -8   6  -4   20.20    1.90
  -8   6  -4   19.30    1.90
   8  -6   4   17.90    1.80
  -9   6  -4   25.90    2.20
  -9   6  -4   20.00    2.80
  -9   6  -4   27.80    3.30
  -9   6  -4   28.60    2.40
   9  -6   4   24.80    2.20
 -10   6  -4   12.10    1.70
 -10   6  -4   12.50    2.40
 -10   6  -4   12.60    1.80
 -10   6  -4   15.70    2.70
  10  -6   4   14.00    1.80
 -11   6  -4    5.50    1.80
 -11   6  -4    0.70    1.20
 -11   6  -4    0.00    1.60
  11  -6   4    1.90    1.00
 -12   6  -4   16.90    2.50
 -12   6  -4   20.20    2.10
  12  -6   4   22.50    1.90
 -13   6  -4   13.50    1.50
  13  -6   4   14.00    1.30
 -10  -5   4   -0.60    1.00
  -9  -5   4    1.70    1.50
  -9  -5   4    2.40    1.80
  -9  -5   4    0.40    1.20
  -8  -5   4    5.40    1.90
  -8  -5   4    5.70    2.30
  -8  -5   4    4.70    1.30
  -7  -5   4    5.60    1.90
  -7  -5   4    1.80    1.20
  -7  -5   4    0.30    1.90
  -6  -5   4    4.00    1.90
  -6  -5   4    3.90    1.60
  -6  -5   4    4.30    1.20
   5   5  -4   15.20    1.80
  -5  -5   4   14.20    2.30
  -5  -5   4   15.10    2.20
  -5  -5   4   18.40    1.80
   4   5  -4   30.90    2.30
  -4  -5   4   30.00    1.90
  -4  -5   4   30.80    2.90
  -4  -5   4   27.20    2.10
   3   5  -4   42.20    2.40
  -3  -5   4   40.60    2.10
  -3  -5   4   40.60    2.50
   2   5  -4   40.80    2.10
   2   5  -4   23.40    3.00
  -2  -5   4   40.60    2.20
  -2  -5   4   34.70    1.80
   1   5  -4   48.60    2.40
  -1  -5   4   50.69    2.30
  -1  -5   4   55.99    2.60
   0   5  -4    6.80    0.80
   0   5  -4    7.00    0.70
   0   5  -4    1.90    1.20
   0  -5   4    7.90    0.80
   0  -5   4    6.20    0.80
  -1   5  -4  285.37   11.20
   1  -5   4  327.97   11.40
   1  -5   4  297.87   11.20
  -2   5  -4  247.58    9.00
   2  -5   4  224.78    8.70
   2  -5   4  235.08    8.90
   2  -5   4  237.78    9.00
  -3   5  -4  821.82   29.30
  -3   5  -4  819.02   29.20
  -3   5  -4  794.22   28.90
   3  -5   4  781.32   29.00
  -4   5  -4   98.99    4.60
  -4   5  -4  107.69    4.30
  -4   5  -4  105.49    4.50
  -4   5  -4  105.29    4.20
  -4   5  -4  105.09    6.00
  -5   5  -4    3.30    1.70
  -5   5  -4    2.10    0.80
  -5   5  -4    1.10    0.50
  -5   5  -4    1.20    0.60
  -5   5  -4    1.80    0.70
  -6   5  -4    3.80    1.00
  -6   5  -4    4.70    0.90
  -6   5  -4    4.50    0.90
  -6   5  -4    5.50    0.90
  -7   5  -4    2.90    0.90
  -7   5  -4    2.30    0.80
  -7   5  -4    1.70    0.90
  -7   5  -4    1.60    0.80
  -8   5  -4  230.08    9.10
  -8   5  -4  234.38   10.10
  -8   5  -4  225.58    9.30
  -8   5  -4  224.78   10.20
  -8   5  -4  219.38    9.50
   8  -5   4  227.48    9.40
  -9   5  -4   47.60    3.90
  -9   5  -4   49.40    3.00
  -9   5  -4   50.49    3.20
  -9   5  -4   49.10    4.20
   9  -5   4   46.10    2.90
 -10   5  -4    0.60    1.10
 -10   5  -4    0.90    1.50
 -10   5  -4    0.20    1.20
 -10   5  -4    2.10    1.90
  10  -5   4    1.30    0.90
 -11   5  -4   56.49    4.60
 -11   5  -4   62.59    3.80
 -11   5  -4   56.19    3.30
  11  -5   4   59.49    3.40
 -12   5  -4   32.00    3.20
 -12   5  -4   32.70    2.60
  12  -5   4   27.20    2.10
 -13   5  -4    2.30    0.90
  13  -5   4    2.50    0.70
 -10  -4   4   -1.40    1.10
 -10  -4   4   -3.30    0.90
 -10  -4   4    1.40    1.50
  -9  -4   4    6.30    1.90
  -9  -4   4    5.30    2.10
  -8  -4   4   -0.20    1.80
  -8  -4   4    1.80    1.10
  -8  -4   4    1.30    1.70
  -7  -4   4    7.50    2.20
  -7  -4   4   11.40    2.30
  -7  -4   4   11.20    1.60
   6   4  -4    0.60    0.90
  -6  -4   4    2.30    1.60
  -6  -4   4    1.30    1.00
  -6  -4   4    3.20    1.50
   5   4  -4    6.70    1.20
  -5  -4   4    5.20    1.50
  -5  -4   4    7.40    1.10
  -5  -4   4    6.10    1.20
   4   4  -4   11.30    1.40
  -4  -4   4    7.40    1.20
  -4  -4   4    9.00    1.00
   3   4  -4   32.00    1.90
  -3  -4   4   33.20    1.70
  -3  -4   4   28.20    1.90
   2   4  -4    2.90    0.60
   2   4  -4    1.40    1.10
  -2  -4   4    1.60    0.60
  -2  -4   4    1.40    0.50
   1   4  -4   42.80    3.50
   1   4  -4   57.19    2.50
  -1  -4   4   64.99    2.70
  -1  -4   4   58.19    2.40
   0   4  -4    0.30    0.30
   0   4  -4    0.30    0.30
   0   4  -4   -0.10    0.80
   0   4  -4    0.70    0.40
   0  -4   4    0.20    0.40
  -1   4  -4  116.69    5.00
  -1   4  -4  127.49    4.90
   1  -4   4  127.89    4.80
   1  -4   4  117.59    4.60
   1  -4   4  124.79    4.80
   1  -4   4  134.59    5.00
  -2   4  -4    0.60    1.00
  -2   4  -4    1.10    0.50
  -2   4  -4    2.60    0.60
  -2   4  -4    1.70    0.40
   2  -4   4    2.00    0.50
   2  -4   4    2.50    0.50
   2  -4   4    1.80    0.30
  -3   4  -4   63.89    2.60
  -3   4  -4   55.49    2.80
  -3   4  -4   63.19    4.00
  -3   4  -4   60.29    2.90
   3  -4   4   61.49    2.60
  -4   4  -4    1.50    0.50
  -4   4  -4    1.10    0.50
  -4   4  -4    0.50    0.50
  -4   4  -4    0.80    0.40
  -4   4  -4    1.20    0.90
   4  -4   4    1.30    0.40
  -5   4  -4  230.58    9.10
  -5   4  -4  222.38    8.50
  -5   4  -4  225.08    8.70
  -5   4  -4  224.28    8.80
  -6   4  -4    0.20    0.60
  -6   4  -4    0.40    0.60
  -6   4  -4    1.50    0.70
  -6   4  -4    0.60    0.80
  -7   4  -4   15.30    1.60
  -7   4  -4   15.10    1.90
  -7   4  -4   15.30    1.70
  -8   4  -4   74.09    4.00
  -8   4  -4   77.49    4.70
  -8   4  -4   71.39    3.90
  -8   4  -4   82.29    5.00
  -9   4  -4   53.59    4.20
  -9   4  -4   59.09    4.50
  -9   4  -4   62.59    4.30
  -9   4  -4   59.39    3.30
  -9   4  -4   59.49    3.70
 -10   4  -4    9.30    1.80
 -10   4  -4    7.70    1.50
 -10   4  -4   12.70    2.40
 -10   4  -4   10.20    2.50
 -11   4  -4   24.80    2.60
 -11   4  -4   26.70    3.40
 -11   4  -4   24.40    2.30
  11  -4   4   23.50    2.20
 -12   4  -4    5.20    1.90
 -12   4  -4    4.00    1.40
  12  -4   4    7.20    1.20
 -13   4  -4    2.60    0.90
 -11  -3   4    3.50    1.30
 -10  -3   4   10.80    2.10
 -10  -3   4    9.60    1.80
 -10  -3   4   11.60    2.40
  -9  -3   4   24.70    3.30
  -9  -3   4   23.20    3.00
  -9  -3   4   25.60    2.40
  -8  -3   4   47.10    4.00
  -8  -3   4   40.00    2.90
  -8  -3   4   44.70    4.30
  -7  -3   4   24.70    2.20
  -7  -3   4   27.90    3.30
  -7  -3   4   28.90    3.20
   6   3  -4    0.80    0.80
  -6  -3   4    1.00    1.30
  -6  -3   4    0.90    0.80
   5   3  -4   44.20    2.60
  -5  -3   4   45.70    2.30
  -5  -3   4   37.50    2.50
   4   3  -4   32.50    2.00
  -4  -3   4   33.50    2.10
  -4  -3   4   29.30    1.70
   3   3  -4  496.65   17.40
   3   3  -4  466.65   18.10
  -3  -3   4  463.25   17.10
  -3  -3   4  454.25   17.40
  -3  -3   4  468.85   17.10
   2   3  -4    1.10    0.40
   2   3  -4    1.30    0.80
  -2  -3   4    1.50    0.40
  -2  -3   4    1.40    0.50
  -2  -3   4    1.60    0.40
   1   3  -4   65.59    2.90
   1   3  -4   66.59    2.70
   1   3  -4   69.29    4.10
   1   3  -4   67.79    3.00
  -1  -3   4   71.89    2.70
  -1  -3   4   74.49    2.80
  -1  -3   4   77.89    3.10
   0   3  -4  102.59    4.20
   0   3  -4   90.49    5.10
   0   3  -4  110.39    4.00
   0  -3   4  107.09    4.00
   0  -3   4  107.79    4.10
   0  -3   4  100.99    3.90
  -1   3  -4    5.00    0.60
  -1   3  -4    4.30    0.40
  -1   3  -4    6.60    0.70
  -1   3  -4    4.40    1.20
  -1   3  -4    5.20    0.50
   1  -3   4    4.90    0.60
   1  -3   4    6.30    0.60
  -2   3  -4   22.40    2.00
  -2   3  -4   19.10    1.30
  -2   3  -4   19.90    1.10
  -2   3  -4   20.80    1.20
  -2   3  -4   20.40    1.00
   2  -3   4   19.00    1.10
   2  -3   4   20.50    1.10
  -3   3  -4    4.20    0.60
  -3   3  -4    3.60    0.60
  -3   3  -4    4.40    1.10
  -3   3  -4    5.50    0.80
   3  -3   4    3.40    0.50
  -4   3  -4  147.79    6.80
  -4   3  -4  158.48    6.10
  -4   3  -4  149.59    5.80
  -4   3  -4  161.18    6.00
  -4   3  -4  155.08    6.30
   4  -3   4  149.39    5.90
  -5   3  -4   15.00    1.10
  -5   3  -4   14.20    1.50
  -5   3  -4   17.00    1.30
  -5   3  -4   17.60    1.30
   5  -3   4   16.40    1.10
  -6   3  -4   19.50    1.60
  -6   3  -4   19.10    1.90
  -6   3  -4   19.70    1.40
  -6   3  -4   21.30    1.60
  -7   3  -4    1.50    0.80
  -7   3  -4    0.80    0.70
  -7   3  -4    1.70    0.70
  -7   3  -4    0.20    0.80
  -8   3  -4   -0.90    0.80
  -8   3  -4   -0.10    1.00
  -8   3  -4    0.50    1.40
  -8   3  -4    0.80    1.20
  -8   3  -4    0.10    0.80
  -8   3  -4    0.10    1.20
  -9   3  -4    4.00    1.30
  -9   3  -4    4.00    1.40
  -9   3  -4    2.00    1.50
  -9   3  -4    5.30    2.10
 -10   3  -4    6.50    2.10
 -10   3  -4    5.00    2.20
 -10   3  -4    6.00    1.70
 -11   3  -4   -0.60    1.70
 -11   3  -4   -0.20    1.00
 -11   3  -4    0.50    1.40
 -12   3  -4    2.10    1.70
 -12   3  -4    3.30    1.30
  12  -3   4    6.30    1.10
 -11  -2   4    0.20    1.30
 -11  -2   4    1.20    1.30
 -10  -2   4   -1.30    1.30
 -10  -2   4   -0.10    1.20
 -10  -2   4    2.80    1.90
 -10  -2   4    2.30    1.70
  -9  -2   4   -0.80    1.80
  -9  -2   4   -0.30    1.10
  -9  -2   4    1.40    1.60
  -9  -2   4    1.20    1.10
  -8  -2   4   76.99    5.00
  -8  -2   4   75.29    4.20
  -8  -2   4   75.59    3.90
  -8  -2   4   71.79    5.10
   7   2  -4    5.00    1.20
  -7  -2   4    4.50    1.10
  -7  -2   4    6.20    1.80
  -7  -2   4    5.70    1.20
  -7  -2   4    4.50    1.60
   6   2  -4    3.40    0.90
  -6  -2   4    2.90    0.90
  -6  -2   4    2.80    1.00
   5   2  -4  165.08    6.60
  -5  -2   4  158.18    6.70
  -5  -2   4  160.28    6.30
  -5  -2   4  153.08    6.40
   4   2  -4   27.20    1.70
  -4  -2   4   25.70    1.50
  -4  -2   4   26.10    1.70
  -4  -2   4   19.50    1.40
   3   2  -4   55.99    2.50
   3   2  -4   50.79    2.80
  -3  -2   4   56.09    2.50
  -3  -2   4   40.60    2.20
  -3  -2   4   54.39    2.30
   2   2  -4  127.89    5.00
   2   2  -4  123.09    5.00
   2   2  -4  124.59    5.60
  -2  -2   4  147.59    5.20
  -2  -2   4  128.29    4.90
   1   2  -4   38.70    1.80
   1   2  -4   38.80    1.70
   1   2  -4   43.30    2.50
   1   2  -4   38.80    1.90
  -1  -2   4   40.90    1.70
  -1  -2   4   44.80    2.00
  -1  -2   4   42.10    1.80
   0   2  -4  547.45   19.60
   0   2  -4  531.55   18.80
   0   2  -4  499.45   18.60
   0   2  -4  519.35   18.80
   0  -2   4  506.05   18.80
   0  -2   4  518.65   18.60
   0  -2   4  518.05   18.70
  -1   2  -4  174.08    6.40
  -1   2  -4  175.88    6.30
  -1   2  -4  172.48    7.00
  -1   2  -4  158.78    6.00
  -1   2  -4  159.08    6.20
   1  -2   4  165.88    6.20
   1  -2   4  165.88    6.30
  -2   2  -4 1995.90   70.89
  -2   2  -4 1958.80   70.09
  -2   2  -4 2014.10   70.09
  -2   2  -4 2029.90   70.29
   2  -2   4 1953.70   69.99
   2  -2   4 1862.81   70.09
  -3   2  -4  219.58    9.30
  -3   2  -4  234.88    8.80
  -3   2  -4  229.48    8.60
  -3   2  -4  231.78    8.60
   3  -2   4  230.58    8.40
  -4   2  -4   75.89    3.50
  -4   2  -4   74.29    3.10
  -4   2  -4   67.69    3.20
  -4   2  -4   79.89    3.20
  -4   2  -4   76.19    3.80
   4  -2   4   79.29    3.10
  -5   2  -4   95.19    3.70
  -5   2  -4   95.49    4.00
  -5   2  -4   94.89    4.40
  -5   2  -4   94.09    4.00
   5  -2   4   90.89    3.80
  -6   2  -4   16.40    1.20
  -6   2  -4   16.80    1.40
  -6   2  -4   19.90    1.60
  -6   2  -4   17.10    1.80
  -7   2  -4   88.09    4.20
  -7   2  -4   95.29    4.00
  -7   2  -4   89.59    5.40
  -7   2  -4   88.39    4.40
  -8   2  -4    9.20    2.10
  -8   2  -4    6.50    1.40
  -8   2  -4    7.00    1.20
  -8   2  -4    7.20    1.50
  -8   2  -4    9.10    1.90
  -9   2  -4    5.60    1.90
  -9   2  -4    2.90    1.40
  -9   2  -4    4.30    2.00
  -9   2  -4    4.30    1.20
 -10   2  -4   27.80    2.60
 -10   2  -4   29.90    2.90
 -10   2  -4   24.40    3.00
 -10   2  -4   23.60    3.40
 -11   2  -4   17.50    2.60
 -11   2  -4   14.20    2.10
 -11   2  -4   14.60    2.70
 -12   2  -4   11.50    2.30
 -12   2  -4   11.40    1.60
  12  -2   4   13.90    1.50
 -12  -1   4    4.50    1.20
 -11  -1   4   -0.30    1.40
 -11  -1   4    0.70    1.10
 -11  -1   4    0.60    1.40
 -10  -1   4    9.70    2.30
 -10  -1   4    9.00    1.70
 -10  -1   4    6.80    2.20
 -10  -1   4    9.60    1.60
  -9  -1   4   26.50    3.40
  -9  -1   4   23.10    2.40
  -9  -1   4   24.10    2.70
  -9  -1   4   22.10    2.20
  -9  -1   4   23.40    3.20
  -8  -1   4   38.20    3.70
  -8  -1   4   34.80    2.60
  -8  -1   4   40.30    2.90
  -8  -1   4   42.80    3.60
   7   1  -4    2.00    0.90
  -7  -1   4    0.90    1.30
  -7  -1   4    2.80    1.00
  -7  -1   4    2.30    0.90
   6   1  -4    0.40    0.60
  -6  -1   4    0.60    0.70
  -6  -1   4    0.70    0.60
  -6  -1   4    0.30    0.60
   5   1  -4   55.39    2.70
  -5  -1   4   57.49    2.70
  -5  -1   4   50.59    2.80
  -5  -1   4   50.29    2.50
   4   1  -4   85.79    3.70
  -4  -1   4   85.39    3.50
  -4  -1   4   85.09    3.80
  -4  -1   4   88.39    3.70
   3   1  -4  506.25   19.30
   3   1  -4  520.45   18.90
  -3  -1   4  513.95   18.80
  -3  -1   4  536.35   19.00
   2   1  -4    7.60    0.70
   2   1  -4    7.80    0.70
   2   1  -4    7.30    1.00
  -2  -1   4   10.10    0.90
  -2  -1   4    6.50    0.60
  -2  -1   4    8.20    0.70
  -2  -1   4    6.80    0.50
   1   1  -4    9.60    0.70
   1   1  -4    9.90    1.10
   1   1  -4   10.40    0.80
   1   1  -4   10.60    0.70
  -1  -1   4   11.80    0.80
  -1  -1   4    8.80    0.70
  -1  -1   4   11.70    0.90
   0   1  -4  274.87    9.60
   0   1  -4  267.27    9.80
   0   1  -4  261.17   10.30
   0   1  -4  270.67    9.70
   0  -1   4  258.37    9.70
   0  -1   4  263.57    9.60
   0  -1   4  257.47    9.60
  -1   1  -4  284.17   10.40
  -1   1  -4  287.77   10.40
  -1   1  -4  293.57   10.50
  -1   1  -4  292.57   11.10
  -1   1  -4  264.67   10.40
   1  -1   4  274.27   10.30
   1  -1   4  293.17   10.30
  -2   1  -4   25.00    1.50
  -2   1  -4   23.80    1.70
  -2   1  -4   24.20    1.20
  -2   1  -4   21.70    1.20
  -2   1  -4   22.40    1.10
   2  -1   4   23.20    1.10
  -3   1  -4    2.90    0.70
  -3   1  -4    4.00    0.60
  -3   1  -4    2.90    0.40
  -3   1  -4    3.30    0.50
  -3   1  -4    2.60    0.60
   3  -1   4    3.10    0.40
   3  -1   4    2.90    0.30
   3  -1   4    3.10    0.40
  -4   1  -4   39.10    2.30
  -4   1  -4   44.10    2.00
  -4   1  -4   43.40    2.30
  -4   1  -4   42.10    2.10
   4  -1   4   41.30    1.80
  -5   1  -4    5.60    0.90
  -5   1  -4    5.80    0.60
  -5   1  -4    6.00    1.00
  -5   1  -4    5.10    0.70
   5  -1   4    6.20    0.70
  -6   1  -4    3.70    0.90
  -6   1  -4    4.10    0.60
  -6   1  -4    3.60    0.80
  -6   1  -4    1.80    0.80
  -7   1  -4   12.80    1.30
  -7   1  -4   13.80    1.60
  -7   1  -4   13.90    1.60
  -7   1  -4   13.60    2.20
  -8   1  -4    3.20    1.20
  -8   1  -4    3.40    0.90
  -8   1  -4    2.70    1.50
  -8   1  -4    2.10    1.60
  -8   1  -4    2.40    1.20
  -9   1  -4    2.80    1.20
  -9   1  -4    6.50    2.10
  -9   1  -4    3.10    1.80
  -9   1  -4    5.50    1.50
 -10   1  -4    1.80    1.20
 -10   1  -4    0.20    2.00
 -10   1  -4   -1.00    1.30
 -10   1  -4    1.50    1.80
 -11   1  -4   -1.60    1.30
 -11   1  -4    1.80    1.40
 -11   1  -4    1.10    1.90
 -12   1  -4   11.00    2.10
 -12   1  -4   10.00    1.40
  12  -1   4   12.60    1.30
 -12   0   4    6.80    1.30
 -12   0   4    8.20    1.70
 -11   0   4    7.50    2.10
 -11   0   4    4.80    1.90
 -11   0   4    5.80    1.50
 -10   0   4    0.20    1.60
 -10   0   4   -0.10    1.30
 -10   0   4    4.00    1.30
 -10   0   4    4.70    2.00
  -9   0   4   90.29    5.00
  -9   0   4   82.39    5.50
  -9   0   4   88.19    5.60
  -9   0   4   90.29    4.80
  -9   0   4   94.29    4.50
   8   0  -4    6.20    1.20
  -8   0   4    7.50    1.30
  -8   0   4    8.40    1.90
  -8   0   4    7.20    1.80
  -8   0   4    7.00    1.50
  -8   0   4    6.20    1.40
   7   0  -4   33.90    2.30
  -7   0   4   37.90    2.30
  -7   0   4   33.70    2.40
  -7   0   4   37.60    2.60
   6   0  -4   10.90    1.20
  -6   0   4    9.20    1.10
  -6   0   4    9.40    1.20
  -6   0   4   11.50    1.50
   5   0  -4  675.93   24.60
  -5   0   4  657.53   24.50
  -5   0   4  671.93   24.40
  -5   0   4  680.73   24.80
   4   0  -4 2457.75   86.49
  -4   0   4 2380.06   86.39
  -4   0   4 2490.75   86.49
  -4   0   4 2372.86   86.69
   3   0  -4 2376.86   87.39
   3   0  -4 2436.66   87.09
   3   0  -4 2466.65   87.09
  -3   0   4 2438.06   86.99
  -3   0   4 2466.45   87.09
  -3   0   4 2503.75   87.19
  -3   0   4 2432.96   86.99
   2   0  -4  605.54   22.40
   2   0  -4  591.44   21.90
   2   0  -4  609.74   21.90
  -2   0   4  644.14   22.00
  -2   0   4  601.94   21.90
  -2   0   4  609.64   21.90
  -2   0   4  596.34   21.90
   1   0  -4  261.57    9.50
   1   0  -4  249.28    9.40
   1   0  -4  255.77    9.50
   1   0  -4  262.77   10.10
  -1   0   4  248.08    9.50
  -1   0   4  266.87    9.40
  -1   0   4  262.17    9.50
  -1   0   4  260.17    9.50
   0   0  -4  141.89    5.00
   0   0  -4  136.19    5.30
   0   0  -4  134.99    5.70
   0   0  -4  124.49    5.10
   0   0  -4  145.79    5.10
   0   0   4  137.59    5.10
   0   0   4  131.19    5.10
   0   0   4  139.09    5.00
  -1   0  -4 1497.75   54.99
  -1   0  -4 1520.65   54.99
  -1   0  -4 1584.14   55.09
  -1   0  -4 1594.44   55.29
  -1   0  -4 1458.35   54.89
  -1   0  -4 1626.64   55.79
  -2   0  -4  935.91   33.60
  -2   0  -4  913.81   32.80
  -2   0  -4  876.91   32.80
  -2   0  -4  916.61   32.80
  -2   0  -4  925.71   33.00
  -2   0  -4  948.71   33.20
  -3   0  -4   15.80    0.90
  -3   0  -4   17.80    0.90
  -3   0  -4   16.40    1.40
  -3   0  -4   16.10    1.30
  -3   0  -4   15.60    1.10
   3   0   4   18.10    0.90
  -4   0  -4   34.80    2.10
  -4   0  -4   32.30    1.60
  -4   0  -4   32.50    1.90
   4   0   4   35.10    1.90
   4   0   4   35.90    1.50
  -5   0  -4  557.84   20.00
  -5   0  -4  539.55   19.70
   5   0   4  531.45   19.60
  -6   0  -4  364.26   13.70
  -6   0  -4  350.26   13.40
  -6   0  -4  361.56   13.10
  -7   0  -4   96.69    4.00
  -7   0  -4   88.69    5.20
  -7   0  -4   88.59    4.50
  -8   0  -4    2.00    1.50
  -8   0  -4    0.10    1.40
  -8   0  -4    0.70    1.20
  -8   0  -4    0.20    0.80
  -9   0  -4    1.00    1.50
  -9   0  -4    1.40    1.00
  -9   0  -4   -0.70    1.10
  -9   0  -4    0.80    1.80
 -10   0  -4   83.09    4.20
 -10   0  -4   87.09    5.80
 -10   0  -4   86.29    5.40
 -10   0  -4   84.79    4.70
 -11   0  -4   21.70    2.70
 -11   0  -4   27.30    2.40
 -11   0  -4   24.90    3.20
 -12   0  -4   -0.30    0.80
 -12   1   4   -0.10    1.00
 -12   1   4   -0.30    1.30
 -11   1   4    4.10    1.50
 -11   1   4    4.50    1.80
 -10   1   4   48.10    3.60
 -10   1   4   51.59    4.80
 -10   1   4   51.79    3.40
 -10   1   4   53.99    4.40
  -9   1   4    1.30    1.00
  -9   1   4   -0.20    1.50
  -9   1   4    0.50    1.50
  -9   1   4    0.30    1.20
   8  -1  -4    1.30    0.70
  -8   1   4    0.10    1.20
  -8   1   4    2.20    1.40
  -8   1   4    1.90    1.10
  -8   1   4    0.70    0.90
  -8   1   4    0.40    0.80
   7  -1  -4    0.50    0.60
  -7   1   4    0.10    0.60
  -7   1   4    0.40    0.80
  -7   1   4    0.40    0.80
   6  -1  -4  130.59    5.40
  -6   1   4  127.69    5.20
  -6   1   4  120.69    5.60
  -6   1   4  126.99    5.40
   5  -1  -4   19.50    1.40
  -5   1   4   19.90    1.40
  -5   1   4   21.90    1.50
  -5   1   4   19.70    1.60
   4  -1  -4   27.90    1.60
   4  -1  -4   27.90    1.70
  -4   1   4   30.30    1.60
  -4   1   4   29.80    1.70
  -4   1   4   30.10    1.70
   3  -1  -4    3.50    0.50
   3  -1  -4    3.80    0.70
   3  -1  -4    3.10    0.50
  -3   1   4    3.40    0.50
  -3   1   4    3.70    0.60
  -3   1   4    3.50    0.50
  -3   1   4    4.30    0.70
   2  -1  -4   31.80    1.90
   2  -1  -4   30.60    1.50
   2  -1  -4   29.60    1.50
  -2   1   4   32.90    1.50
  -2   1   4   30.10    1.40
  -2   1   4   29.70    1.50
  -2   1   4   30.30    1.50
   1  -1  -4  443.86   16.00
   1  -1  -4  395.06   16.00
   1  -1  -4  449.66   16.00
   1  -1  -4  461.75   16.70
  -1   1   4  446.66   16.00
  -1   1   4  458.05   15.90
  -1   1   4  451.75   16.10
  -1   1   4  434.36   16.00
   0  -1  -4  198.08    6.90
   0  -1  -4  169.08    6.80
   0  -1  -4  188.08    7.20
   0  -1  -4  190.78    7.60
   0   1   4  187.08    6.90
   0   1   4  194.28    6.80
  -1  -1  -4   62.39    2.50
  -1  -1  -4   57.79    2.30
  -1  -1  -4   60.79    2.60
  -1  -1  -4   64.69    3.20
  -1  -1  -4   63.99    2.80
  -1  -1  -4   60.09    2.30
  -2  -1  -4   49.90    2.30
  -2  -1  -4   53.49    2.30
  -2  -1  -4   53.49    2.50
  -2  -1  -4   56.89    2.90
  -3  -1  -4   11.90    1.00
  -3  -1  -4   13.40    0.70
  -3  -1  -4   13.50    1.20
  -3  -1  -4   13.40    1.40
  -3  -1  -4   12.90    0.70
   3   1   4   12.80    0.90
  -4  -1  -4   19.00    1.00
  -4  -1  -4   18.30    1.40
   4   1   4   16.90    1.10
  -5  -1  -4    8.80    0.90
  -5  -1  -4   10.00    1.20
  -6  -1  -4    7.30    0.90
  -6  -1  -4    9.10    1.30
  -7  -1  -4   16.60    1.90
  -7  -1  -4   13.20    1.70
  -7  -1  -4   15.20    1.40
  -7  -1  -4   14.80    2.20
  -7  -1  -4   13.80    2.30
  -8  -1  -4    1.50    1.50
  -8  -1  -4    5.70    1.60
  -8  -1  -4    2.60    1.90
  -8  -1  -4    3.50    1.10
  -9  -1  -4    1.40    1.90
  -9  -1  -4    1.80    1.30
  -9  -1  -4    0.20    1.00
  -9  -1  -4    1.00    1.70
 -10  -1  -4    1.70    1.40
 -10  -1  -4    0.60    1.60
 -10  -1  -4    3.50    2.00
 -11  -1  -4   21.80    2.40
 -11  -1  -4   19.40    2.70
 -11  -1  -4   21.40    2.10
  12  -2  -4    7.10    1.20
 -12   2   4    8.50    1.70
 -11   2   4    0.40    1.60
 -11   2   4    0.60    1.30
 -10   2   4   72.69    5.00
 -10   2   4   71.59    4.30
  -9   2   4   37.10    3.60
  -9   2   4   51.89    3.10
  -9   2   4   39.00    3.10
   8  -2  -4   11.90    1.50
  -8   2   4   15.70    1.70
  -8   2   4   15.20    2.60
  -8   2   4   12.70    1.70
  -8   2   4   13.50    1.70
   7  -2  -4   22.70    1.70
  -7   2   4   21.00    1.70
  -7   2   4   18.90    1.80
   6  -2  -4    3.60    0.70
  -6   2   4    3.60    0.70
  -6   2   4    7.80    1.10
  -6   2   4    7.00    1.10
   5  -2  -4    8.60    1.00
  -5   2   4    8.10    0.90
  -5   2   4    6.50    1.00
  -5   2   4    9.50    1.30
  -5   2   4   13.00    1.10
   4  -2  -4  136.19    5.40
   4  -2  -4  136.09    5.70
   4  -2  -4  136.99    5.40
  -4   2   4  127.59    5.30
  -4   2   4  141.89    5.50
  -4   2   4  137.79    5.50
  -4   2   4  136.89    5.40
   3  -2  -4  505.95   18.90
   3  -2  -4  514.05   18.40
   3  -2  -4  501.25   18.40
  -3   2   4  505.25   18.50
  -3   2   4  504.55   18.50
  -3   2   4  509.65   18.30
  -3   2   4  499.75   18.40
   2  -2  -4  304.17   11.10
   2  -2  -4  304.57   11.10
   2  -2  -4  304.97   11.70
  -2   2   4  316.67   11.10
  -2   2   4  297.77   11.00
  -2   2   4  282.67   11.10
  -2   2   4  302.57   11.20
   1  -2  -4  416.86   15.10
   1  -2  -4  422.16   15.90
   1  -2  -4  401.96   15.10
   1  -2  -4  400.36   15.20
  -1   2   4  439.06   15.40
  -1   2   4  423.56   15.20
  -1   2   4  427.36   15.00
   0  -2  -4 1604.64   57.79
   0  -2  -4 1687.03   58.69
   0  -2  -4 1573.74   57.59
   0  -2  -4 1650.53   57.59
   0   2   4 1568.34   57.99
   0   2   4 1646.24   57.79
  -1  -2  -4  124.69    4.90
  -1  -2  -4  126.29    5.10
  -1  -2  -4  126.09    4.90
  -1  -2  -4  123.79    5.60
  -2  -2  -4    2.00    0.50
  -2  -2  -4    2.80    0.60
  -2  -2  -4    2.90    0.80
  -3  -2  -4  154.98    6.80
  -3  -2  -4  159.48    6.20
   3   2   4  156.08    6.80
  -4  -2  -4  108.09    4.10
  -4  -2  -4  105.49    4.60
   4   2   4  111.39    4.50
  -5  -2  -4   63.59    2.70
  -5  -2  -4   65.59    3.20
  -6  -2  -4    4.10    1.10
  -6  -2  -4    5.50    1.60
  -7  -2  -4   24.10    2.30
  -7  -2  -4   26.10    1.80
  -7  -2  -4   22.90    2.90
  -7  -2  -4   18.70    2.60
  -8  -2  -4    0.70    0.90
  -8  -2  -4    1.10    1.80
  -8  -2  -4    0.90    1.20
  -8  -2  -4   -1.20    1.50
  -9  -2  -4   18.90    3.00
  -9  -2  -4   19.60    2.70
  -9  -2  -4   17.00    2.10
 -10  -2  -4   23.50    2.80
 -10  -2  -4   20.40    2.30
 -10  -2  -4   21.70    2.90
 -11  -2  -4   21.50    2.50
  13  -3  -4   -0.30    0.70
 -13   3   4    0.90    1.00
  12  -3  -4    0.50    1.00
 -12   3   4   -0.70    1.20
 -11   3   4   30.60    3.40
 -11   3   4   38.00    3.20
 -10   3   4    3.60    1.40
 -10   3   4    2.20    1.80
  -9   3   4    1.80    1.50
  -9   3   4    1.80    1.20
   8  -3  -4   20.30    1.80
  -8   3   4   21.10    2.00
   7  -3  -4   15.40    1.50
  -7   3   4   15.60    1.60
   6  -3  -4   37.60    2.20
  -6   3   4   37.50    2.20
   5  -3  -4   15.60    1.20
  -5   3   4   12.00    1.60
  -5   3   4   15.20    1.20
   4  -3  -4    0.60    0.40
   4  -3  -4    0.80    0.40
  -4   3   4    0.50    0.40
  -4   3   4    0.50    0.40
  -4   3   4    0.90    0.60
  -4   3   4    0.70    0.50
   3  -3  -4   12.80    0.90
   3  -3  -4   13.20    1.40
   3  -3  -4   14.30    1.00
  -3   3   4   12.90    0.90
  -3   3   4   11.90    1.10
  -3   3   4   12.60    0.90
  -3   3   4   12.80    1.10
   2  -3  -4   51.59    2.30
   2  -3  -4   49.70    2.20
   2  -3  -4   49.40    2.90
  -2   3   4   51.29    2.10
  -2   3   4   51.49    2.20
  -2   3   4   50.29    2.40
   1  -3  -4   44.40    2.70
   1  -3  -4   43.30    1.80
   1  -3  -4   43.00    1.90
   1  -3  -4   37.90    1.80
  -1   3   4   41.30    2.10
  -1   3   4   41.30    1.80
  -1   3   4   42.60    1.70
   0  -3  -4   15.80    0.80
   0  -3  -4   16.90    1.10
   0  -3  -4   17.70    1.70
   0  -3  -4   13.80    0.80
   0   3   4   16.80    0.90
   0   3   4   18.40    1.20
  -1  -3  -4  151.28    5.90
  -1  -3  -4  157.18    6.90
  -1  -3  -4  152.88    6.00
   1   3   4  155.18    6.10
  -2  -3  -4  123.39    5.10
  -2  -3  -4  122.59    4.90
   2   3   4  123.79    5.80
   2   3   4  123.59    5.10
  -3  -3  -4   14.20    1.40
  -3  -3  -4   10.80    1.00
   3   3   4   13.00    1.10
   3   3   4   14.10    1.60
  -5  -3  -4   16.10    1.10
  -6  -3  -4   26.80    3.00
  -6  -3  -4   29.10    3.00
  -7  -3  -4   22.20    2.90
  -7  -3  -4   22.70    3.00
  -8  -3  -4    2.00    1.00
  -8  -3  -4    0.40    1.70
  -8  -3  -4    0.30    1.60
  -9  -3  -4    0.00    1.60
  -9  -3  -4    1.10    1.60
 -10  -3  -4   25.70    3.00
 -10  -3  -4   23.90    2.70
  13  -4  -4    6.20    1.00
 -13   4   4    5.40    1.20
  12  -4  -4   18.20    1.90
 -12   4   4   15.90    2.00
  11  -4  -4    1.90    1.10
 -11   4   4    3.80    1.60
 -10   4   4   55.79    3.60
 -10   4   4   59.99    4.60
  -9   4   4   32.00    2.60
  -9   4   4   30.90    3.30
   8  -4  -4    2.00    0.70
  -8   4   4    1.80    0.90
   7  -4  -4  129.89    5.80
  -7   4   4  142.89    5.90
   6  -4  -4   62.29    3.20
  -6   4   4   71.49    4.10
  -6   4   4   70.69    3.30
   5  -4  -4  263.77    9.80
  -5   4   4  247.98    9.70
  -5   4   4  254.17   10.20
   4  -4  -4   21.30    1.40
   4  -4  -4   21.20    1.20
   4  -4  -4   22.00    1.40
  -4   4   4   22.50    1.90
  -4   4   4   24.00    1.70
  -4   4   4   20.10    1.30
  -4   4   4   22.90    1.40
   3  -4  -4   20.40    1.30
   3  -4  -4   18.70    1.20
   3  -4  -4   17.10    1.00
  -3   4   4   18.90    1.10
  -3   4   4   16.90    1.30
  -3   4   4   19.10    1.80
  -3   4   4   18.60    1.10
   2  -4  -4   33.40    1.60
   2  -4  -4   34.00    1.70
   2  -4  -4   32.10    2.40
  -2   4   4   32.30    2.40
  -2   4   4   28.90    1.50
  -2   4   4   31.60    1.80
   1  -4  -4  391.56   14.50
   1  -4  -4  392.96   15.50
   1  -4  -4  408.36   14.30
  -1   4   4  383.86   14.30
  -1   4   4  381.86   15.40
  -1   4   4  398.46   14.60
   0  -4  -4    2.80    0.40
   0  -4  -4    2.70    0.60
   0   4   4    3.40    0.90
   0   4   4    3.80    0.50
   0   4   4    3.40    0.60
  -1  -4  -4   39.90    1.60
  -1  -4  -4   36.40    1.60
  -1  -4  -4   37.30    2.10
   1   4   4   42.70    2.90
   1   4   4   39.80    2.10
   1   4   4   39.40    1.80
  -2  -4  -4    1.20    0.70
   2   4   4    0.90    0.70
   2   4   4    0.70    0.50
  -3  -4  -4  184.38    7.60
   4   4   4   35.30    2.20
  -5  -4  -4    7.80    1.70
  -6  -4  -4    1.30    1.40
  -6  -4  -4    0.30    1.30
  -7  -4  -4    5.00    1.90
  -7  -4  -4   -0.40    1.50
  -8  -4  -4   11.40    2.30
  -8  -4  -4   13.70    1.60
  -8  -4  -4   12.90    2.50
  -9  -4  -4    1.70    1.50
  -9  -4  -4    2.80    1.70
  13  -5  -4    0.40    0.70
 -13   5   4    2.10    1.00
  12  -5  -4    4.50    1.20
 -12   5   4    5.30    1.50
  11  -5  -4    5.50    1.30
 -11   5   4    4.80    1.50
  10  -5  -4   28.60    2.50
 -10   5   4   30.90    2.70
   9  -5  -4    0.40    0.90
  -9   5   4   -0.20    0.90
   8  -5  -4   16.30    1.60
   8  -5  -4   17.10    1.90
  -8   5   4   13.00    2.20
  -8   5   4   15.00    1.70
   7  -5  -4   12.00    1.40
  -7   5   4   14.60    1.60
  -7   5   4   15.80    2.40
   6  -5  -4    7.40    1.00
  -6   5   4    8.30    1.10
  -6   5   4    9.90    1.90
   5  -5  -4    1.00    0.50
   5  -5  -4    1.30    0.50
  -5   5   4    2.30    0.60
  -5   5   4    2.40    0.90
   4  -5  -4   14.60    1.20
   4  -5  -4   17.10    1.30
   4  -5  -4   17.10    1.10
  -4   5   4   17.70    1.50
  -4   5   4   17.60    1.90
  -4   5   4   18.50    1.20
  -4   5   4   16.40    1.20
   3  -5  -4    8.10    0.70
   3  -5  -4    7.80    0.80
   3  -5  -4    8.50    1.00
  -3   5   4    7.70    0.80
  -3   5   4    7.50    1.40
  -3   5   4    6.50    0.90
   2  -5  -4    6.10    0.60
   2  -5  -4    8.20    1.00
   2  -5  -4    6.50    0.70
  -2   5   4    7.40    0.70
  -2   5   4    7.90    1.00
  -2   5   4    6.30    0.70
  -2   5   4    6.40    1.30
   1  -5  -4   30.00    1.70
   1  -5  -4   35.00    1.70
   1  -5  -4   36.40    2.00
  -1   5   4   37.10    2.10
  -1   5   4   36.60    2.80
  -1   5   4   35.30    1.60
   0  -5  -4  389.56   14.20
   0  -5  -4  400.26   14.70
   0   5   4  380.06   15.70
   0   5   4  391.66   14.60
  -1  -5  -4   69.79    2.70
  -1  -5  -4   72.39    3.40
   1   5   4   60.79    3.10
   1   5   4   67.99    4.20
  -2  -5  -4   26.80    1.30
  -2  -5  -4   27.60    2.10
   2   5   4   28.10    2.60
   3   5   4    1.70    0.70
   4   5   4  109.39    5.10
  -5  -5  -4   35.90    3.30
  -6  -5  -4   10.60    2.20
  -6  -5  -4   11.10    2.20
  -7  -5  -4    1.30    1.60
  -7  -5  -4    2.10    1.70
  -8  -5  -4   18.30    2.60
  -8  -5  -4   21.50    2.80
  -9  -5  -4    1.30    1.20
  -9  -5  -4    1.60    1.40
  13  -6  -4    2.30    0.90
 -13   6   4    3.30    1.00
  12  -6  -4   10.00    1.50
 -12   6   4   11.20    1.70
  11  -6  -4   67.39    3.80
 -11   6   4   70.69    3.90
  10  -6  -4   62.09    3.70
 -10   6   4   63.09    3.70
   9  -6  -4    0.40    0.90
  -9   6   4    1.90    1.80
   8  -6  -4    1.30    0.70
   8  -6  -4    2.30    0.90
  -8   6   4    1.70    1.60
  -8   6   4    1.90    0.90
   7  -6  -4  172.28    7.00
  -7   6   4  159.88    8.00
  -7   6   4  168.78    9.60
  -7   6   4  166.78    7.00
   6  -6  -4  193.98    7.70
  -6   6   4  186.28    8.70
  -6   6   4  190.08    7.60
   5  -6  -4   47.70    2.50
   5  -6  -4   44.80    2.20
  -5   6   4   45.20    2.60
  -5   6   4   48.10    3.00
  -5   6   4   47.80    2.40
   4  -6  -4   47.30    2.50
   4  -6  -4   47.20    2.40
   4  -6  -4   44.90    2.10
  -4   6   4   45.50    2.70
  -4   6   4   42.30    2.20
  -4   6   4   44.00    2.20
  -4   6   4   45.40    3.30
   3  -6  -4   86.79    3.50
   3  -6  -4   87.19    3.70
   3  -6  -4   84.79    3.90
  -3   6   4   86.19    5.00
  -3   6   4   90.79    4.10
  -3   6   4   86.29    3.60
   2  -6  -4   31.30    1.60
   2  -6  -4   30.70    1.90
   2  -6  -4   28.80    1.40
  -2   6   4   25.80    1.90
  -2   6   4   26.00    2.60
  -2   6   4   27.20    1.50
   1  -6  -4  242.08    9.10
   1  -6  -4  253.47    9.40
   1  -6  -4  258.67    9.80
  -1   6   4  252.07   11.10
  -1   6   4  253.27    9.90
   0  -6  -4   37.00    2.30
   0  -6  -4   34.50    1.70
   0   6   4   39.00    3.20
   0   6   4   37.40    2.20
  -1  -6  -4   59.59    3.30
  -1  -6  -4   64.09    2.70
   1   6   4   62.79    4.30
  -2  -6  -4   21.10    1.30
  -2  -6  -4   27.10    2.20
   2   6   4   21.70    2.60
   3   6   4   37.30    2.50
  -4  -6  -4   37.90    3.40
   4   6   4   30.40    2.40
  -5  -6  -4    1.50    1.60
  -6  -6  -4   36.30    3.70
  -6  -6  -4   34.00    3.40
  -7  -6  -4    1.40    1.50
  -7  -6  -4    1.00    1.60
  -8  -6  -4    0.00    1.30
  -8  -6  -4    0.00    1.30
  13  -7  -4    3.20    0.90
  12  -7  -4    5.40    1.20
  11  -7  -4   11.80    1.70
  10  -7  -4    0.40    1.00
 -10   7   4   -1.40    1.70
   9  -7  -4    0.20    0.90
  -9   7   4   -0.40    1.70
   8  -7  -4   14.00    1.70
   8  -7  -4   16.50    1.80
  -8   7   4   15.40    2.60
  -8   7   4   12.80    1.60
   7  -7  -4   53.79    3.00
  -7   7   4   49.00    2.80
  -7   7   4   50.89    4.30
   6  -7  -4  267.97   10.50
  -6   7   4  266.77   12.00
  -6   7   4  266.67   11.70
   5  -7  -4   48.50    2.60
   5  -7  -4   43.00    2.20
  -5   7   4   44.70    3.10
  -5   7   4   38.60    3.50
  -5   7   4   41.80    2.80
   4  -7  -4   20.80    1.50
   4  -7  -4   19.50    1.30
   4  -7  -4   21.20    1.60
  -4   7   4   17.40    1.30
  -4   7   4   16.60    2.40
  -4   7   4   19.80    1.90
   3  -7  -4    5.50    0.80
   3  -7  -4    6.50    1.00
   3  -7  -4    6.60    0.70
  -3   7   4    7.50    0.90
  -3   7   4    5.40    1.00
  -3   7   4    5.80    1.60
   2  -7  -4  121.29    4.70
   2  -7  -4  133.29    5.40
   2  -7  -4  119.29    5.00
  -2   7   4  115.59    5.40
  -2   7   4  128.29    4.90
  -2   7   4  115.79    6.60
   1  -7  -4  350.46   13.00
   1  -7  -4  351.96   13.80
   1  -7  -4  359.86   13.30
  -1   7   4  369.26   15.40
  -1   7   4  363.16   13.80
   0  -7  -4   64.99    2.60
   0  -7  -4   65.89    3.50
   0  -7  -4   64.29    2.90
   0   7   4   66.19    4.60
  -1  -7  -4   24.50    1.50
  -1  -7  -4   26.10    2.20
   1   7   4   25.00    3.00
  -2  -7  -4    4.20    1.30
  -3  -7  -4   -0.80    1.30
  -4  -7  -4   18.90    2.70
  -5  -7  -4   62.89    4.60
  -6  -7  -4   11.40    2.10
  -7  -7  -4    7.10    1.80
  13  -8  -4    2.40    0.80
  12  -8  -4   16.60    1.80
  11  -8  -4   10.80    1.60
 -11   8   4    8.30    2.00
  10  -8  -4    5.50    1.30
 -10   8   4   -0.30    2.00
   9  -8  -4    9.80    1.50
  -9   8   4   10.00    2.60
   8  -8  -4   34.10    2.20
   8  -8  -4   35.30    2.50
  -8   8   4   36.30    4.20
   7  -8  -4    8.90    1.40
   7  -8  -4   10.70    1.50
   7  -8  -4    7.40    1.20
  -7   8   4    8.20    2.20
   6  -8  -4    8.50    1.30
  -6   8   4    7.30    2.10
   5  -8  -4   10.10    1.40
   5  -8  -4   12.10    1.20
  -5   8   4   11.60    2.10
  -5   8   4   11.30    2.40
   4  -8  -4    0.40    0.60
   4  -8  -4    0.40    0.70
   4  -8  -4    0.40    0.60
  -4   8   4    0.70    0.90
  -4   8   4    1.00    0.50
  -4   8   4    0.50    1.20
   3  -8  -4    0.10    0.50
   3  -8  -4    0.30    0.70
   3  -8  -4    0.00    0.50
  -3   8   4    0.60    0.50
  -3   8   4    0.10    0.70
  -3   8   4    0.50    1.20
   2  -8  -4   26.70    2.10
   2  -8  -4   26.70    1.50
   2  -8  -4   24.30    1.70
  -2   8   4   23.20    2.00
  -2   8   4   24.20    1.50
  -2   8   4   24.30    3.10
   1  -8  -4    3.30    0.60
   1  -8  -4    3.80    0.80
   1  -8  -4    3.40    1.00
   0  -8  -4    2.60    1.10
   0  -8  -4    2.20    0.60
  -1  -8  -4    7.90    0.80
  -1  -8  -4    4.80    2.40
  -1  -8  -4    6.20    1.70
  -1  -8  -4    8.10    1.40
  -2  -8  -4    1.20    1.40
  -3  -8  -4    0.00    1.40
  -4  -8  -4    0.60    1.50
  -5  -8  -4    3.10    1.70
  -6  -8  -4   -0.10    1.40
  13  -9  -4    9.10    1.10
  12  -9  -4   13.70    1.60
  11  -9  -4   16.80    1.90
 -11   9   4   16.00    2.50
  10  -9  -4    4.90    1.20
 -10   9   4    1.60    2.20
   9  -9  -4   25.40    2.30
  -9   9   4   27.40    3.50
   8  -9  -4    1.70    1.00
   8  -9  -4    3.60    1.10
  -8   9   4    2.80    2.10
   7  -9  -4   41.00    2.80
   7  -9  -4   44.00    2.90
  -7   9   4   43.30    4.40
   6  -9  -4   68.69    3.70
   6  -9  -4   64.29    3.60
   6  -9  -4   63.09    3.60
  -6   9   4   62.89    4.80
   5  -9  -4   43.20    2.80
   5  -9  -4   45.00    2.80
   5  -9  -4   45.00    2.40
  -5   9   4   38.30    3.90
   4  -9  -4    4.90    0.90
   4  -9  -4    5.10    1.10
  -4   9   4    6.30    1.70
   3  -9  -4    6.60    1.80
   3  -9  -4   11.00    1.10
   3  -9  -4    7.30    2.60
   3  -9  -4    7.50    1.30
   2  -9  -4   67.59    3.10
   2  -9  -4   67.99    4.30
   2  -9  -4   65.79    6.40
   2  -9  -4   63.49    3.70
   1  -9  -4  146.79    5.80
   1  -9  -4  141.99    6.70
   1  -9  -4  146.29    9.70
   1  -9  -4  146.39    6.90
   0  -9  -4  225.98    8.60
   0  -9  -4  233.18   10.10
   0  -9  -4  226.18   13.00
  -1  -9  -4   73.09    4.70
  -1  -9  -4   73.59    3.30
  -1  -9  -4   73.89    7.20
  -2  -9  -4   14.20    1.30
  -2  -9  -4   16.40    2.60
  -3  -9  -4   -1.30    0.90
  -3  -9  -4    0.70    1.50
  -4  -9  -4    0.10    1.40
  -5  -9  -4    1.20    1.40
  -6  -9  -4    0.50    1.20
  12 -10  -4   -0.40    0.80
 -12  10   4   -1.20    1.00
  11 -10  -4    1.90    1.00
 -11  10   4   -2.30    1.40
  10 -10  -4    0.40    1.00
 -10  10   4   -3.00    1.90
   9 -10  -4    1.10    1.10
  -9  10   4   -0.50    2.20
   8 -10  -4    2.70    1.10
   8 -10  -4    3.20    1.10
  -8  10   4    3.60    2.20
   7 -10  -4    8.40    1.50
   7 -10  -4   12.10    1.70
  -7  10   4   14.90    2.80
   6 -10  -4    5.50    1.30
   6 -10  -4    4.90    1.40
  -6  10   4    3.20    2.10
   5 -10  -4    7.00    3.20
   5 -10  -4    0.30    1.10
   5 -10  -4    2.20    0.90
   5 -10  -4    0.90    1.20
  -5  10   4   -4.30    1.60
   4 -10  -4   33.00    6.60
   4 -10  -4   36.10    2.90
   4 -10  -4   41.10    2.40
  -4  10   4   29.60    3.60
   3 -10  -4    1.20    2.30
   3 -10  -4    1.90    0.80
   3 -10  -4   -0.10    1.10
   2 -10  -4    9.40    1.20
   2 -10  -4   10.40    1.80
   2 -10  -4    6.10    2.80
   1 -10  -4    6.90    1.10
   1 -10  -4    4.80    2.80
   1 -10  -4    5.00    1.60
   0 -10  -4   33.20    2.20
   0 -10  -4   36.30    6.20
   0 -10  -4   34.70    3.40
  -1 -10  -4    7.70    1.90
  -1 -10  -4    4.50    3.20
  -1 -10  -4    3.50    1.00
  -2 -10  -4   -0.30    1.00
  -2 -10  -4    1.90    1.60
  -3 -10  -4    4.80    1.70
  -4 -10  -4    3.00    1.50
  -5 -10  -4    4.00    1.40
  12 -11  -4   28.70    2.00
 -12  11   4   26.10    2.40
  11 -11  -4   10.00    1.40
 -11  11   4    5.60    1.70
  10 -11  -4    2.80    1.20
 -10  11   4   -2.20    1.70
   9 -11  -4   85.59    4.40
  -9  11   4   76.29    5.60
   8 -11  -4   21.70    2.20
   8 -11  -4   23.70    2.40
  -8  11   4   20.40    3.10
   7 -11  -4    0.00    1.30
   7 -11  -4    0.20    1.10
  -7  11   4    4.40    2.10
   6 -11  -4   51.69    3.50
   6 -11  -4   49.60    9.30
   6 -11  -4   53.79    3.40
  -6  11   4   53.39    4.50
   5 -11  -4   12.40    1.90
   5 -11  -4   13.10    4.80
   5 -11  -4   14.20    1.50
   5 -11  -4   15.00    2.10
  -5  11   4   15.70    2.70
   4 -11  -4    0.60    1.20
   4 -11  -4    2.30    1.00
   4 -11  -4   -1.70    3.10
   3 -11  -4    4.70    3.30
   3 -11  -4    7.30    1.70
   3 -11  -4   10.00    1.40
   2 -11  -4   50.09    7.30
   2 -11  -4   51.09    3.70
   2 -11  -4   46.90    2.80
   1 -11  -4    3.00    1.50
   1 -11  -4    4.40    3.20
   1 -11  -4    3.70    1.10
   0 -11  -4    4.50    1.80
   0 -11  -4    5.60    1.20
   0 -11  -4    8.40    3.70
  -1 -11  -4   -0.60    1.40
  -1 -11  -4    0.10    1.00
  -1 -11  -4    0.30    3.40
  -2 -11  -4    2.40    1.50
  -3 -11  -4    5.20    1.60
  -4 -11  -4   -0.40    1.20
  11 -12  -4    0.40    0.90
 -11  12   4   -2.20    1.00
  10 -12  -4   12.10    1.60
 -10  12   4    6.50    1.90
   9 -12  -4   33.30    2.60
  -9  12   4   28.00    3.30
   8 -12  -4   13.00    1.60
   8 -12  -4   13.20    1.90
  -8  12   4    8.90    2.50
   7 -12  -4   32.50    3.00
   7 -12  -4   30.70    2.80
  -7  12   4   38.60    3.80
   6 -12  -4    3.70    3.80
   6 -12  -4    8.50    1.70
   6 -12  -4    7.30    1.70
   5 -12  -4    7.00    4.20
   5 -12  -4    9.20    1.80
   5 -12  -4    8.20    1.70
   5 -12  -4    7.50    1.30
   4 -12  -4    3.90    1.20
   4 -12  -4    5.20    1.60
   4 -12  -4    3.80    1.50
   4 -12  -4    4.90    3.90
   3 -12  -4    8.00    3.90
   3 -12  -4    7.50    1.40
   3 -12  -4    5.10    1.60
   2 -12  -4    5.50    1.80
   2 -12  -4    4.80    1.40
   2 -12  -4    5.20    3.60
   1 -12  -4    0.60    1.20
   1 -12  -4    0.40    1.50
   1 -12  -4    4.00    3.60
   0 -12  -4    2.80    3.80
   0 -12  -4    0.00    1.30
  -1 -12  -4    2.40    1.40
  -1 -12  -4    6.90    3.90
  -2 -12  -4    2.40    1.30
  11 -13  -4   13.40    1.50
  10 -13  -4    1.60    1.00
 -10  13   4    0.80    1.20
   9 -13  -4   11.90    1.70
  -9  13   4    8.10    2.00
   8 -13  -4   29.90    2.10
   8 -13  -4   29.90    2.60
  -8  13   4   28.30    3.30
   7 -13  -4   71.39    3.90
   7 -13  -4   72.09    4.10
   6 -13  -4    7.10    1.70
   6 -13  -4    6.60    1.60
   6 -13  -4    3.50    3.50
   5 -13  -4    1.70    1.20
   5 -13  -4   -0.10    3.50
   5 -13  -4    1.10    1.60
   4 -13  -4    6.90    1.80
   4 -13  -4    6.80    1.60
   4 -13  -4    6.20    4.00
   3 -13  -4   54.29    3.90
   3 -13  -4   67.59    8.80
   2 -13  -4   24.90    2.80
   2 -13  -4   42.60    7.90
   1 -13  -4    2.90    1.40
   1 -13  -4    7.60    4.20
   0 -13  -4    4.10    1.40
   0 -13  -4    6.40    3.80
  -1 -13  -4    7.20    1.40
  10 -14  -4    0.80    1.10
   9 -14  -4    0.90    0.90
   8 -14  -4   29.00    2.30
  -8  14   4   33.40    2.80
   7 -14  -4   14.40    1.70
   7 -14  -4   16.00    1.80
   6 -14  -4    0.90    1.40
   6 -14  -4   -2.40    2.60
   6 -14  -4    0.00    1.00
   5 -14  -4   -2.20    3.20
   5 -14  -4    0.30    1.10
   5 -14  -4   -0.50    1.50
   4 -14  -4   22.90    2.50
   4 -14  -4   22.40    4.90
   4 -14  -4   27.90    3.20
   3 -14  -4    6.80    1.60
   3 -14  -4   11.80    4.20
   3 -14  -4    9.80    2.00
   2 -14  -4    9.90    2.10
   2 -14  -4    8.70    1.50
   2 -14  -4    9.70    3.90
   1 -14  -4    5.10    3.20
   1 -14  -4    2.20    1.10
   7 -15  -4    1.00    0.80
   7 -15  -4    0.10    0.90
   6 -15  -4    1.90    1.30
   6 -15  -4   -1.10    0.80
   6 -15  -4    1.30    2.30
   5 -15  -4    3.80    1.50
   5 -15  -4    2.00    0.90
   5 -15  -4    3.00    2.80
   4 -15  -4   14.80    1.90
   4 -15  -4   14.80    1.70
   4 -15  -4   13.00    3.50
   3 -15  -4    5.00    1.50
   3 -15  -4    5.90    3.10
  -2  15  -5    5.10    3.20
   2 -15   5    9.50    1.40
   2 -15   5    5.80    1.20
  -3  15  -5   -1.80    3.60
   3 -15   5    2.70    1.00
   3 -15   5    2.10    1.00
  -4  15  -5   -7.70    4.10
   4 -15   5    2.00    0.70
   4 -15   5    1.60    1.00
  -5  15  -5    3.40    4.80
   5 -15   5    9.00    1.40
  -6  15  -5   22.20    4.80
   7 -15   5   28.60    2.10
   8 -15   5    7.40    1.10
  -1 -14   5   -0.60    0.80
  -1 -14   5   -2.30    1.30
   0  14  -5    6.60    2.40
   0 -14   5    0.80    1.50
   0 -14   5    0.00    0.90
  -1  14  -5    2.50    3.30
   1 -14   5   -0.10    1.50
   1 -14   5    0.90    1.10
  -2  14  -5    2.20    4.30
   2 -14   5    1.40    1.30
   2 -14   5    0.00    1.10
  -3  14  -5    3.40    5.40
   3 -14   5    0.90    1.10
   3 -14   5    0.10    0.90
  -4  14  -5    8.70    6.20
   4 -14   5    3.20    1.00
   4 -14   5    4.10    1.30
  -5  14  -5    3.40    6.10
   5 -14   5    5.10    0.90
   5 -14   5    4.90    1.30
  -6  14  -5   -0.90    5.30
   6 -14   5    4.30    1.20
   7 -14   5    4.50    1.20
   8 -14   5   -0.70    0.90
   9 -14   5    0.30    0.80
  10 -14   5    8.00    1.10
  -2 -13   5   15.60    2.10
  -2 -13   5   14.50    1.80
  -1 -13   5   19.40    2.30
  -1 -13   5   22.00    2.30
   0  13  -5   15.30    4.10
   0 -13   5   15.20    2.00
   0 -13   5   16.20    2.20
  -1  13  -5   15.40    5.30
   1 -13   5   11.80    1.90
   1 -13   5   14.80    2.00
  -2  13  -5   61.39   11.60
   2 -13   5   31.10    2.90
   2 -13   5   30.80    2.70
  -3  13  -5   78.19   13.00
   3 -13   5   47.70    3.10
   3 -13   5   45.60    3.30
  -4  13  -5   87.49   13.40
   4 -13   5   50.89    3.50
   4 -13   5   56.99    3.30
  -5  13  -5   63.79    9.70
   5 -13   5   50.09    2.90
   5 -13   5   52.49    3.40
  -6  13  -5   61.99    8.60
   6 -13   5   52.89    3.50
   7 -13   5   25.00    2.30
   8 -13   5    4.90    1.30
   9 -13   5   11.90    1.60
 -10  13  -5    4.70    1.40
  10 -13   5    5.20    1.10
  11 -13   5    3.20    1.00
  -4 -12   5    1.60    1.20
  -4 -12   5    5.20    1.20
  -3 -12   5   11.50    1.70
  -3 -12   5    7.20    1.90
  -2 -12   5   -1.10    1.70
  -2 -12   5    0.10    1.20
   1  12  -5   -0.20    2.80
  -1 -12   5    1.50    1.30
  -1 -12   5    0.50    1.70
   0  12  -5    1.20    4.40
   0 -12   5    2.30    1.40
   0 -12   5    1.10    1.20
   0 -12   5    3.00    1.60
  -1  12  -5    8.00    6.10
   1 -12   5    7.60    1.70
   1 -12   5    4.60    1.50
  -2  12  -5   10.30    6.20
   2 -12   5    5.30    1.50
   2 -12   5    7.00    1.60
  -3  12  -5   13.80    6.40
   3 -12   5    6.20    1.50
   3 -12   5    7.50    1.60
  -4  12  -5   11.00    6.30
  -5  12  -5   46.90    8.30
   5 -12   5   37.30    2.50
   5 -12   5   35.80    2.80
  -6  12  -5   49.50    8.30
   6 -12   5   43.80    3.10
   7 -12   5   14.90    1.90
   8 -12   5    6.20    1.40
  -9  12  -5   13.60    2.30
   9 -12   5   11.20    1.60
 -10  12  -5    8.40    1.90
  10 -12   5    7.70    1.30
 -11  12  -5    7.40    1.70
  11 -12   5   11.10    1.30
  -5 -11   5    0.60    1.30
  -5 -11   5    4.50    1.10
  -4 -11   5    1.30    1.80
  -4 -11   5    4.30    1.40
  -4 -11   5    4.30    1.40
  -3 -11   5   17.50    2.40
  -3 -11   5   16.20    2.30
  -3 -11   5   19.20    2.40
  -2 -11   5    0.70    1.30
  -2 -11   5    1.70    1.20
  -2 -11   5    3.40    1.50
  -2 -11   5    2.20    1.80
   1  11  -5    1.00    4.10
  -1 -11   5    6.90    1.70
  -1 -11   5    7.50    1.90
  -1 -11   5    8.70    1.50
  -1 -11   5    8.40    1.90
   0  11  -5   -5.50    4.90
   0 -11   5    5.40    1.20
   0 -11   5    4.40    1.50
   0 -11   5    5.50    1.60
   0 -11   5    5.80    1.80
  -1  11  -5    5.10    6.10
   1 -11   5   21.20    2.50
   1 -11   5   29.60    2.70
   1 -11   5   24.70    2.10
   2 -11   5    0.00    1.10
   2 -11   5    0.80    1.10
  -3  11  -5   27.40    7.00
   3 -11   5   38.30    2.90
   3 -11   5   39.30    2.70
  -4  11  -5   28.90    6.80
   4 -11   5   40.30    2.80
   4 -11   5   40.40    2.70
  -5  11  -5   -0.30    5.30
   5 -11   5    3.80    1.00
   5 -11   5    2.50    1.10
  -6  11  -5   25.70    9.90
   6 -11   5   33.00    2.60
  -7  11  -5   17.80    2.60
   7 -11   5   15.90    1.90
  -8  11  -5    8.50    2.00
   8 -11   5    7.20    1.40
  -9  11  -5   -0.30    1.50
   9 -11   5    0.60    0.90
 -10  11  -5    6.00    1.90
  10 -11   5    6.80    1.30
 -11  11  -5    5.20    1.70
  11 -11   5    5.70    1.20
 -12  11  -5    4.80    1.50
  12 -11   5    5.90    0.90
  -6 -10   5    1.10    1.00
  -6 -10   5   -2.80    1.10
  -5 -10   5    0.40    1.20
  -5 -10   5    0.60    1.20
  -5 -10   5   -0.40    1.60
  -4 -10   5   19.60    2.50
  -4 -10   5   15.70    2.40
  -4 -10   5   23.60    2.80
  -3 -10   5    2.80    1.60
  -3 -10   5    5.40    1.40
  -3 -10   5    5.30    1.60
  -2 -10   5   53.99    4.00
  -2 -10   5   52.89    4.10
  -2 -10   5   57.59    3.30
  -1 -10   5    8.20    1.70
  -1 -10   5    5.90    1.80
  -1 -10   5    6.10    1.20
  -1 -10   5    4.60    1.60
   0 -10   5   55.19    3.90
   0 -10   5   51.99    3.50
   0 -10   5   54.29    3.70
   0 -10   5   56.59    3.10
   1 -10   5  138.89    6.30
   1 -10   5  144.19    5.90
   1 -10   5  144.49   10.10
   1 -10   5  142.79    6.60
   1 -10   5  135.89    6.80
   2 -10   5    1.60    1.10
   2 -10   5    1.30    0.80
   2 -10   5    1.40    2.30
   2 -10   5    2.20    1.00
   2 -10   5    0.30    1.00
   3 -10   5   17.30    1.90
   3 -10   5   16.80    3.60
   3 -10   5   17.30    1.90
   4 -10   5  108.39    4.90
   4 -10   5  105.49    5.10
  -5  10  -5   16.20    5.90
   5 -10   5   29.80    2.00
   5 -10   5   29.00    2.30
  -6  10  -5    7.40    1.40
   6 -10   5    1.30    0.90
  -7  10  -5   73.69    4.60
   7 -10   5   63.79    3.70
  -8  10  -5   13.40    2.50
   8 -10   5    9.10    1.50
  -9  10  -5   40.50    3.90
   9 -10   5   37.80    2.70
 -10  10  -5   40.80    3.80
  10 -10   5   40.80    2.70
 -11  10  -5   16.90    2.40
  11 -10   5   20.00    1.90
 -12  10  -5    8.00    1.70
  12 -10   5    8.40    1.10
  -7  -9   5    6.90    1.30
  -7  -9   5   16.10    1.80
  -6  -9   5   12.40    1.90
  -6  -9   5   11.10    2.10
  -6  -9   5    5.00    1.80
  -5  -9   5    9.30    2.10
  -5  -9   5   11.30    2.00
  -4  -9   5    0.70    1.60
  -4  -9   5    0.80    1.40
  -4  -9   5    3.00    1.30
  -3  -9   5    4.30    1.30
  -3  -9   5    2.30    1.50
  -3  -9   5    5.40    1.80
  -2  -9   5   39.70    2.60
  -2  -9   5   38.20    3.50
  -2  -9   5   31.50    3.10
   1   9  -5   43.70    2.90
  -1  -9   5   46.30    3.60
  -1  -9   5   46.20    2.70
  -1  -9   5   44.30    3.40
   0   9  -5    3.20    1.00
   0  -9   5    4.20    1.30
   0  -9   5    4.70    1.20
   0  -9   5    3.70    2.40
   0  -9   5    3.60    1.00
   1  -9   5    5.50    1.00
   1  -9   5    4.90    1.40
   2  -9   5    7.90    1.50
   2  -9   5   10.70    1.30
   3  -9   5   15.80    1.90
   4  -9   5   25.30    2.90
  -5   9  -5   74.89    3.50
  -6   9  -5    4.80    1.30
   6  -9   5    1.80    0.90
  -7   9  -5   20.30    2.60
   7  -9   5   18.10    1.80
  -8   9  -5   67.79    4.70
   8  -9   5   61.39    3.50
  -9   9  -5   12.50    2.50
   9  -9   5   11.90    1.60
 -10   9  -5    1.70    1.60
  10  -9   5    1.50    0.90
 -11   9  -5   24.40    3.20
  11  -9   5   25.50    2.10
 -12   9  -5    5.40    1.60
  12  -9   5    2.70    0.90
  -7  -8   5    5.10    1.70
  -7  -8   5    3.80    1.50
  -7  -8   5    2.50    1.50
  -6  -8   5    2.70    1.60
  -6  -8   5    4.20    1.80
  -5  -8   5   13.60    2.40
  -5  -8   5   15.00    1.90
  -5  -8   5   14.70    2.60
  -4  -8   5    8.30    1.90
  -4  -8   5   12.70    2.30
  -4  -8   5   13.40    1.70
  -3  -8   5    7.00    1.80
  -3  -8   5    8.00    2.00
  -3  -8   5    7.90    1.30
   2   8  -5   12.70    1.70
  -2  -8   5   19.30    1.80
  -2  -8   5   13.30    2.00
  -2  -8   5   16.30    2.30
   1   8  -5   42.10    2.60
  -1  -8   5   37.20    3.10
  -1  -8   5   45.20    2.40
   0   8  -5   49.90    2.70
   0   8  -5   30.60    5.10
   0  -8   5   53.99    2.60
   0  -8   5   48.70    2.90
  -1   8  -5   11.20    3.20
  -1   8  -5   20.70    1.60
   1  -8   5   21.70    1.60
   1  -8   5   28.90    3.10
   2  -8   5   42.60    2.20
  -3   8  -5   27.90    5.30
  -3   8  -5   40.00    2.40
  -4   8  -5  322.57   12.40
  -4   8  -5  301.87   15.70
  -5   8  -5   93.59    4.90
  -5   8  -5  113.69    7.80
  -6   8  -5    5.70    1.20
   6  -8   5    1.70    0.90
  -7   8  -5    3.00    1.40
  -7   8  -5    1.60    1.40
   7  -8   5    1.50    0.80
  -8   8  -5    2.00    1.60
  -8   8  -5    2.30    1.60
   8  -8   5    2.50    0.90
  -9   8  -5   27.40    3.40
  -9   8  -5   22.10    3.00
   9  -8   5   28.40    2.20
 -10   8  -5   15.70    2.50
 -10   8  -5   15.90    2.70
  10  -8   5   14.20    1.70
 -11   8  -5    8.10    2.10
  11  -8   5    8.80    1.30
 -12   8  -5   10.40    1.90
  12  -8   5    9.80    1.20
  -8  -7   5    1.40    1.30
  -8  -7   5    0.50    1.50
  -8  -7   5   -2.40    1.10
  -7  -7   5   12.00    2.40
  -7  -7   5   10.90    2.00
  -6  -7   5   10.10    2.10
  -6  -7   5    9.50    1.60
  -6  -7   5   12.00    2.50
  -5  -7   5    2.10    1.50
  -5  -7   5    2.60    1.20
  -5  -7   5    3.30    1.80
  -4  -7   5    0.60    1.20
  -4  -7   5    1.70    1.60
  -4  -7   5    1.30    1.00
   3   7  -5    0.10    0.80
  -3  -7   5    0.20    1.20
  -3  -7   5    1.90    0.90
  -3  -7   5    1.10    1.20
   2   7  -5   19.50    1.80
  -2  -7   5   19.00    1.70
  -2  -7   5   22.70    2.50
  -2  -7   5   20.40    2.00
   1   7  -5    1.70    1.80
   1   7  -5    1.00    0.70
  -1  -7   5    0.70    0.60
  -1  -7   5    0.90    0.70
   0   7  -5    0.10    0.50
   0   7  -5   -0.30    1.60
   0  -7   5    0.40    0.60
   0  -7   5   -0.10    0.50
  -1   7  -5    0.00    1.70
  -1   7  -5    0.00    0.20
   1  -7   5    0.40    0.50
   1  -7   5    0.20    0.50
  -2   7  -5    4.40    2.30
  -2   7  -5    4.70    0.80
   2  -7   5    6.50    0.80
  -3   7  -5    4.60    2.50
  -3   7  -5    7.60    1.10
  -4   7  -5    1.10    0.70
  -4   7  -5    4.00    2.30
  -5   7  -5   20.40    2.00
  -5   7  -5   29.70    4.00
  -6   7  -5    4.00    1.10
  -7   7  -5    1.40    1.30
  -7   7  -5    0.70    1.10
  -8   7  -5    9.60    2.10
  -8   7  -5    8.90    1.90
   8  -7   5    9.10    1.30
  -9   7  -5   19.30    2.80
  -9   7  -5   21.20    2.80
   9  -7   5   16.60    1.80
 -10   7  -5    7.70    2.20
 -10   7  -5    6.10    2.00
  10  -7   5    7.30    1.30
 -11   7  -5    6.90    2.00
 -11   7  -5    9.50    1.60
 -11   7  -5    6.20    2.00
  11  -7   5    7.20    1.30
 -12   7  -5    0.40    1.30
 -12   7  -5    2.50    1.10
 -12   7  -5    1.60    2.50
  12  -7   5    1.90    0.80
  -9  -6   5    0.20    1.20
  -9  -6   5   -0.30    1.00
  -9  -6   5   -0.70    0.90
  -8  -6   5    0.30    1.60
  -8  -6   5   -2.10    1.30
  -8  -6   5    1.10    1.40
  -7  -6   5   56.89    4.30
  -7  -6   5   63.49    4.80
  -7  -6   5   59.59    3.40
  -6  -6   5    0.80    1.40
  -6  -6   5    2.00    1.20
  -6  -6   5   -0.20    1.80
  -5  -6   5   22.90    2.10
  -5  -6   5   22.20    2.90
  -5  -6   5   21.80    2.60
   4   6  -5    1.30    0.90
  -4  -6   5    0.90    0.90
  -4  -6   5    1.50    1.40
  -4  -6   5    2.30    1.20
   3   6  -5   72.69    3.70
  -3  -6   5   74.29    3.40
  -3  -6   5   69.19    4.20
  -3  -6   5   69.99    3.70
   2   6  -5  675.23   29.30
   2   6  -5  769.82   27.20
  -2  -6   5  729.73   27.30
  -2  -6   5  782.12   26.80
   1   6  -5  315.97   12.90
  -1  -6   5  369.56   13.20
  -1  -6   5  344.47   12.60
   0   6  -5    2.20    0.60
   0   6  -5   -0.20    1.30
   0  -6   5    1.00    0.50
   0  -6   5    2.20    0.70
  -1   6  -5    0.40    0.40
  -1   6  -5    1.00    1.50
  -1   6  -5    0.90    0.50
   1  -6   5    1.70    0.50
   1  -6   5    1.00    0.50
  -2   6  -5  424.16   20.60
  -2   6  -5  568.94   18.60
  -3   6  -5  623.44   26.50
  -3   6  -5  691.03   24.30
  -4   6  -5   12.20    1.40
  -4   6  -5   15.30    2.80
  -5   6  -5  107.49    6.10
  -5   6  -5   94.69    4.10
  -5   6  -5   93.19    4.70
  -5   6  -5   95.99    4.20
  -6   6  -5   80.99    3.70
  -6   6  -5   83.29    3.80
  -6   6  -5   78.69    4.30
  -7   6  -5  147.89    6.60
  -7   6  -5  158.28    7.30
  -7   6  -5  159.38    7.50
  -7   6  -5  161.48    6.50
  -8   6  -5  141.49    6.70
  -8   6  -5  144.09    7.30
  -8   6  -5  153.08    6.30
  -8   6  -5  144.09    7.20
  -8   6  -5  151.48    6.50
   8  -6   5  138.59    6.20
  -9   6  -5    0.70    1.50
  -9   6  -5    1.80    1.10
  -9   6  -5    0.70    1.60
  -9   6  -5    1.70    1.20
   9  -6   5    1.50    0.90
 -10   6  -5   32.60    2.80
 -10   6  -5   31.30    3.70
 -10   6  -5   28.80    2.50
 -10   6  -5   29.50    3.60
  10  -6   5   31.00    2.40
 -11   6  -5   58.49    3.50
 -11   6  -5   57.69    4.50
 -11   6  -5   57.29    4.50
  11  -6   5   56.89    3.20
 -12   6  -5   96.99    4.60
 -12   6  -5   91.59    5.30
  12  -6   5   92.29    4.30
 -13   6  -5   71.99    3.50
 -10  -5   5    2.10    1.10
  -9  -5   5   10.10    1.60
  -9  -5   5   14.90    2.10
  -9  -5   5   10.70    2.20
  -8  -5   5   22.20    2.90
  -8  -5   5   19.30    1.90
  -8  -5   5   18.80    2.50
  -8  -5   5   26.10    3.30
  -7  -5   5    5.00    1.90
  -7  -5   5    2.60    2.10
  -7  -5   5    6.30    1.40
  -6  -5   5    0.30    0.90
  -6  -5   5    0.80    1.30
  -6  -5   5    1.40    1.70
   5   5  -5    1.70    1.00
  -5  -5   5    0.70    1.40
  -5  -5   5    1.50    1.30
  -5  -5   5    2.10    0.90
   4   5  -5    5.10    1.10
  -4  -5   5    4.60    1.60
  -4  -5   5    3.30    0.90
  -4  -5   5    6.60    1.00
   3   5  -5   51.29    2.80
  -3  -5   5   50.99    2.50
  -3  -5   5   41.50    2.70
   2   5  -5   14.60    2.40
   2   5  -5   15.50    1.30
  -2  -5   5   15.00    1.20
  -2  -5   5   14.90    1.50
   1   5  -5   70.79    3.10
   1   5  -5   62.29    4.70
  -1  -5   5   66.99    3.20
  -1  -5   5   67.59    2.90
   0   5  -5   10.40    0.90
   0   5  -5    6.70    1.80
   0  -5   5    9.40    0.90
   0  -5   5   10.40    1.10
  -1   5  -5   42.50    1.90
  -1   5  -5   30.00    3.50
  -1   5  -5   42.10    2.10
   1  -5   5   48.40    2.20
  -2   5  -5   28.20    1.70
  -2   5  -5   30.80    1.80
  -2   5  -5   25.10    3.10
   2  -5   5   32.20    1.60
   2  -5   5   30.10    1.70
  -3   5  -5   60.69    4.40
  -3   5  -5   57.19    2.80
  -3   5  -5   55.69    2.80
  -3   5  -5   53.09    2.50
   3  -5   5   56.89    2.60
  -4   5  -5   19.10    1.30
  -4   5  -5   21.80    2.70
  -4   5  -5   19.30    1.30
  -4   5  -5   17.90    1.50
  -4   5  -5   17.20    1.60
   4  -5   5   17.50    1.30
  -5   5  -5    2.60    0.90
  -5   5  -5    3.90    0.70
  -5   5  -5    4.40    2.20
  -5   5  -5    3.30    0.70
  -5   5  -5    2.60    0.80
  -6   5  -5    6.00    1.00
  -6   5  -5    5.00    1.20
  -6   5  -5    6.10    0.90
  -6   5  -5    4.40    1.00
  -7   5  -5   13.80    1.60
  -7   5  -5   14.00    2.00
  -7   5  -5   15.00    1.70
  -7   5  -5   18.60    1.60
  -7   5  -5   18.90    2.50
  -8   5  -5   78.29    4.00
  -8   5  -5   80.19    3.80
  -8   5  -5   80.09    4.10
  -8   5  -5   73.39    4.70
  -8   5  -5   72.09    4.80
   8  -5   5   74.59    3.80
  -9   5  -5    8.90    1.60
  -9   5  -5   11.50    2.10
  -9   5  -5    9.80    2.30
  -9   5  -5   11.70    1.60
   9  -5   5    8.50    1.40
 -10   5  -5   48.90    4.20
 -10   5  -5   48.60    3.30
 -10   5  -5   53.99    4.40
 -10   5  -5   46.60    3.10
  10  -5   5   46.90    2.90
 -11   5  -5    1.70    1.30
 -11   5  -5    2.70    1.90
 -11   5  -5    3.40    1.20
  11  -5   5    4.20    1.10
 -12   5  -5   14.70    1.80
 -12   5  -5   15.50    2.40
  12  -5   5   18.60    1.70
 -13   5  -5    9.60    1.20
 -10  -4   5    2.00    1.50
 -10  -4   5    4.20    1.40
  -9  -4   5    1.50    1.50
  -9  -4   5    3.50    2.00
  -9  -4   5    3.20    1.50
  -8  -4   5    3.80    1.20
  -8  -4   5    2.40    1.70
  -8  -4   5    4.80    2.20
  -7  -4   5  117.39    6.80
  -7  -4   5  121.89    6.50
  -7  -4   5  125.89    5.60
   6   4  -5   47.10    4.00
  -6  -4   5   43.90    2.80
  -6  -4   5   44.40    3.90
  -6  -4   5   45.60    3.60
   5   4  -5    7.30    1.30
  -5  -4   5    6.20    1.20
  -5  -4   5    6.40    1.10
  -5  -4   5    6.40    1.70
   4   4  -5    3.30    0.90
  -4  -4   5    2.40    0.70
  -4  -4   5    2.80    0.80
   3   4  -5  220.58    8.50
  -3  -4   5  211.08    8.20
  -3  -4   5  215.28    8.60
   2   4  -5  293.47   11.30
   2   4  -5  305.87   12.70
  -2  -4   5  322.17   11.60
  -2  -4   5  288.17   11.10
   1   4  -5  297.07   11.30
   1   4  -5  306.07   12.90
  -1  -4   5  311.27   11.50
  -1  -4   5  298.27   11.10
   0   4  -5   35.80    1.70
   0   4  -5   39.00    3.20
   0   4  -5   28.80    1.50
   0  -4   5   37.30    1.90
   0  -4   5   31.00    1.50
  -1   4  -5    1.70    1.10
  -1   4  -5    1.40    0.50
  -1   4  -5    1.10    0.50
  -1   4  -5    1.50    0.30
   1  -4   5    2.60    0.50
   1  -4   5    2.10    0.30
   1  -4   5    3.00    0.60
  -2   4  -5  521.15   19.90
  -2   4  -5  537.45   19.60
  -2   4  -5  563.24   19.90
  -2   4  -5  581.94   21.40
   2  -4   5  522.15   19.80
   2  -4   5  539.25   19.70
  -3   4  -5   92.09    3.90
  -3   4  -5   92.69    3.80
  -3   4  -5   97.69    5.20
  -3   4  -5   99.19    4.20
  -3   4  -5   95.79    4.10
   3  -4   5   95.29    3.90
  -4   4  -5  400.06   14.70
  -4   4  -5  379.36   14.20
  -4   4  -5  376.16   14.50
  -4   4  -5  400.26   14.30
   4  -4   5  381.16   14.30
  -5   4  -5   52.19    2.40
  -5   4  -5   48.70    2.90
  -5   4  -5   49.30    2.60
  -5   4  -5   50.49    2.50
   5  -4   5   51.29    2.40
  -6   4  -5   23.80    1.80
  -6   4  -5   24.10    1.60
  -6   4  -5   23.20    1.70
  -6   4  -5   22.40    2.10
  -7   4  -5   72.69    4.30
  -7   4  -5   74.59    3.80
  -7   4  -5   78.19    4.70
  -7   4  -5   73.69    3.80
  -7   4  -5   78.89    4.60
  -7   4  -5   82.59    3.60
  -8   4  -5  156.58    6.80
  -8   4  -5  144.89    7.30
  -8   4  -5  162.18    6.60
  -8   4  -5  157.48    6.90
  -8   4  -5  160.58    7.80
  -8   4  -5  153.48    7.60
  -9   4  -5   32.50    2.50
  -9   4  -5   27.90    2.70
  -9   4  -5   27.60    3.40
  -9   4  -5   26.40    3.10
  -9   4  -5   31.00    3.60
 -10   4  -5   11.00    2.60
 -10   4  -5   11.80    1.60
 -10   4  -5    9.00    1.80
  10  -4   5   10.30    1.50
 -11   4  -5    2.70    1.20
 -11   4  -5    0.40    1.30
 -11   4  -5    2.20    1.90
  11  -4   5    2.40    1.00
 -12   4  -5   -1.40    1.40
 -12   4  -5    1.30    1.10
  12  -4   5    0.30    0.70
 -11  -3   5    1.30    1.10
 -10  -3   5   -1.50    1.10
 -10  -3   5   -0.60    1.40
 -10  -3   5   -1.50    1.30
  -9  -3   5    3.50    1.50
  -9  -3   5    6.40    2.20
  -9  -3   5    4.70    1.90
  -9  -3   5    4.30    1.20
  -8  -3   5    1.90    1.80
  -8  -3   5    4.50    1.40
  -8  -3   5    2.30    1.10
  -8  -3   5    3.40    1.70
  -7  -3   5    0.40    1.00
  -7  -3   5   -1.20    1.40
  -7  -3   5    0.20    1.30
  -7  -3   5    2.10    1.50
   6   3  -5   27.30    2.20
  -6  -3   5   25.70    2.90
  -6  -3   5   27.00    2.10
   5   3  -5   -0.10    0.60
  -5  -3   5   -0.40    0.50
  -5  -3   5    1.80    0.70
   4   3  -5    8.50    1.10
  -4  -3   5    7.00    1.10
  -4  -3   5   10.50    1.00
   3   3  -5    4.30    0.80
   3   3  -5    3.10    1.00
  -3  -3   5    4.00    0.70
  -3  -3   5    4.90    0.70
  -3  -3   5    4.70    0.80
   2   3  -5    8.30    1.50
   2   3  -5    8.90    0.90
  -2  -3   5   11.70    1.10
  -2  -3   5    9.80    0.80
  -2  -3   5   10.30    0.90
   1   3  -5   43.00    2.80
   1   3  -5   35.60    1.90
   1   3  -5   38.50    1.70
   1   3  -5   36.20    1.80
  -1  -3   5   36.90    1.70
  -1  -3   5   39.80    1.90
  -1  -3   5   41.80    2.10
   0   3  -5    0.80    0.40
   0   3  -5    0.60    0.30
   0   3  -5    0.40    0.30
   0   3  -5    0.60    0.80
   0  -3   5    0.70    0.40
   0  -3   5    0.10    0.30
   0  -3   5    0.60    0.30
  -1   3  -5   39.30    2.00
  -1   3  -5   42.10    2.00
  -1   3  -5   40.50    1.70
  -1   3  -5   44.20    2.90
   1  -3   5   43.20    1.90
   1  -3   5   38.00    1.90
   1  -3   5   40.20    1.70
  -2   3  -5  130.89    5.10
  -2   3  -5  126.79    5.20
  -2   3  -5  126.79    4.90
  -2   3  -5  135.29    6.10
   2  -3   5  123.49    4.90
   2  -3   5  123.69    5.00
  -3   3  -5  609.24   22.80
  -3   3  -5  626.74   21.70
  -3   3  -5  581.94   21.60
   3  -3   5  566.44   21.50
  -4   3  -5  110.59    4.50
  -4   3  -5  111.69    4.80
  -4   3  -5  105.49    4.30
  -4   3  -5  108.79    4.50
  -4   3  -5  107.49    5.40
   4  -3   5  111.69    4.40
  -5   3  -5   88.69    4.00
  -5   3  -5   95.99    3.80
  -5   3  -5   89.49    4.30
  -5   3  -5   87.99    4.00
   5  -3   5   91.79    3.80
  -6   3  -5    1.50    0.70
  -6   3  -5    1.40    0.80
  -6   3  -5    0.90    0.80
  -6   3  -5    2.90    0.70
  -7   3  -5   49.60    2.80
  -7   3  -5   49.80    2.60
  -7   3  -5   48.60    3.20
  -7   3  -5   46.10    2.90
  -7   3  -5   47.50    3.60
  -8   3  -5  109.09    5.00
  -8   3  -5   99.19    5.70
  -8   3  -5   99.79    5.90
  -8   3  -5  101.89    5.60
  -8   3  -5  110.19    4.70
  -8   3  -5   99.19    5.10
  -9   3  -5   20.90    2.70
  -9   3  -5   18.90    3.00
  -9   3  -5   23.20    2.30
 -10   3  -5   18.30    2.60
 -10   3  -5   15.60    2.10
 -10   3  -5   17.60    3.10
 -10   3  -5   20.30    2.00
 -11   3  -5   18.70    3.00
 -11   3  -5   20.00    2.30
  11  -3   5   15.10    1.80
 -12   3  -5   16.50    2.50
 -12   3  -5   18.30    2.00
  12  -3   5   19.00    1.60
 -11  -2   5    2.40    1.40
 -11  -2   5    0.90    1.20
 -10  -2   5    0.40    1.60
 -10  -2   5    0.80    1.60
 -10  -2   5   -0.50    1.10
  -9  -2   5   14.90    2.60
  -9  -2   5   15.20    2.80
  -9  -2   5   14.60    1.80
  -9  -2   5   16.20    2.00
  -9  -2   5   14.10    2.00
  -8  -2   5   41.90    2.90
  -8  -2   5   46.60    3.20
  -8  -2   5   47.60    3.90
  -8  -2   5   45.60    4.00
   7   2  -5    0.80    0.80
  -7  -2   5    2.20    1.40
  -7  -2   5    0.30    1.00
  -7  -2   5    2.60    1.00
  -7  -2   5    3.20    1.50
   6   2  -5    0.30    0.80
  -6  -2   5    1.20    1.10
  -6  -2   5    1.00    0.70
  -6  -2   5   -0.10    0.70
   5   2  -5    2.80    0.80
  -5  -2   5    2.10    0.70
  -5  -2   5    2.10    0.80
  -5  -2   5    1.60    0.70
   4   2  -5    2.10    0.60
  -4  -2   5    2.40    0.70
  -4  -2   5    2.30    0.70
  -4  -2   5    2.10    0.60
   3   2  -5   68.79    3.10
   3   2  -5   63.99    3.60
  -3  -2   5   65.89    2.90
  -3  -2   5   79.09    3.30
   2   2  -5   91.19    4.00
   2   2  -5  101.09    4.00
   2   2  -5   97.89    4.70
   1   2  -5   86.69    3.40
   1   2  -5   80.69    3.60
   1   2  -5   79.99    3.40
   1   2  -5   86.39    4.30
  -1  -2   5   89.29    3.50
  -1  -2   5   96.69    3.70
   0   2  -5   17.10    1.10
   0   2  -5   18.10    1.70
   0   2  -5   17.40    1.10
   0   2  -5   17.20    0.90
   0  -2   5   18.30    1.00
   0  -2   5   16.70    1.10
   0  -2   5   18.00    1.00
  -1   2  -5  564.04   19.30
  -1   2  -5  536.05   19.20
  -1   2  -5  505.45   19.10
  -1   2  -5  533.85   20.10
  -1   2  -5  518.75   18.80
   1  -2   5  533.55   19.10
   1  -2   5  506.45   19.10
  -2   2  -5   63.49    3.00
  -2   2  -5   65.69    3.70
  -2   2  -5   71.59    2.90
  -2   2  -5   67.39    2.80
   2  -2   5   68.79    2.70
  -3   2  -5    0.60    0.60
  -3   2  -5    1.40    0.50
  -3   2  -5    0.70    0.40
  -3   2  -5    1.10    0.60
   3  -2   5    1.00    0.30
  -4   2  -5   82.29    3.50
  -4   2  -5   83.59    3.60
  -4   2  -5   81.99    3.20
  -4   2  -5   79.99    4.20
  -4   2  -5   84.49    3.90
   4  -2   5   81.29    3.30
  -5   2  -5   23.20    1.50
  -5   2  -5   20.90    1.90
  -5   2  -5   24.80    1.70
  -5   2  -5   23.40    1.30
   5  -2   5   24.00    1.40
  -6   2  -5   39.40    2.70
  -6   2  -5   42.10    2.30
  -6   2  -5   40.10    2.00
  -6   2  -5   42.20    2.50
  -7   2  -5   11.20    1.20
  -7   2  -5   10.40    1.50
  -7   2  -5   10.50    2.00
  -7   2  -5   10.70    1.50
  -8   2  -5    1.80    0.90
  -8   2  -5   -0.50    1.00
  -8   2  -5    0.60    1.10
  -8   2  -5    0.20    1.30
  -8   2  -5    0.40    1.50
  -9   2  -5    6.10    1.30
  -9   2  -5    7.50    2.30
  -9   2  -5    7.60    2.00
  -9   2  -5    7.00    1.60
 -10   2  -5   -1.90    1.80
 -10   2  -5    0.20    1.50
 -10   2  -5   -0.50    1.30
 -11   2  -5    1.30    1.60
 -11   2  -5    0.70    1.40
 -11   2  -5   -0.10    1.70
 -12   2  -5    1.50    1.00
 -12   2  -5   -0.20    1.40
 -11  -1   5   -0.10    1.10
 -11  -1   5    0.00    1.30
 -11  -1   5    0.50    1.40
 -10  -1   5    2.40    1.50
 -10  -1   5    3.00    1.40
 -10  -1   5    2.70    1.80
 -10  -1   5    4.00    1.80
  -9  -1   5    2.40    1.20
  -9  -1   5    3.40    1.90
  -9  -1   5    2.40    1.30
  -9  -1   5    3.00    1.40
  -9  -1   5    1.90    1.60
  -8  -1   5   29.70    3.20
  -8  -1   5   25.60    3.10
  -8  -1   5   26.40    2.30
  -8  -1   5   29.60    2.90
  -8  -1   5   26.70    2.60
   7   1  -5    7.20    1.20
  -7  -1   5    8.70    1.90
  -7  -1   5    5.10    1.20
  -7  -1   5    7.80    1.50
  -7  -1   5    6.60    1.10
   6   1  -5    5.10    1.00
  -6  -1   5    4.60    1.10
  -6  -1   5    5.40    1.00
  -6  -1   5    6.20    1.00
   5   1  -5    2.30    0.70
  -5  -1   5    0.90    0.60
  -5  -1   5    1.00    0.60
  -5  -1   5    1.20    0.60
   4   1  -5  529.65   18.80
  -4  -1   5  501.15   18.60
  -4  -1   5  481.95   18.90
  -4  -1   5  529.05   18.70
   3   1  -5  917.81   32.30
   3   1  -5  833.42   32.80
  -3  -1   5  892.71   32.20
  -3  -1   5  944.61   32.50
   2   1  -5  377.46   14.00
   2   1  -5  363.36   14.70
  -2  -1   5  419.56   14.20
  -2  -1   5  382.36   14.00
  -2  -1   5  366.36   13.90
  -2  -1   5  395.16   14.00
   1   1  -5  242.28    9.00
   1   1  -5  246.18    9.80
   1   1  -5  253.77    9.00
   1   1  -5  234.78    8.90
  -1  -1   5  231.58    8.90
  -1  -1   5  236.28    9.00
  -1  -1   5  248.98    9.00
   0   1  -5  304.17   11.70
   0   1  -5  292.57   10.70
   0   1  -5  296.67   11.00
   0   1  -5  302.07   10.90
   0  -1   5  294.17   10.80
   0  -1   5  282.97   10.90
   0  -1   5  302.97   10.80
  -1   1  -5    1.80    0.70
  -1   1  -5    1.20    0.40
  -1   1  -5    2.40    0.60
  -1   1  -5    1.50    0.40
  -1   1  -5    2.10    0.40
  -1   1  -5    1.70    0.20
   1  -1   5    3.20    0.40
  -2   1  -5    7.40    0.90
  -2   1  -5    5.90    0.60
  -2   1  -5    7.50    1.20
  -2   1  -5    6.30    0.70
  -2   1  -5    6.20    0.70
   2  -1   5    7.30    0.60
  -3   1  -5  267.17   10.20
  -3   1  -5  262.37    9.70
  -3   1  -5  261.37   10.60
  -3   1  -5  266.77    9.90
   3  -1   5  261.77    9.60
  -4   1  -5   90.09    3.80
  -4   1  -5   83.59    4.30
  -4   1  -5   88.49    3.60
  -4   1  -5   84.89    4.00
   4  -1   5   87.19    3.40
  -5   1  -5   24.20    1.20
  -5   1  -5   25.20    2.00
  -5   1  -5   21.30    1.60
  -5   1  -5   24.10    1.50
   5  -1   5   23.90    1.30
  -6   1  -5  256.17   10.60
  -6   1  -5  272.97   10.30
  -6   1  -5  247.58    9.90
  -6   1  -5  267.87    9.70
  -7   1  -5  153.58    6.00
  -7   1  -5  147.39    7.30
  -7   1  -5  151.98    6.70
  -8   1  -5   13.80    1.50
  -8   1  -5   13.50    2.50
  -8   1  -5   10.30    1.70
  -8   1  -5   16.10    2.50
  -9   1  -5    2.50    1.10
  -9   1  -5    2.50    1.70
  -9   1  -5    2.10    1.90
  -9   1  -5   -1.10    1.20
 -10   1  -5    3.50    2.10
 -10   1  -5    1.90    1.10
 -10   1  -5    1.70    1.50
 -10   1  -5    1.10    1.60
 -11   1  -5    1.70    1.90
 -11   1  -5    1.70    1.30
 -11   1  -5    4.90    1.60
 -12   1  -5   -0.10    0.80
 -12   1  -5   -0.50    1.20
 -12   0   5    7.60    1.30
 -12   0   5    7.80    1.60
 -11   0   5    0.10    1.30
 -11   0   5   -1.20    1.30
 -10   0   5   25.90    3.30
 -10   0   5   21.40    2.90
 -10   0   5   25.90    2.60
  -9   0   5   42.20    3.20
  -9   0   5   34.70    3.00
  -9   0   5   37.40    2.80
  -9   0   5   31.90    3.60
  -9   0   5   33.80    3.70
   8   0  -5    1.40    1.20
  -8   0   5    1.20    1.10
  -8   0   5   -0.10    1.00
  -8   0   5    1.10    1.40
  -8   0   5    4.30    1.50
  -8   0   5    1.70    0.90
  -8   0   5    3.50    1.20
   7   0  -5    1.10    0.70
  -7   0   5   -1.10    0.70
  -7   0   5   -0.40    0.70
   6   0  -5  104.39    4.70
  -6   0   5  100.19    4.40
  -6   0   5  105.79    4.70
  -6   0   5  106.29    4.90
   5   0  -5  133.69    5.50
  -5   0   5  132.09    5.30
  -5   0   5  130.89    5.50
  -5   0   5  132.59    5.70
   4   0  -5   51.59    2.40
  -4   0   5   48.30    2.40
  -4   0   5   47.40    2.30
   3   0  -5  115.39    5.00
   3   0  -5  114.99    4.60
   3   0  -5  110.79    4.50
  -3   0   5  111.59    4.50
  -3   0   5  111.29    4.70
  -3   0   5  111.39    4.50
  -3   0   5  113.29    4.40
   2   0  -5    4.50    0.60
   2   0  -5    5.40    1.00
   2   0  -5    6.80    0.70
  -2   0   5    6.50    0.70
  -2   0   5    6.00    0.70
  -2   0   5    6.90    0.70
  -2   0   5    7.10    0.70
   1   0  -5   21.30    1.20
   1   0  -5   20.60    1.20
   1   0  -5   20.10    1.70
   1   0  -5   20.40    1.10
  -1   0   5   20.50    1.20
  -1   0   5   20.20    1.10
  -1   0   5   22.20    1.10
   0   0  -5    8.60    0.60
   0   0  -5    7.70    0.70
   0   0  -5    8.20    1.20
   0   0  -5    8.40    0.90
   0   0  -5    9.80    0.70
   0   0   5    9.70    0.60
   0   0   5    9.40    0.70
  -1   0  -5  392.66   14.10
  -1   0  -5  370.06   14.10
  -1   0  -5  397.56   14.30
  -1   0  -5  386.36   14.00
  -1   0  -5  386.36   15.00
  -1   0  -5  395.06   14.40
   1   0   5  401.06   14.00
  -2   0  -5  120.29    5.40
  -2   0  -5  124.29    4.90
  -2   0  -5  124.49    4.70
  -2   0  -5  119.49    4.40
  -2   0  -5  111.59    4.50
  -2   0  -5  111.89    4.40
  -3   0  -5    0.40    0.50
  -3   0  -5    0.00    0.50
  -3   0  -5    0.20    0.30
  -3   0  -5    0.60    0.50
  -4   0  -5    5.20    0.60
  -4   0  -5    4.00    0.80
  -4   0  -5    4.90    0.80
  -5   0  -5   66.29    3.20
  -5   0  -5   66.29    2.90
  -5   0  -5   58.09    3.40
   5   0   5   65.19    2.70
  -6   0  -5    5.20    1.10
  -6   0  -5    5.60    0.90
  -6   0  -5    4.90    0.70
  -7   0  -5   -0.30    0.90
  -7   0  -5   -0.30    1.10
  -7   0  -5    1.50    1.00
  -7   0  -5   -0.50    0.60
  -8   0  -5   15.30    2.40
  -8   0  -5   15.20    1.50
  -8   0  -5   12.80    2.40
  -8   0  -5   13.30    1.90
  -9   0  -5    1.10    1.00
  -9   0  -5    0.80    1.20
  -9   0  -5    0.10    1.80
  -9   0  -5    0.50    1.60
 -10   0  -5    6.20    2.30
 -10   0  -5    6.50    2.00
 -10   0  -5    3.90    1.50
 -10   0  -5    7.10    1.30
 -11   0  -5   -2.80    1.40
 -11   0  -5    1.00    1.10
 -12   1   5   -0.30    1.00
 -11   1   5    2.10    1.40
 -11   1   5    3.20    1.60
 -10   1   5   45.30    3.30
 -10   1   5   38.20    3.80
  -9   1   5    1.20    1.20
  -9   1   5    0.60    1.20
  -9   1   5    1.90    1.60
   8  -1  -5   88.29    4.40
  -8   1   5   94.09    5.20
  -8   1   5   86.79    4.70
  -8   1   5   86.99    4.60
  -8   1   5   96.19    4.40
  -8   1   5   89.59    4.60
   7  -1  -5   73.39    3.70
  -7   1   5   73.09    3.80
  -7   1   5   72.79    3.50
   6  -1  -5  250.87    9.90
  -6   1   5  248.18    9.70
  -6   1   5  248.38   10.40
  -6   1   5  270.67   10.00
   5  -1  -5  188.08    7.30
  -5   1   5  188.58    7.20
  -5   1   5  182.68    7.00
  -5   1   5  167.78    7.40
   4  -1  -5 1092.19   40.70
   4  -1  -5 1195.68   40.40
  -4   1   5 1104.29   40.50
  -4   1   5 1092.69   40.30
   3  -1  -5   32.20    2.00
   3  -1  -5   29.90    1.60
   3  -1  -5   28.60    1.60
  -3   1   5   28.90    1.70
  -3   1   5   29.10    1.50
  -3   1   5   30.10    1.60
  -3   1   5   32.70    1.60
   2  -1  -5   29.60    2.00
   2  -1  -5   30.30    1.50
   2  -1  -5   29.10    1.50
  -2   1   5   31.30    1.50
  -2   1   5   26.10    1.50
  -2   1   5   28.10    1.50
  -2   1   5   28.80    1.40
   1  -1  -5  104.29    3.90
   1  -1  -5   94.19    3.90
   1  -1  -5  101.59    3.90
   1  -1  -5   92.39    4.60
  -1   1   5  100.39    4.10
  -1   1   5  105.09    4.00
  -1   1   5  100.49    3.90
  -1   1   5  100.79    3.80
   0  -1  -5  330.97   11.80
   0  -1  -5  312.07   11.80
   0  -1  -5  329.87   12.70
   0  -1  -5  337.37   12.10
   0  -1  -5  303.17   11.80
   0   1   5  330.07   11.70
   0   1   5  331.17   11.90
  -1  -1  -5   18.60    1.70
  -1  -1  -5   16.70    1.00
  -1  -1  -5   19.40    1.30
  -1  -1  -5   17.50    0.90
  -1  -1  -5   16.90    1.10
  -1  -1  -5   17.10    0.90
  -2  -1  -5  610.94   22.60
  -2  -1  -5  616.44   22.40
  -2  -1  -5  640.34   23.60
  -2  -1  -5  628.04   22.40
  -2  -1  -5  639.64   22.80
  -2  -1  -5  633.84   23.00
  -3  -1  -5   69.09    3.40
  -3  -1  -5   72.69    2.70
  -3  -1  -5   73.79    3.80
  -3  -1  -5   67.39    3.10
  -3  -1  -5   66.29    2.70
   3   1   5   71.89    2.90
  -4  -1  -5    2.20    0.40
  -4  -1  -5    3.80    0.80
  -4  -1  -5    1.90    0.70
  -5  -1  -5   41.80    2.00
  -5  -1  -5   42.60    2.40
  -6  -1  -5   57.49    2.70
  -6  -1  -5   57.19    3.80
  -6  -1  -5   58.69    3.20
  -7  -1  -5   17.90    2.00
  -7  -1  -5   15.50    1.50
  -7  -1  -5   18.50    2.00
  -7  -1  -5   14.10    2.40
  -7  -1  -5   19.60    2.60
  -8  -1  -5   -2.80    1.30
  -8  -1  -5   -0.30    1.50
  -8  -1  -5    2.30    1.30
  -8  -1  -5    0.30    0.90
  -9  -1  -5   40.80    2.70
  -9  -1  -5   45.20    4.40
  -9  -1  -5   44.20    3.90
  -9  -1  -5   47.90    3.30
 -10  -1  -5   37.00    3.90
 -10  -1  -5   38.70    3.50
 -10  -1  -5   35.90    2.90
 -11  -1  -5   -0.20    1.40
 -11  -1  -5   -0.30    1.00
  12  -2  -5   -0.50    0.80
 -12   2   5    1.10    1.20
 -11   2   5    2.80    1.70
 -11   2   5    2.50    1.50
 -10   2   5   25.30    3.10
 -10   2   5   23.80    2.50
  -9   2   5   66.69    4.50
  -9   2   5   62.79    3.90
   8  -2  -5    0.70    0.70
  -8   2   5    0.20    1.10
  -8   2   5    0.20    0.80
  -8   2   5    0.40    1.00
   7  -2  -5   -0.80    0.60
  -7   2   5    0.40    0.80
  -7   2   5    0.70    0.70
   6  -2  -5   50.19    2.70
  -6   2   5   52.49    2.80
  -6   2   5   47.50    2.50
   5  -2  -5   19.00    1.40
  -5   2   5   20.40    1.80
  -5   2   5   19.60    1.50
   4  -2  -5   -0.40    0.40
   4  -2  -5    0.60    0.50
   4  -2  -5    0.60    0.40
  -4   2   5    1.10    0.60
  -4   2   5    0.40    0.50
  -4   2   5    0.10    0.40
  -4   2   5    0.70    0.50
   3  -2  -5    3.50    0.60
   3  -2  -5    2.10    0.70
   3  -2  -5    2.10    0.50
  -3   2   5    2.70    0.60
  -3   2   5    1.70    0.50
  -3   2   5    2.00    0.50
  -3   2   5    2.60    0.50
   2  -2  -5    0.00    0.30
   2  -2  -5    0.00    0.30
   2  -2  -5   -0.20    0.50
  -2   2   5    0.40    0.30
  -2   2   5    0.10    0.20
  -2   2   5   -0.10    0.30
  -2   2   5    0.00    0.40
   1  -2  -5   23.10    1.20
   1  -2  -5   21.00    1.20
   1  -2  -5   20.10    1.10
   1  -2  -5   22.30    1.90
  -1   2   5   22.20    1.20
  -1   2   5   23.00    1.00
  -1   2   5   23.80    1.40
   0  -2  -5   31.40    1.50
   0  -2  -5   30.50    1.40
   0  -2  -5   33.60    2.30
   0  -2  -5   31.80    1.80
   0  -2  -5   34.00    1.40
   0   2   5   31.90    1.80
   0   2   5   31.30    1.50
  -1  -2  -5   65.09    2.50
  -1  -2  -5   64.29    3.00
  -1  -2  -5   62.79    2.40
  -1  -2  -5   64.89    3.60
  -1  -2  -5   63.19    2.80
  -2  -2  -5   21.30    1.30
  -2  -2  -5   20.90    1.90
  -2  -2  -5   19.30    1.50
  -2  -2  -5   21.20    1.30
  -3  -2  -5   36.90    2.00
  -3  -2  -5   36.70    2.60
  -3  -2  -5   36.20    2.00
  -3  -2  -5   37.90    2.30
  -4  -2  -5    8.40    1.30
  -4  -2  -5    8.70    1.10
  -5  -2  -5    7.20    1.10
  -5  -2  -5    6.90    0.80
  -6  -2  -5   14.50    2.20
  -6  -2  -5    9.50    1.40
  -7  -2  -5   19.90    2.80
  -7  -2  -5   21.30    2.70
  -7  -2  -5   26.50    2.50
  -8  -2  -5   -0.90    1.50
  -8  -2  -5    0.10    1.50
  -8  -2  -5    0.60    1.20
  -8  -2  -5    0.50    0.90
  -9  -2  -5    6.70    2.30
  -9  -2  -5    9.40    2.10
  -9  -2  -5    8.00    1.30
  -9  -2  -5    6.50    1.70
 -10  -2  -5    1.20    1.70
  13  -3  -5   11.00    1.20
 -13   3   5    9.10    1.40
  12  -3  -5    7.30    1.30
 -12   3   5    6.50    1.50
 -11   3   5   -0.50    1.30
 -11   3   5    1.70    1.60
 -10   3   5    2.00    1.30
 -10   3   5    1.20    1.60
  -9   3   5   46.20    3.20
  -9   3   5   46.60    3.80
   8  -3  -5   10.70    1.40
  -8   3   5   12.60    2.90
  -8   3   5    9.70    1.50
  -8   3   5   11.10    1.60
   7  -3  -5    0.90    0.70
  -7   3   5    1.00    0.80
   6  -3  -5   12.50    1.30
  -6   3   5   14.70    2.20
  -6   3   5   14.40    1.50
   5  -3  -5  355.96   13.00
  -5   3   5  349.87   13.00
  -5   3   5  329.37   13.20
   4  -3  -5   85.39    4.20
   4  -3  -5   83.09    3.60
   4  -3  -5   81.69    3.60
  -4   3   5   75.59    3.50
  -4   3   5   82.09    3.60
  -4   3   5   94.69    3.90
   3  -3  -5   91.19    4.60
   3  -3  -5   92.39    3.90
   3  -3  -5   96.59    3.90
  -3   3   5   97.39    3.90
  -3   3   5   95.99    4.10
  -3   3   5   96.19    3.80
   2  -3  -5   65.89    2.80
   2  -3  -5   68.99    3.70
   2  -3  -5   69.79    2.90
  -2   3   5   68.19    2.80
  -2   3   5   68.49    3.10
  -2   3   5   66.09    2.90
   1  -3  -5    1.40    0.80
   1  -3  -5    1.80    0.50
   1  -3  -5    1.70    0.40
  -1   3   5    1.30    0.30
  -1   3   5    1.80    0.40
  -1   3   5    2.20    0.60
   0  -3  -5  384.96   14.50
   0  -3  -5  397.96   14.20
   0  -3  -5  377.56   14.20
   0  -3  -5  399.86   15.60
   0   3   5  402.66   14.40
   0   3   5  402.26   14.70
  -1  -3  -5  723.53   25.50
  -1  -3  -5  709.83   25.90
  -1  -3  -5  734.23   27.10
  -1  -3  -5  696.43   25.50
   1   3   5  719.33   26.10
   1   3   5  708.83   25.80
  -2  -3  -5  289.87   10.70
  -2  -3  -5  278.57   10.80
  -2  -3  -5  282.77   11.80
   2   3   5  289.27   11.00
  -3  -3  -5   61.49    3.10
  -3  -3  -5   62.49    2.90
   3   3   5   57.69    3.60
   3   3   5   60.59    3.00
  -4  -3  -5    0.20    0.60
  -5  -3  -5  153.58    7.10
  -6  -3  -5   42.80    3.50
  -6  -3  -5   46.80    3.60
  -7  -3  -5    1.60    1.70
  -7  -3  -5    1.60    1.70
  -8  -3  -5   27.00    3.10
  -8  -3  -5   26.10    2.10
  -8  -3  -5   27.90    3.40
  -9  -3  -5   31.60    3.20
  -9  -3  -5   35.10    3.60
 -10  -3  -5   -0.20    1.30
  13  -4  -5    4.70    0.90
 -13   4   5    3.00    1.10
  12  -4  -5    2.90    1.10
 -12   4   5    2.10    1.30
  11  -4  -5    3.90    1.20
 -11   4   5    2.10    1.40
  10  -4  -5    5.10    1.30
 -10   4   5    7.70    1.70
  -9   4   5    0.60    1.40
  -9   4   5   -0.40    1.00
   8  -4  -5   10.60    1.40
  -8   4   5    9.20    1.40
  -8   4   5    9.50    1.50
  -8   4   5   14.20    2.40
   7  -4  -5    6.70    1.10
  -7   4   5    8.70    1.40
   6  -4  -5   94.69    4.30
  -6   4   5   92.79    5.00
  -6   4   5   97.29    4.30
   5  -4  -5   42.80    2.30
  -5   4   5   37.40    2.50
  -5   4   5   41.50    2.20
   4  -4  -5   18.30    1.40
   4  -4  -5   16.90    1.30
   4  -4  -5   20.00    1.10
  -4   4   5   17.10    1.50
  -4   4   5   19.30    1.20
  -4   4   5   17.40    1.30
   3  -4  -5    1.10    0.50
   3  -4  -5    0.30    0.70
   3  -4  -5    0.20    0.30
   3  -4  -5    0.70    0.40
  -3   4   5    0.00    0.40
  -3   4   5    0.70    0.70
  -3   4   5    0.60    0.40
  -3   4   5    0.60    0.40
   2  -4  -5   36.10    1.80
   2  -4  -5   37.30    1.90
   2  -4  -5   35.50    1.60
   2  -4  -5   37.70    2.70
  -2   4   5   36.80    1.80
  -2   4   5   36.20    1.70
  -2   4   5   37.90    2.10
   1  -4  -5    4.30    0.50
   1  -4  -5    4.10    1.10
   1  -4  -5    5.50    0.80
  -1   4   5    3.80    0.70
  -1   4   5    4.90    0.50
  -1   4   5    4.70    0.60
   0  -4  -5    2.50    0.60
   0  -4  -5    3.60    1.10
   0  -4  -5    3.50    0.40
   0   4   5    2.50    1.00
   0   4   5    3.20    0.50
   0   4   5    2.90    0.70
  -1  -4  -5   16.50    0.80
  -1  -4  -5   15.20    1.40
   1   4   5   16.10    1.00
   1   4   5   15.90    1.30
   1   4   5   18.10    2.00
  -2  -4  -5   40.80    2.40
   2   4   5   40.30    2.00
   2   4   5   41.80    2.30
   2   4   5   40.10    3.00
  -3  -4  -5    2.80    0.90
  -5  -4  -5   52.99    3.80
  -6  -4  -5   72.49    4.80
  -6  -4  -5   75.29    4.90
  -7  -4  -5   46.70    3.90
  -7  -4  -5   40.60    4.00
  -8  -4  -5    5.20    1.90
  -8  -4  -5    6.50    2.00
  -9  -4  -5   10.30    2.10
  13  -5  -5   -0.60    0.60
 -13   5   5   -0.20    0.80
  12  -5  -5   26.80    2.10
 -12   5   5   20.50    2.20
  11  -5  -5   32.00    2.60
 -11   5   5   33.70    2.80
  10  -5  -5   74.39    4.00
 -10   5   5   78.59    4.20
   9  -5  -5   53.29    3.20
  -9   5   5   53.99    3.30
   8  -5  -5    1.40    0.80
   8  -5  -5    0.70    0.80
  -8   5   5    0.90    0.90
  -8   5   5    1.40    1.00
  -8   5   5   -1.40    1.50
   7  -5  -5    2.10    0.80
  -7   5   5    4.20    1.90
  -7   5   5    2.00    0.80
   6  -5  -5   22.70    1.70
  -6   5   5   20.90    2.40
  -6   5   5   21.60    1.70
   5  -5  -5   73.09    3.40
   5  -5  -5   69.49    3.10
  -5   5   5   73.49    3.30
  -5   5   5   73.29    3.80
   4  -5  -5   45.70    2.40
   4  -5  -5   47.20    2.10
   4  -5  -5   43.40    2.30
  -4   5   5   46.90    2.70
  -4   5   5   44.70    2.20
  -4   5   5   43.80    2.20
  -4   5   5   42.50    3.10
   3  -5  -5    6.60    0.90
   3  -5  -5    5.40    0.60
   3  -5  -5    4.70    0.70
  -3   5   5    5.30    0.70
  -3   5   5    5.60    1.30
  -3   5   5    6.00    1.00
  -3   5   5    5.80    0.70
   2  -5  -5   62.39    2.70
   2  -5  -5   59.49    2.40
   2  -5  -5   62.49    2.90
  -2   5   5   53.59    2.60
  -2   5   5   63.19    3.90
  -2   5   5   60.29    2.50
  -2   5   5   58.49    3.00
   1  -5  -5   84.99    3.40
   1  -5  -5   84.09    3.80
   1  -5  -5   82.69    3.20
  -1   5   5   83.39    4.80
  -1   5   5   84.79    3.30
  -1   5   5   89.29    3.90
  -1   5   5   85.59    3.50
   0  -5  -5   70.39    3.20
   0  -5  -5   65.19    2.70
   0   5   5   66.19    4.20
   0   5   5   61.79    3.20
  -1  -5  -5   23.90    1.80
  -1  -5  -5   20.60    1.10
   1   5   5   20.60    2.40
   1   5   5   20.50    1.60
  -2  -5  -5   35.20    2.40
   2   5   5   35.10    3.00
  -5  -5  -5   10.30    2.10
  -6  -5  -5    8.20    2.00
  -6  -5  -5    7.40    2.10
  -7  -5  -5   42.70    3.70
  -7  -5  -5   45.20    4.00
  -8  -5  -5   11.00    2.20
  -8  -5  -5   12.10    2.20
  13  -6  -5    3.90    0.90
 -13   6   5    4.50    1.00
  12  -6  -5    1.30    0.90
 -12   6   5    0.10    1.10
  11  -6  -5   11.50    1.60
 -11   6   5   13.40    1.90
  10  -6  -5   22.40    2.20
 -10   6   5   26.40    2.40
   9  -6  -5    4.30    1.20
  -9   6   5    3.30    2.00
   8  -6  -5   65.29    3.50
   8  -6  -5   63.49    3.50
  -8   6   5   60.19    4.80
  -8   6   5   63.89    3.50
   7  -6  -5   39.50    2.50
  -7   6   5   37.10    2.40
  -7   6   5   37.90    4.00
   6  -6  -5    1.20    0.70
  -6   6   5    0.70    0.60
  -6   6   5   -0.50    1.20
   5  -6  -5   29.10    1.90
   5  -6  -5   26.00    1.90
   5  -6  -5   30.60    1.70
  -5   6   5   27.80    2.30
  -5   6   5   26.90    1.70
  -5   6   5   28.60    1.80
   4  -6  -5    5.70    0.90
   4  -6  -5    5.40    0.80
   4  -6  -5    5.90    0.70
  -4   6   5    5.10    0.80
  -4   6   5    5.30    0.80
  -4   6   5    5.10    1.50
  -4   6   5    4.60    1.00
   3  -6  -5   73.29    3.30
   3  -6  -5   71.49    3.10
   3  -6  -5   76.99    3.60
  -3   6   5   78.99    3.80
  -3   6   5   71.19    3.20
  -3   6   5   78.09    4.70
   2  -6  -5  133.99    5.40
   2  -6  -5  135.19    5.10
   2  -6  -5  136.19    5.70
  -2   6   5  138.99    5.30
  -2   6   5  125.99    6.80
  -2   6   5  131.39    5.80
   1  -6  -5   41.50    2.40
   1  -6  -5   43.70    2.10
   1  -6  -5   41.10    1.80
  -1   6   5   43.00    3.50
  -1   6   5   47.70    2.60
  -1   6   5   41.30    1.90
   0  -6  -5   61.59    2.60
   0  -6  -5   62.19    3.20
   0   6   5   61.79    3.20
   0   6   5   54.99    4.10
  -1  -6  -5   73.59    3.70
  -1  -6  -5   67.49    2.80
   1   6   5   66.39    4.60
  -2  -6  -5    8.70    0.80
  -2  -6  -5    9.10    1.50
   2   6   5   11.10    2.10
   3   6   5    1.50    0.80
  -4  -6  -5    7.40    1.90
  -5  -6  -5    2.10    1.60
  -6  -6  -5    4.60    1.80
  -7  -6  -5    2.60    1.50
  13  -7  -5   -0.80    0.50
  12  -7  -5    3.30    1.00
  11  -7  -5    7.80    1.40
  10  -7  -5   60.49    3.50
 -10   7   5   58.89    5.00
   9  -7  -5   -0.20    0.80
  -9   7   5   -1.30    2.10
   8  -7  -5   13.20    2.10
   8  -7  -5   15.80    1.80
  -8   7   5   11.30    2.60
  -8   7   5   14.00    1.80
   7  -7  -5   53.69    3.10
  -7   7   5   54.29    4.80
  -7   7   5   51.79    3.00
   6  -7  -5   70.19    3.60
  -6   7   5   72.49    4.90
   5  -7  -5    3.70    0.90
   5  -7  -5    4.30    1.00
   5  -7  -5    2.40    0.70
  -5   7   5    1.80    1.20
  -5   7   5    2.70    0.80
  -5   7   5    2.10    1.10
   4  -7  -5    7.60    1.10
   4  -7  -5    6.70    0.80
   4  -7  -5    6.30    1.10
  -4   7   5    6.20    1.20
  -4   7   5    7.20    1.80
  -4   7   5    5.70    0.80
   3  -7  -5   27.50    1.50
   3  -7  -5   26.70    1.70
   3  -7  -5   29.60    2.00
  -3   7   5   24.70    2.00
  -3   7   5   26.00    1.60
  -3   7   5   23.00    2.80
   2  -7  -5   94.19    3.70
   2  -7  -5   91.19    4.00
   2  -7  -5   91.19    4.30
  -2   7   5   89.29    4.40
  -2   7   5   92.99    3.90
  -2   7   5   92.29    5.70
   1  -7  -5   71.09    3.60
   1  -7  -5   71.29    3.10
   1  -7  -5   69.19    2.90
  -1   7   5   74.29    3.70
  -1   7   5   67.39    3.00
  -1   7   5   70.69    4.90
   0  -7  -5    0.00    0.70
   0  -7  -5    0.00    0.30
   0  -7  -5   -0.30    0.40
   0   7   5    0.70    1.00
  -1  -7  -5    0.60    0.90
  -2  -7  -5    4.10    1.30
  -2  -7  -5    2.90    1.50
  -3  -7  -5    9.90    2.00
  -4  -7  -5    0.60    1.50
  -5  -7  -5    1.90    1.60
  -6  -7  -5    1.40    1.50
  13  -8  -5    0.90    0.60
  12  -8  -5   15.70    1.70
  11  -8  -5    0.40    0.80
 -11   8   5   -1.60    1.30
  10  -8  -5   12.30    1.60
 -10   8   5    8.20    2.70
   9  -8  -5    0.40    0.80
  -9   8   5    1.60    2.30
   8  -8  -5    0.70    0.90
   8  -8  -5   -0.40    0.80
  -8   8   5   -0.90    2.00
   7  -8  -5    4.60    1.10
   7  -8  -5    4.50    1.10
   7  -8  -5    3.20    1.20
  -7   8   5    3.40    2.10
   6  -8  -5   47.60    2.90
  -6   8   5   44.80    4.20
   5  -8  -5   41.00    2.70
   5  -8  -5   42.90    2.30
  -5   8   5   48.40    3.80
   4  -8  -5   74.29    3.10
   4  -8  -5   64.39    3.40
   4  -8  -5   67.59    3.60
   4  -8  -5   70.29    4.20
  -4   8   5   62.99    3.20
   3  -8  -5   26.40    2.20
   3  -8  -5   27.60    1.60
   3  -8  -5   24.80    1.80
  -3   8   5   24.30    2.40
  -3   8   5   22.00    1.60
   2  -8  -5  157.28    5.80
   2  -8  -5  147.59    6.10
   2  -8  -5  160.58    6.70
  -2   8   5  138.19    6.60
  -2   8   5  138.89    6.40
   1  -8  -5  712.13   26.00
   1  -8  -5  735.33   27.00
   0  -8  -5   43.10    2.00
   0  -8  -5   45.90    3.10
   0  -8  -5   42.40    5.10
  -1  -8  -5    3.20    1.60
  -1  -8  -5    1.70    1.10
  -1  -8  -5    3.30    2.10
  -2  -8  -5    5.30    1.80
  -3  -8  -5    3.80    1.80
  -4  -8  -5   18.30    2.60
  -5  -8  -5    7.20    1.90
  12  -9  -5    3.80    1.00
  11  -9  -5   10.70    1.50
 -11   9   5    7.30    2.00
  10  -9  -5   -0.10    0.90
 -10   9   5   -6.20    2.00
   9  -9  -5   -0.10    0.90
  -9   9   5    0.50    2.40
   8  -9  -5   14.10    1.60
   8  -9  -5   13.00    1.70
  -8   9   5   14.40    3.00
   7  -9  -5   40.80    2.90
   7  -9  -5   34.60    2.80
  -7   9   5   40.20    4.60
   6  -9  -5   -0.70    0.90
   6  -9  -5    0.40    1.10
  -6   9   5   -1.50    1.80
   4  -9  -5    4.60    1.70
   4  -9  -5    5.80    1.00
   4  -9  -5    5.70    1.40
   4  -9  -5    3.60    1.10
   3  -9  -5    5.20    1.70
   3  -9  -5    6.40    1.00
   3  -9  -5    6.00    2.50
   3  -9  -5    4.30    1.20
   3  -9  -5    7.70    1.50
   2  -9  -5   -0.40    1.00
   2  -9  -5    0.20    0.90
   2  -9  -5    0.40    1.80
   2  -9  -5    0.10    0.60
   1  -9  -5   -0.10    0.70
   1  -9  -5    1.50    2.00
   1  -9  -5    1.30    1.20
   0  -9  -5    4.60    2.50
   0  -9  -5    5.30    1.70
   0  -9  -5    5.90    0.90
  -1  -9  -5    1.20    0.70
  -1  -9  -5    0.00    1.40
  -1  -9  -5    2.90    2.50
  -2  -9  -5    0.80    0.70
  -2  -9  -5    1.20    1.40
  -3  -9  -5   -0.20    1.40
  -4  -9  -5    6.20    1.90
  12 -10  -5   27.30    2.00
 -12  10   5   25.50    2.40
  11 -10  -5   57.69    3.20
 -11  10   5   50.59    4.00
  10 -10  -5   35.20    2.60
 -10  10   5   29.30    3.60
   9 -10  -5   20.10    2.20
  -9  10   5   22.30    3.30
   8 -10  -5   16.50    1.80
   8 -10  -5   14.80    2.00
  -8  10   5   20.70    3.30
   7 -10  -5   10.90    1.70
   7 -10  -5    9.80    1.70
  -7  10   5   12.10    2.80
   6 -10  -5   39.90    3.00
   6 -10  -5   42.20    3.20
  -6  10   5   43.80    4.50
   5 -10  -5    2.90    3.50
   5 -10  -5    6.20    1.50
   5 -10  -5    4.80    1.40
   5 -10  -5    4.00    1.00
  -5  10   5    1.00    2.00
   4 -10  -5    1.30    2.90
   4 -10  -5    4.40    1.30
   4 -10  -5    3.60    1.00
  -4  10   5    0.50    1.70
   3 -10  -5    0.50    2.50
   3 -10  -5    4.60    1.00
   3 -10  -5    4.30    1.40
   2 -10  -5   48.80    2.60
   2 -10  -5   47.40    3.60
   2 -10  -5   45.70    6.20
   1 -10  -5  258.17   10.00
   1 -10  -5  260.67   11.20
   1 -10  -5  269.67   14.90
   0 -10  -5  131.49    9.80
   0 -10  -5  121.69    5.20
   0 -10  -5  124.59    6.60
  -1 -10  -5    7.30    1.00
  -1 -10  -5    8.60    3.60
  -1 -10  -5    8.10    2.00
  -2 -10  -5    2.70    1.50
  -2 -10  -5   -0.10    1.00
  -3 -10  -5   16.00    2.50
  12 -11  -5    4.40    0.90
  11 -11  -5   -0.60    0.80
 -11  11   5   -3.10    1.10
  10 -11  -5    2.00    1.00
 -10  11   5   -4.30    1.70
   9 -11  -5   17.00    2.00
  -9  11   5   17.00    2.90
   8 -11  -5    5.20    1.40
   8 -11  -5    5.00    1.30
  -8  11   5    5.60    2.40
   7 -11  -5    7.70    1.60
   7 -11  -5    7.70    1.60
  -7  11   5    9.10    2.60
   6 -11  -5   -0.10    3.00
   6 -11  -5    2.90    1.40
   6 -11  -5    2.40    1.40
  -6  11   5    0.10    2.10
   5 -11  -5    2.50    1.00
   5 -11  -5    0.80    3.40
   5 -11  -5    1.70    1.40
   5 -11  -5    2.40    1.20
  -5  11   5    0.40    2.00
   4 -11  -5   29.90    2.50
   4 -11  -5   31.30    2.90
   4 -11  -5   34.40    7.20
   3 -11  -5    0.50    2.90
   3 -11  -5    1.20    1.00
   3 -11  -5    0.70    1.20
   2 -11  -5    5.30    3.20
   2 -11  -5    2.60    1.20
   2 -11  -5    1.70    1.40
   1 -11  -5   10.80    1.40
   1 -11  -5   12.00    2.10
   1 -11  -5   11.50    3.80
   0 -11  -5   -0.10    1.00
   0 -11  -5    1.40    1.40
   0 -11  -5   10.20    3.90
  -1 -11  -5    8.10    3.80
  -1 -11  -5    4.10    1.60
  -1 -11  -5    2.80    1.20
  -2 -11  -5   -0.50    1.30
  11 -12  -5    2.50    0.90
 -11  12   5    1.50    1.00
  10 -12  -5    4.70    1.20
 -10  12   5    1.40    1.70
   9 -12  -5   17.30    1.90
  -9  12   5   16.30    2.80
   8 -12  -5   42.30    3.10
   8 -12  -5   46.70    2.90
  -8  12   5   41.80    4.30
   7 -12  -5  113.99    5.40
   7 -12  -5  111.29    5.50
  -7  12   5  111.99    6.40
   6 -12  -5    1.90    1.40
   6 -12  -5   -2.80    3.00
   6 -12  -5    1.60    1.20
   5 -12  -5   12.20    1.90
   5 -12  -5   13.30    4.50
   5 -12  -5   10.20    1.40
   4 -12  -5    1.50    3.30
   4 -12  -5    1.00    1.20
   4 -12  -5   -0.40    1.10
   4 -12  -5    1.60    1.80
   3 -12  -5    8.30    3.90
   3 -12  -5    7.30    1.70
   3 -12  -5    6.70    1.40
   2 -12  -5   15.90    2.40
   2 -12  -5   18.00    1.80
   2 -12  -5   18.20    4.50
   1 -12  -5    3.00    1.20
   1 -12  -5    8.90    3.80
   1 -12  -5    1.50    1.40
   0 -12  -5    0.20    1.20
   0 -12  -5    3.10    3.70
  -1 -12  -5    3.40    6.10
  -1 -12  -5    5.40    1.50
  10 -13  -5    0.70    0.90
 -10  13   5   -1.10    1.10
   9 -13  -5   -0.50    0.80
  -9  13   5   -0.20    1.50
   8 -13  -5   27.00    2.30
   8 -13  -5   25.80    2.00
  -8  13   5   25.30    3.30
   7 -13  -5   29.90    2.70
   7 -13  -5   25.80    2.50
  -7  13   5   34.70    3.60
   6 -13  -5    0.00    3.20
   6 -13  -5    6.10    1.70
   6 -13  -5    4.50    1.40
   5 -13  -5    2.50    1.70
   5 -13  -5    2.50    1.40
   5 -13  -5    3.30    3.70
   4 -13  -5    8.50    1.80
   4 -13  -5    3.90    1.50
   4 -13  -5    6.50    3.90
   3 -13  -5   24.60    2.70
   3 -13  -5   19.20    4.80
   2 -13  -5   17.70    2.30
   2 -13  -5   22.90    5.00
   1 -13  -5    5.70    3.90
   1 -13  -5    1.60    1.30
   0 -13  -5    5.80    3.60
   9 -14  -5   13.60    1.50
   8 -14  -5   29.40    2.20
  -8  14   5   31.30    2.40
   7 -14  -5    6.00    1.20
   7 -14  -5    5.20    1.30
   6 -14  -5   -0.30    1.40
   6 -14  -5   -2.40    2.70
   6 -14  -5    0.50    1.00
   5 -14  -5    0.30    3.20
   5 -14  -5    1.50    1.10
   5 -14  -5    2.50    1.60
   4 -14  -5   15.80    4.40
   4 -14  -5   18.30    2.20
   4 -14  -5   19.60    2.20
   3 -14  -5    6.30    1.50
   3 -14  -5   10.50    4.00
   3 -14  -5   10.40    1.90
   2 -14  -5    5.60    3.60
   1 -14  -5    4.20    3.10
   6 -15  -5    2.20    1.30
   5 -15  -5    4.80    1.50
   5 -15  -5    3.00    2.80
  -2  15  -6    0.30    2.50
   2 -15   6    2.70    0.90
   2 -15   6    1.70    0.90
  -3  15  -6   -6.80    3.10
   3 -15   6    0.60    0.90
   3 -15   6    0.90    0.80
  -4  15  -6   -4.60    3.90
   4 -15   6    4.00    1.10
  -5  15  -6   -4.20    4.00
   5 -15   6    6.50    1.20
  -6  15  -6   -0.10    3.10
   6 -15   6    1.30    0.80
   7 -15   6    1.90    0.80
   0 -14   6    2.80    1.50
   0 -14   6    5.00    1.10
  -1  14  -6    7.50    3.40
   1 -14   6   10.60    1.60
   1 -14   6   10.90    1.70
  -2  14  -6    0.00    3.80
   2 -14   6    4.20    1.20
   2 -14   6    2.30    1.10
  -3  14  -6    1.60    4.80
   3 -14   6    6.90    1.40
   3 -14   6    8.50    1.20
  -4  14  -6   37.90    7.00
   4 -14   6   35.00    2.70
   4 -14   6   36.20    2.10
  -5  14  -6    9.60    5.80
   5 -14   6   16.80    1.90
  -6  14  -6   31.10    6.40
   6 -14   6   33.10    2.40
   7 -14   6   29.60    2.30
   8 -14   6    4.00    1.00
   9 -14   6   -0.20    0.80
  -2 -13   6   -1.90    1.50
  -2 -13   6    1.70    0.90
   1  13  -6   35.50    5.00
  -1 -13   6    1.20    1.70
   0  13  -6    1.80    2.80
   0 -13   6    0.50    1.10
   0 -13   6   -0.20    1.50
  -1  13  -6    5.60    4.20
   1 -13   6    3.10    1.40
   1 -13   6    4.40    1.40
  -2  13  -6    4.70    5.10
   2 -13   6    3.70    1.20
   2 -13   6    3.30    1.30
  -3  13  -6    1.10    5.50
   3 -13   6    3.30    1.20
   3 -13   6    1.30    1.00
  -4  13  -6    5.00    5.80
   4 -13   6    9.50    1.30
   4 -13   6    7.60    1.60
  -5  13  -6   -2.30    5.30
   5 -13   6    1.20    1.10
  -6  13  -6   29.40    6.40
   6 -13   6   28.90    2.40
   7 -13   6    8.10    1.40
   8 -13   6    0.00    0.90
   9 -13   6    0.80    0.90
 -10  13  -6    4.90    1.40
  10 -13   6    4.10    1.00
  -3 -12   6   18.90    2.40
  -3 -12   6   13.10    2.20
  -3 -12   6   19.30    2.00
  -2 -12   6    8.10    2.10
  -2 -12   6    9.80    1.70
  -2 -12   6    8.60    1.60
   1  12  -6    6.90    2.70
  -1 -12   6    0.00    1.20
  -1 -12   6    0.00    1.20
  -1 -12   6    1.20    1.70
   0  12  -6   10.40    3.90
   0 -12   6    5.20    1.60
   0 -12   6    6.40    1.60
   0 -12   6    5.90    2.40
  -1  12  -6    2.00    4.60
   1 -12   6    0.70    1.30
   1 -12   6    0.60    1.10
  -2  12  -6   25.50    6.70
   2 -12   6   16.60    2.00
   2 -12   6   17.80    2.20
  -3  12  -6   38.40    7.50
   3 -12   6   33.00    2.60
   3 -12   6   30.60    2.70
  -4  12  -6   62.69   11.70
   4 -12   6   51.59    3.00
   4 -12   6   48.10    3.30
  -5  12  -6   65.79   10.70
   5 -12   6   59.09    3.60
   5 -12   6   60.69    3.10
  -6  12  -6   47.80    8.70
   6 -12   6   54.19    3.30
   7 -12   6   29.10    2.50
   8 -12   6   10.10    1.50
  -9  12  -6    2.30    1.50
   9 -12   6    1.60    1.00
 -10  12  -6   13.40    2.10
  10 -12   6   14.40    1.70
 -11  12  -6    3.10    1.40
  -5 -11   6    1.50    1.20
  -5 -11   6    4.20    1.70
  -4 -11   6   11.50    1.80
  -4 -11   6   11.20    1.70
  -4 -11   6    7.40    1.90
  -3 -11   6    1.00    1.80
  -3 -11   6   -0.20    1.10
  -3 -11   6   -0.80    1.20
  -2 -11   6   19.20    2.40
  -2 -11   6   16.10    2.30
  -2 -11   6   17.30    2.40
  -2 -11   6   15.40    1.80
   1  11  -6   42.80    6.60
  -1 -11   6   39.90    3.30
  -1 -11   6   42.00    3.50
  -1 -11   6   34.20    3.40
  -1 -11   6   38.20    2.70
   0  11  -6    0.90    4.00
   0 -11   6   -0.90    1.10
   0 -11   6   -0.80    1.10
   0 -11   6    0.30    0.90
   0 -11   6    0.70    1.20
  -1  11  -6   11.40    5.60
   1 -11   6   13.10    2.10
   1 -11   6   12.40    1.90
   1 -11   6    9.30    1.70
  -2  11  -6    3.90    5.20
   2 -11   6    6.20    1.30
   2 -11   6    5.60    1.60
   2 -11   6    7.10    1.50
  -3  11  -6    6.40    5.40
   3 -11   6    5.50    1.30
   3 -11   6    6.80    1.50
  -4  11  -6   14.60    5.70
   4 -11   6   20.60    2.10
   4 -11   6   18.60    1.90
  -5  11  -6   80.69   10.40
   5 -11   6   81.29    3.80
   5 -11   6   81.59    4.30
  -6  11  -6    7.40    4.60
   6 -11   6    7.80    1.40
   7 -11   6    2.10    1.10
  -8  11  -6   21.10    2.90
   8 -11   6   19.90    2.10
  -9  11  -6    4.10    1.80
   9 -11   6    3.90    1.10
 -10  11  -6   76.49    4.80
  10 -11   6   74.09    3.70
 -11  11  -6   40.00    3.30
  11 -11   6   35.90    2.40
  -6 -10   6    1.40    0.90
  -6 -10   6   -2.30    1.00
  -5 -10   6    6.00    1.80
  -5 -10   6   13.20    2.00
  -5 -10   6   12.10    1.80
  -4 -10   6   -0.10    1.80
  -4 -10   6   -0.90    1.30
  -4 -10   6    1.30    1.20
  -3 -10   6   -1.50    1.60
  -3 -10   6    2.30    1.20
  -3 -10   6    1.70    1.50
  -3 -10   6    0.80    1.30
  -2 -10   6    0.30    1.00
  -2 -10   6    1.30    1.30
  -2 -10   6    0.00    1.40
  -2 -10   6    0.80    1.60
   1  10  -6   57.19    8.10
  -1 -10   6   58.59    3.80
  -1 -10   6   55.59    3.30
  -1 -10   6   62.39    4.30
  -1 -10   6   63.69    4.00
   0  10  -6   48.10    9.50
   0 -10   6   78.49    3.80
   0 -10   6   81.19    4.20
   0 -10   6   76.49    4.70
   0 -10   6   73.19    4.30
  -1  10  -6    2.40    5.20
   1 -10   6   17.50    2.10
   1 -10   6   16.30    1.70
   1 -10   6   16.40    1.90
   1 -10   6   16.40    2.20
  -2  10  -6   -7.60    4.10
   2 -10   6   -0.40    1.00
   2 -10   6   -0.20    0.80
   2 -10   6   -0.30    0.90
  -3  10  -6    8.80    5.10
   3 -10   6   13.70    1.90
   3 -10   6   13.20    1.60
   3 -10   6   12.10    1.70
  -4  10  -6   67.89   10.30
   4 -10   6   66.99    3.80
   4 -10   6   64.29    3.60
   4 -10   6   70.29    3.50
  -5  10  -6   -0.20    3.90
   5 -10   6    2.50    1.00
   5 -10   6    3.90    1.60
   5 -10   6    3.00    0.80
  -6  10  -6   22.70    2.80
  -7  10  -6   33.50    3.50
   7 -10   6   29.60    2.40
  -8  10  -6    0.40    1.70
   8 -10   6    1.30    0.90
  -9  10  -6   51.99    4.30
   9 -10   6   51.29    3.10
 -10  10  -6    0.40    1.50
  10 -10   6    0.60    1.00
 -11  10  -6   -0.70    1.30
  11 -10   6    1.30    0.80
 -12  10  -6   -0.40    1.10
  -7  -9   6   -1.30    0.90
  -6  -9   6    0.00    1.40
  -6  -9   6   -0.60    1.10
  -6  -9   6   -4.40    1.40
  -5  -9   6    5.10    1.90
  -5  -9   6    7.70    1.70
  -5  -9   6   10.40    2.20
  -4  -9   6    0.00    1.70
  -4  -9   6    1.60    1.20
  -4  -9   6    0.70    1.40
  -4  -9   6    1.00    1.50
  -3  -9   6   -1.10    1.50
  -3  -9   6   -1.80    0.90
  -3  -9   6    1.30    1.50
  -3  -9   6    2.30    1.40
  -2  -9   6   14.30    2.40
  -2  -9   6   13.50    2.10
  -2  -9   6   14.80    1.70
  -2  -9   6   14.20    2.00
   1   9  -6  119.99   10.60
  -1  -9   6  134.59    6.40
  -1  -9   6  147.19    7.10
  -1  -9   6  141.59    6.70
  -1  -9   6  161.48    6.10
   0  -9   6  130.79    6.30
   0  -9   6  132.49    6.10
   0  -9   6  134.29    6.60
   0  -9   6  142.49    5.70
   1  -9   6    2.50    0.90
   1  -9   6    3.20    1.20
  -2   9  -6   13.60    9.00
   3  -9   6   68.29    3.80
   4  -9   6  227.68    9.50
  -5   9  -6   41.00    8.40
   5  -9   6   51.29    3.10
  -6   9  -6    7.50    1.80
   6  -9   6    4.20    1.00
   6  -9   6    3.60    1.10
  -7   9  -6   54.89    4.10
   7  -9   6   46.00    3.10
   7  -9   6   50.59    3.00
  -8   9  -6    8.20    2.10
   8  -9   6    4.50    1.20
   8  -9   6    6.60    1.50
  -9   9  -6  121.79    6.70
   9  -9   6  113.19    5.30
   9  -9   6  116.19    5.80
 -10   9  -6   30.30    3.70
  10  -9   6   33.00    2.40
 -11   9  -6    1.10    1.60
  11  -9   6    1.80    0.90
 -12   9  -6    2.70    1.40
  -7  -8   6   10.80    2.00
  -7  -8   6    5.40    1.60
  -7  -8   6   10.40    1.70
  -6  -8   6   10.70    1.90
  -6  -8   6    8.20    2.10
  -6  -8   6    8.30    2.00
  -5  -8   6    1.70    1.80
  -5  -8   6    0.10    1.10
  -5  -8   6    1.60    1.70
  -5  -8   6    1.60    1.40
  -4  -8   6    1.20    1.40
  -4  -8   6    0.70    1.50
  -4  -8   6   -1.20    1.00
  -3  -8   6    9.00    1.80
  -3  -8   6    6.20    1.30
  -3  -8   6    5.90    1.90
   2   8  -6   31.30    2.40
  -2  -8   6   29.80    3.10
  -2  -8   6   24.60    2.70
  -2  -8   6   26.80    2.20
   1   8  -6   13.80    1.60
  -1  -8   6   20.10    1.80
  -1  -8   6   13.50    2.00
   0   8  -6   23.70    1.90
   0  -8   6   24.10    1.80
   0  -8   6   22.30    2.30
  -1   8  -6   18.00    3.70
   1  -8   6   18.60    1.50
  -2   8  -6    0.90    2.30
  -3   8  -6   14.50    3.50
  -4   8  -6   45.70    5.40
  -4   8  -6   34.90    2.60
  -5   8  -6    4.40    2.40
   5  -8   6    1.00    0.80
  -6   8  -6   29.60    2.90
   6  -8   6   26.50    2.20
  -7   8  -6    2.80    1.40
  -7   8  -6   -0.70    1.20
  -8   8  -6    3.20    1.70
  -8   8  -6    2.70    1.70
   8  -8   6    3.80    1.00
  -9   8  -6   -0.20    1.50
  -9   8  -6    0.50    1.60
   9  -8   6    1.30    0.90
 -10   8  -6    0.70    1.50
 -10   8  -6   -0.50    1.60
  10  -8   6    0.60    0.80
 -11   8  -6   34.80    3.40
 -11   8  -6   35.40    3.60
  11  -8   6   31.50    2.20
 -12   8  -6    0.40    1.20
  -8  -7   6    5.40    1.40
  -8  -7   6    7.80    1.90
  -8  -7   6    7.90    1.50
  -7  -7   6   -0.50    1.50
  -7  -7   6    1.60    1.30
  -7  -7   6   -1.50    1.50
  -6  -7   6   41.50    2.80
  -6  -7   6   39.90    4.00
  -6  -7   6   33.30    3.30
  -6  -7   6   35.90    3.40
  -5  -7   6   57.29    3.30
  -5  -7   6   49.99    4.00
  -5  -7   6   54.59    4.50
  -4  -7   6    4.00    1.10
  -4  -7   6    6.80    2.00
  -4  -7   6    2.90    1.50
   3   7  -6   32.40    2.50
  -3  -7   6   31.80    2.90
  -3  -7   6   29.30    3.00
  -3  -7   6   33.00    2.30
   2   7  -6  136.49    6.10
  -2  -7   6  151.98    5.80
  -2  -7   6  137.69    6.70
  -2  -7   6  127.39    6.20
   1   7  -6   22.50    1.80
   1   7  -6   21.00    3.70
  -1  -7   6   24.40    2.00
  -1  -7   6   25.90    1.80
   0   7  -6   18.60    1.50
   0   7  -6   15.00    3.10
   0  -7   6   19.00    1.40
   0  -7   6   19.30    1.80
  -1   7  -6   30.80    4.40
   1  -7   6   25.00    1.60
  -2   7  -6    4.40    2.20
  -3   7  -6  124.49    7.80
  -3   7  -6  119.29    5.40
  -4   7  -6  210.88    9.10
  -4   7  -6  236.98   11.40
  -5   7  -6    4.10    2.00
  -5   7  -6    2.50    0.90
  -6   7  -6   13.80    2.30
  -6   7  -6   14.50    2.10
  -7   7  -6    3.80    1.70
  -7   7  -6    5.40    1.60
  -8   7  -6    3.70    1.70
  -8   7  -6    4.70    1.70
  -9   7  -6  103.69    6.10
  -9   7  -6  109.39    6.20
   9  -7   6  104.59    4.90
 -10   7  -6    1.60    1.70
 -10   7  -6    0.40    1.60
  10  -7   6    0.50    0.90
 -11   7  -6    1.20    1.70
 -11   7  -6    1.60    1.60
 -11   7  -6    0.30    1.10
  11  -7   6    0.40    0.80
 -12   7  -6   27.40    2.20
 -12   7  -6   28.70    3.00
 -12   7  -6   26.20    2.90
  -9  -6   6    1.50    1.30
  -9  -6   6    2.30    1.10
  -9  -6   6   -0.10    1.00
  -8  -6   6    8.40    2.10
  -8  -6   6    3.20    1.50
  -8  -6   6    5.60    1.60
  -7  -6   6   14.00    1.70
  -7  -6   6   14.00    2.70
  -7  -6   6   14.80    2.30
  -7  -6   6   12.10    2.10
  -6  -6   6   15.00    2.80
  -6  -6   6   15.00    2.30
  -6  -6   6   16.60    1.90
  -5  -6   6    1.00    1.30
  -5  -6   6    1.20    1.60
  -5  -6   6    0.90    0.90
   4   6  -6    6.10    1.30
  -4  -6   6    6.80    1.70
  -4  -6   6    5.50    1.90
  -4  -6   6    5.70    1.10
   3   6  -6    0.20    0.80
  -3  -6   6    1.00    1.20
  -3  -6   6    1.10    0.70
  -3  -6   6   -0.80    0.70
   2   6  -6    2.50    0.80
   2   6  -6    1.90    1.50
  -2  -6   6    1.90    0.70
  -2  -6   6    1.30    0.80
   1   6  -6   23.20    3.20
   1   6  -6   20.20    1.50
  -1  -6   6   21.90    1.50
  -1  -6   6   22.90    1.90
   0   6  -6   21.60    3.10
   0   6  -6   18.10    1.30
   0  -6   6   21.30    1.70
   0  -6   6   19.60    1.40
  -1   6  -6    0.40    1.40
   1  -6   6   -0.50    0.40
  -2   6  -6   12.40    2.50
  -2   6  -6   11.50    1.20
  -3   6  -6   16.20    1.60
  -3   6  -6   19.70    3.20
  -4   6  -6   30.70    2.30
  -4   6  -6   35.80    3.70
  -4   6  -6   35.30    1.90
  -5   6  -6   36.50    2.00
  -5   6  -6   36.80    3.70
  -5   6  -6   34.90    2.00
  -5   6  -6   34.60    2.60
  -6   6  -6    4.10    0.90
  -6   6  -6    2.50    1.10
  -6   6  -6    3.20    0.90
  -7   6  -6   -0.40    1.20
  -7   6  -6    0.00    0.80
  -7   6  -6    1.50    1.20
  -7   6  -6   -0.30    0.80
  -8   6  -6   10.80    1.60
  -8   6  -6    9.50    2.10
  -8   6  -6    9.00    2.10
  -8   6  -6    8.50    1.30
  -8   6  -6    9.50    1.50
  -9   6  -6    2.90    1.70
  -9   6  -6    3.20    1.20
  -9   6  -6    3.50    1.30
  -9   6  -6    4.90    2.00
 -10   6  -6   34.30    3.80
 -10   6  -6   36.10    3.80
 -10   6  -6   34.00    2.80
 -10   6  -6   32.00    2.60
  10  -6   6   29.20    2.30
 -11   6  -6    2.70    1.80
 -11   6  -6    4.30    1.40
 -11   6  -6    6.50    1.90
  11  -6   6    4.80    1.70
 -12   6  -6    1.20    1.10
 -12   6  -6    1.50    1.50
  -9  -5   6   21.70    2.50
  -9  -5   6   16.50    1.90
  -9  -5   6   14.90    2.50
  -8  -5   6   -0.90    1.30
  -8  -5   6    1.50    1.30
  -8  -5   6    0.60    1.60
  -7  -5   6   26.60    3.00
  -7  -5   6   22.90    2.80
  -7  -5   6   22.40    3.20
  -7  -5   6   22.50    2.30
  -6  -5   6   18.60    1.90
  -6  -5   6   22.00    2.60
  -6  -5   6   17.70    2.90
   5   5  -6    1.80    1.10
  -5  -5   6    0.00    0.80
  -5  -5   6    1.20    1.50
  -5  -5   6   -0.40    1.10
   4   5  -6    1.80    0.90
  -4  -5   6    1.10    1.20
  -4  -5   6    0.80    0.70
  -4  -5   6    0.50    0.70
   3   5  -6   41.90    2.50
  -3  -5   6   38.90    2.50
  -3  -5   6   38.60    2.20
   2   5  -6  407.16   15.70
   2   5  -6  416.16   17.20
  -2  -5   6  428.66   15.40
  -2  -5   6  422.76   15.90
   1   5  -6  507.65   20.00
   1   5  -6  462.95   18.00
  -1  -5   6  479.65   17.80
  -1  -5   6  510.15   18.30
   0   5  -6   61.09    4.40
   0   5  -6   58.39    2.60
   0  -5   6   56.19    2.60
   0  -5   6   64.19    3.00
  -1   5  -6  375.96   16.00
  -1   5  -6  363.66   14.10
   1  -5   6  399.66   14.30
  -2   5  -6   78.19    4.90
  -2   5  -6   68.99    3.40
  -2   5  -6   74.59    3.40
   2  -5   6   69.69    3.20
  -3   5  -6   90.29    3.80
  -3   5  -6   93.19    4.10
  -3   5  -6   98.79    5.60
  -3   5  -6   88.19    3.80
  -3   5  -6   92.69    4.20
   3  -5   6   89.29    3.90
  -4   5  -6   78.49    3.30
  -4   5  -6   77.19    3.40
  -4   5  -6   76.19    3.60
  -4   5  -6   75.99    4.90
  -4   5  -6   73.79    3.80
   4  -5   6   76.39    3.40
  -5   5  -6   44.60    2.90
  -5   5  -6   47.60    2.40
  -5   5  -6   47.70    2.50
  -5   5  -6   46.10    2.60
   5  -5   6   44.80    2.40
  -6   5  -6    0.60    0.70
  -6   5  -6    1.90    0.80
  -6   5  -6    1.40    0.70
  -6   5  -6    1.80    0.90
  -7   5  -6  250.57   10.30
  -7   5  -6  261.17   10.00
  -7   5  -6  256.67   11.20
  -7   5  -6  258.27   11.00
  -7   5  -6  261.87   10.50
  -8   5  -6  163.88    7.10
  -8   5  -6  156.78    7.00
  -8   5  -6  163.18    6.70
  -8   5  -6  155.48    8.00
  -8   5  -6  162.68    7.90
  -9   5  -6    5.90    1.50
  -9   5  -6    7.00    1.40
  -9   5  -6    4.00    1.80
  -9   5  -6    6.10    2.10
 -10   5  -6   65.29    3.90
 -10   5  -6   64.39    4.90
 -10   5  -6   68.79    3.70
 -10   5  -6   63.49    4.90
  10  -5   6   57.69    3.70
 -11   5  -6   40.70    3.00
 -11   5  -6   38.70    3.90
 -12   5  -6    2.60    1.20
 -12   5  -6    3.00    1.60
 -10  -4   6    0.00    1.20
 -10  -4   6   -0.30    1.10
  -9  -4   6   10.90    2.30
  -9  -4   6   16.60    2.30
  -9  -4   6    8.90    1.70
  -8  -4   6    0.20    1.50
  -8  -4   6   -0.50    1.30
  -8  -4   6    0.90    1.00
  -8  -4   6    0.10    1.70
  -7  -4   6    8.60    1.50
  -7  -4   6   10.90    2.00
  -7  -4   6    7.90    1.90
  -7  -4   6    6.20    2.10
  -6  -4   6    1.10    0.90
  -6  -4   6    0.60    1.40
  -6  -4   6    0.80    1.20
   5   4  -6    3.80    1.10
  -5  -4   6    1.60    0.90
  -5  -4   6    4.50    1.50
   4   4  -6   12.10    1.40
  -4  -4   6   11.20    1.20
  -4  -4   6    8.50    1.20
   3   4  -6    0.70    0.60
  -3  -4   6    0.70    0.60
  -3  -4   6    0.60    0.60
   2   4  -6   46.80    3.40
   2   4  -6   47.10    2.40
  -2  -4   6   47.60    2.30
  -2  -4   6   52.29    2.60
   1   4  -6   40.80    2.10
   1   4  -6   46.20    3.30
  -1  -4   6   40.60    2.00
  -1  -4   6   40.00    2.30
   0   4  -6   55.19    2.50
   0   4  -6   64.59    4.00
   0   4  -6   57.69    2.60
   0  -4   6   60.69    2.80
   0  -4   6   53.89    2.40
  -1   4  -6   14.20    1.20
  -1   4  -6   13.50    1.10
  -1   4  -6   12.30    1.10
  -1   4  -6   15.40    2.10
   1  -4   6   14.10    1.00
   1  -4   6   13.40    0.80
   1  -4   6   13.80    1.20
  -2   4  -6   48.80    2.20
  -2   4  -6   47.90    3.40
  -2   4  -6   49.10    2.50
  -2   4  -6   47.40    2.40
   2  -4   6   41.40    2.10
  -3   4  -6   22.20    1.50
  -3   4  -6   19.90    1.30
  -3   4  -6   22.10    1.30
  -3   4  -6   19.70    1.60
  -3   4  -6   23.10    2.50
   3  -4   6   20.60    1.30
  -4   4  -6    1.50    0.60
  -4   4  -6    1.90    1.10
  -4   4  -6    1.90    0.60
  -4   4  -6    2.20    0.60
  -4   4  -6    2.60    0.80
   4  -4   6    0.90    0.50
  -5   4  -6   32.60    1.80
  -5   4  -6   34.00    2.00
  -5   4  -6   30.70    2.00
  -5   4  -6   32.10    2.30
   5  -4   6   35.20    1.90
  -6   4  -6   25.50    2.30
  -6   4  -6   24.70    1.90
  -6   4  -6   28.70    1.80
  -6   4  -6   26.20    1.90
  -7   4  -6   96.89    4.60
  -7   4  -6   93.49    5.30
  -7   4  -6  105.29    4.40
  -7   4  -6   93.59    4.80
  -7   4  -6   92.39    5.50
  -8   4  -6  107.79    5.00
  -8   4  -6   99.89    4.60
  -8   4  -6   99.19    5.80
  -8   4  -6  100.89    5.90
  -8   4  -6   98.49    5.00
  -9   4  -6    8.40    1.40
  -9   4  -6    8.80    2.30
  -9   4  -6    6.50    1.60
  -9   4  -6    8.00    2.00
 -10   4  -6    2.10    1.20
 -10   4  -6    2.50    1.40
 -10   4  -6    2.60    2.10
 -11   4  -6    1.30    1.30
 -11   4  -6    2.50    1.90
 -12   4  -6    1.40    1.00
 -12   4  -6   -0.90    1.30
 -10  -3   6    0.50    1.30
 -10  -3   6    0.40    1.40
  -9  -3   6    5.80    1.30
  -9  -3   6    5.30    1.80
  -9  -3   6    6.30    2.10
  -9  -3   6    4.20    1.50
  -9  -3   6    6.80    2.10
  -8  -3   6    8.80    1.70
  -8  -3   6    7.00    1.90
  -8  -3   6    8.40    1.60
  -8  -3   6    8.80    1.50
  -7  -3   6  126.59    6.90
  -7  -3   6  123.19    6.50
  -7  -3   6  125.99    5.80
  -7  -3   6  128.09    5.60
  -7  -3   6  124.19    6.10
   6   3  -6    3.20    1.10
  -6  -3   6    5.00    1.10
  -6  -3   6    3.80    1.40
  -6  -3   6    5.90    1.70
   5   3  -6    4.30    1.00
  -5  -3   6    1.00    0.70
  -5  -3   6    0.90    0.70
   4   3  -6    6.80    1.00
  -4  -3   6    3.70    0.80
  -4  -3   6    4.00    0.80
   3   3  -6    4.70    0.80
   3   3  -6    4.30    1.10
  -3  -3   6    5.10    0.90
  -3  -3   6    4.70    0.70
  -3  -3   6    4.50    0.70
   2   3  -6  366.26   14.70
   2   3  -6  339.07   13.60
  -2  -3   6  393.96   13.80
  -2  -3   6  371.36   13.50
   1   3  -6   15.80    1.20
   1   3  -6   17.70    1.00
   1   3  -6   18.80    2.00
   1   3  -6   16.20    1.10
  -1  -3   6   18.80    1.40
  -1  -3   6   17.10    1.00
   0   3  -6   30.40    1.70
   0   3  -6   28.30    1.60
   0   3  -6   28.30    2.40
   0   3  -6   28.00    1.40
   0  -3   6   30.10    1.40
   0  -3   6   27.40    1.50
   0  -3   6   27.50    1.70
  -1   3  -6    6.40    0.80
  -1   3  -6    7.90    0.90
  -1   3  -6    6.80    1.40
   1  -3   6    5.80    0.70
   1  -3   6    6.90    0.70
  -2   3  -6  359.56   13.60
  -2   3  -6  356.86   13.30
  -2   3  -6  370.06   13.50
  -2   3  -6  368.96   14.60
   2  -3   6  358.26   13.30
  -3   3  -6  309.27   11.40
  -3   3  -6  327.37   11.60
  -3   3  -6  309.27   11.90
  -3   3  -6  315.57   12.90
  -3   3  -6  306.07   11.60
   3  -3   6  299.37   11.50
  -4   3  -6   84.69    4.70
  -4   3  -6   86.29    3.70
  -4   3  -6   88.09    3.70
  -4   3  -6   85.99    4.10
  -4   3  -6   83.19    3.40
   4  -3   6   79.79    3.50
  -5   3  -6  122.49    5.20
  -5   3  -6  122.29    4.80
  -5   3  -6  124.29    5.10
  -5   3  -6  125.49    5.60
   5  -3   6  115.39    4.90
  -6   3  -6    3.30    0.80
  -6   3  -6    4.40    0.80
  -6   3  -6    3.00    1.00
  -6   3  -6    3.30    0.90
   6  -3   6    2.70    0.60
  -7   3  -6  160.88    7.10
  -7   3  -6  174.38    6.70
  -7   3  -6  159.48    7.70
  -7   3  -6  164.18    7.90
  -8   3  -6   80.39    5.10
  -8   3  -6   71.19    4.80
  -8   3  -6   76.29    4.20
  -9   3  -6   42.10    4.20
  -9   3  -6   45.30    3.30
  -9   3  -6   45.10    2.80
 -10   3  -6    0.50    1.10
 -10   3  -6    0.30    1.40
 -10   3  -6    1.90    2.00
 -11   3  -6   -1.40    1.20
 -11   3  -6    1.20    1.80
 -12   3  -6    4.70    1.80
 -12   3  -6    3.60    1.10
 -11  -2   6    1.20    1.10
 -11  -2   6    0.00    1.30
 -10  -2   6   -0.20    1.10
 -10  -2   6   -1.90    1.30
 -10  -2   6   -3.10    1.20
  -9  -2   6   27.10    2.50
  -9  -2   6   31.50    3.60
  -9  -2   6   32.20    2.90
  -9  -2   6   36.30    2.90
  -9  -2   6   33.90    3.50
  -8  -2   6   23.10    2.90
  -8  -2   6   19.70    2.20
  -8  -2   6   23.90    2.70
  -8  -2   6   21.40    2.90
  -8  -2   6   21.20    2.20
  -7  -2   6   14.50    2.20
  -7  -2   6   17.90    2.00
  -7  -2   6   23.00    2.30
  -7  -2   6   20.10    2.70
  -7  -2   6   14.30    1.70
   6   2  -6   17.00    1.80
  -6  -2   6   15.50    1.80
  -6  -2   6   19.60    2.40
  -6  -2   6   18.20    1.70
   5   2  -6   31.30    2.10
  -5  -2   6   28.60    1.80
  -5  -2   6   29.10    2.10
  -5  -2   6   28.20    1.90
   4   2  -6    9.70    1.10
  -4  -2   6   10.40    1.00
  -4  -2   6    9.40    1.20
  -4  -2   6    8.60    1.00
   3   2  -6    0.90    0.70
   3   2  -6    1.20    0.50
  -3  -2   6    2.50    0.60
  -3  -2   6    0.90    0.50
  -3  -2   6    1.20    0.60
   2   2  -6    1.20    0.70
   2   2  -6    1.10    0.50
  -2  -2   6    0.90    0.50
  -2  -2   6    1.50    0.50
   1   2  -6   72.99    3.20
   1   2  -6   77.79    4.10
   1   2  -6   79.19    3.30
  -1  -2   6   76.49    3.30
  -1  -2   6   75.59    3.20
  -1  -2   6   75.89    3.10
   0   2  -6   66.29    2.90
   0   2  -6   69.59    2.90
   0   2  -6   67.39    3.80
   0   2  -6   62.09    2.60
   0  -2   6   66.59    2.80
   0  -2   6   66.29    2.70
   0  -2   6   63.19    2.90
  -1   2  -6   19.90    1.30
  -1   2  -6   18.90    1.30
  -1   2  -6   20.20    1.90
   1  -2   6   18.00    1.10
   1  -2   6   24.90    1.80
   1  -2   6   19.30    1.10
  -2   2  -6   22.40    2.10
  -2   2  -6   21.30    1.50
  -2   2  -6   23.50    1.30
  -2   2  -6   22.60    1.40
   2  -2   6   20.60    1.20
  -3   2  -6   46.40    2.00
  -3   2  -6   46.70    2.30
  -3   2  -6   48.20    3.20
  -3   2  -6   53.29    2.30
  -3   2  -6   45.10    2.60
   3  -2   6   48.20    2.10
  -4   2  -6  199.08    8.90
  -4   2  -6  195.78    7.80
  -4   2  -6  210.38    8.00
  -4   2  -6  210.58    8.30
  -4   2  -6  204.18    7.60
   4  -2   6  204.58    7.70
  -5   2  -6    8.10    0.90
  -5   2  -6    6.80    1.20
  -5   2  -6    8.70    1.10
  -5   2  -6    8.50    0.90
   5  -2   6    7.90    0.90
  -6   2  -6    1.50    0.60
  -6   2  -6    1.30    0.70
  -6   2  -6    1.10    0.80
  -6   2  -6    0.70    0.90
   6  -2   6    0.30    0.50
  -7   2  -6  157.08    7.70
  -7   2  -6  165.98    6.50
  -7   2  -6  158.28    7.70
  -7   2  -6  166.18    7.10
  -8   2  -6  147.79    7.70
  -8   2  -6  150.38    6.20
  -8   2  -6  147.79    6.70
  -9   2  -6    0.90    1.00
  -9   2  -6   -0.30    1.20
  -9   2  -6    1.50    1.90
 -10   2  -6    5.20    1.60
 -10   2  -6    2.10    1.20
 -10   2  -6    4.40    2.30
 -11   2  -6    1.00    1.80
 -11   2  -6    7.10    1.60
 -12   2  -6   33.90    3.00
 -12   2  -6   33.00    2.30
 -11  -1   6   -0.80    1.10
 -11  -1   6    0.50    1.10
 -10  -1   6    6.40    1.90
 -10  -1   6    8.50    2.10
 -10  -1   6    5.80    1.60
  -9  -1   6   11.30    1.60
  -9  -1   6    9.90    2.10
  -9  -1   6   12.10    2.00
  -9  -1   6    8.80    2.30
  -9  -1   6   12.90    1.90
  -8  -1   6   34.80    2.80
  -8  -1   6   33.00    3.30
  -8  -1   6   31.20    2.50
  -8  -1   6   32.20    3.40
  -8  -1   6   36.40    2.90
   7   1  -6   23.60    2.20
  -7  -1   6   25.20    2.10
  -7  -1   6   27.70    2.30
  -7  -1   6   24.10    2.80
  -7  -1   6   24.10    2.70
  -7  -1   6   23.00    2.00
   6   1  -6   10.90    1.40
  -6  -1   6    9.40    2.10
  -6  -1   6    8.30    1.10
  -6  -1   6   10.10    1.40
   5   1  -6  202.08    7.90
  -5  -1   6  188.08    8.10
  -5  -1   6  199.08    7.70
  -5  -1   6  200.78    7.90
   4   1  -6   11.40    1.20
  -4  -1   6   10.20    1.10
  -4  -1   6    9.90    1.00
  -4  -1   6    9.40    1.20
   3   1  -6   30.20    1.60
   3   1  -6   26.90    2.10
  -3  -1   6   29.00    1.60
  -3  -1   6   26.10    1.80
   2   1  -6  100.49    4.10
   2   1  -6   99.99    4.80
   2   1  -6  101.09    4.00
  -2  -1   6   99.09    4.00
  -2  -1   6   99.89    4.00
  -2  -1   6   94.99    4.10
  -2  -1   6   95.39    4.00
   1   1  -6    1.60    0.50
   1   1  -6    2.40    0.50
   1   1  -6    2.10    0.80
  -1  -1   6    2.20    0.40
  -1  -1   6    1.60    0.50
  -1  -1   6    1.70    0.40
   0   1  -6   48.00    2.00
   0   1  -6   50.19    2.30
   0   1  -6   51.79    3.10
   0   1  -6   51.49    2.40
   0  -1   6   43.00    2.20
   0  -1   6   50.19    2.20
   0  -1   6   51.19    2.20
  -1   1  -6   39.90    1.90
  -1   1  -6   37.90    2.60
  -1   1  -6   36.10    2.00
  -1   1  -6   34.70    1.50
  -1   1  -6   37.30    1.80
   1  -1   6   38.30    1.70
  -2   1  -6    3.20    0.70
  -2   1  -6    3.10    0.60
  -2   1  -6    2.90    0.90
  -2   1  -6    3.20    0.50
   2  -1   6    3.30    0.40
  -3   1  -6  153.78    7.00
  -3   1  -6  148.19    6.30
  -3   1  -6  153.98    6.00
  -3   1  -6  151.38    5.90
   3  -1   6  154.18    5.70
  -4   1  -6   35.90    2.60
  -4   1  -6   30.40    1.50
  -4   1  -6   35.30    2.00
  -4   1  -6   35.10    1.70
  -4   1  -6   35.30    2.30
   4  -1   6   36.70    1.60
  -5   1  -6    1.00    0.50
  -5   1  -6    0.70    0.40
  -5   1  -6    1.70    0.70
  -5   1  -6    0.60    0.70
   5  -1   6    0.80    0.40
  -6   1  -6    1.80    0.90
  -6   1  -6    2.50    0.70
  -6   1  -6    0.90    1.00
  -6   1  -6    1.10    0.50
   6  -1   6    1.90    0.50
  -7   1  -6    6.70    1.40
  -7   1  -6   11.10    1.90
  -7   1  -6    7.70    1.00
  -7   1  -6    8.50    1.40
  -8   1  -6    2.20    1.20
  -8   1  -6    1.00    0.90
  -8   1  -6    0.30    1.40
  -9   1  -6    0.80    1.00
  -9   1  -6    3.00    2.10
  -9   1  -6    2.60    1.50
 -10   1  -6    6.50    1.70
 -10   1  -6    5.20    2.30
 -11   1  -6    8.10    2.00
  12   0  -6    8.80    1.10
 -12   0   6    7.80    1.20
 -11   0   6    2.70    1.40
 -11   0   6    1.40    1.30
 -10   0   6   23.50    2.90
 -10   0   6   27.10    2.70
  -9   0   6    5.40    1.90
  -9   0   6    7.20    1.70
  -8   0   6    2.60    1.20
  -8   0   6    1.60    1.00
  -8   0   6    2.80    1.50
  -8   0   6    3.40    1.30
   7   0  -6  319.87   12.60
  -7   0   6  323.27   12.40
  -7   0   6  322.37   12.70
   6   0  -6 1282.07   46.00
  -6   0   6 1293.27   46.00
  -6   0   6 1230.78   45.70
   5   0  -6  363.36   13.40
  -5   0   6  361.16   13.20
  -5   0   6  324.67   13.60
  -5   0   6  368.66   13.50
   4   0  -6  266.77   10.00
  -4   0   6  251.17   10.20
  -4   0   6  265.87   10.00
  -4   0   6  266.37    9.90
   3   0  -6  423.76   16.80
   3   0  -6  437.56   16.10
   3   0  -6  443.96   16.20
  -3   0   6  442.46   16.30
  -3   0   6  456.85   16.20
  -3   0   6  435.96   16.10
  -3   0   6  435.86   16.10
   2   0  -6    1.80    0.50
   2   0  -6    2.10    0.50
   2   0  -6    2.90    0.80
  -2   0   6    2.10    0.50
  -2   0   6    3.10    0.50
  -2   0   6    2.90    0.50
  -2   0   6    1.80    0.40
   1   0  -6   39.90    2.60
   1   0  -6   43.70    2.10
   1   0  -6   43.30    2.00
  -1   0   6   44.60    2.00
  -1   0   6   42.00    1.90
  -1   0   6   39.60    1.90
   0   0  -6   17.80    1.30
   0   0  -6   16.70    0.90
   0   0  -6   18.40    1.10
   0   0  -6   17.30    1.70
   0   0  -6   17.10    1.10
   0   0   6   18.70    1.00
   0   0   6   18.10    1.10
  -1   0  -6    2.60    0.40
  -1   0  -6    2.90    0.60
  -1   0  -6    2.80    0.90
  -1   0  -6    1.90    0.40
  -1   0  -6    2.30    0.40
  -1   0  -6    2.70    0.70
   1   0   6    2.60    0.40
  -2   0  -6  883.71   32.20
  -2   0  -6  877.51   31.70
  -2   0  -6  875.91   31.90
  -2   0  -6  874.11   32.90
   2   0   6  910.11   31.60
  -3   0  -6  346.27   12.50
  -3   0  -6  322.97   12.10
  -3   0  -6  324.27   12.70
   3   0   6  335.67   12.00
  -4   0  -6  174.88    6.70
  -4   0  -6  158.58    6.90
  -4   0  -6  161.38    6.30
  -5   0  -6   28.70    2.30
  -5   0  -6   28.70    1.60
  -5   0  -6   30.30    2.10
   5   0   6   29.80    1.50
  -6   0  -6  117.09    5.90
  -6   0  -6  126.39    5.40
  -6   0  -6  113.19    4.60
  -6   0  -6  111.99    4.80
  -7   0  -6   22.50    2.80
  -7   0  -6   21.60    2.30
  -7   0  -6   24.40    2.30
  -7   0  -6   20.50    1.60
  -8   0  -6   76.69    5.20
  -8   0  -6   74.89    4.30
  -8   0  -6   77.19    3.60
  -9   0  -6   35.40    3.00
  -9   0  -6   37.20    4.20
  -9   0  -6   38.20    2.50
 -10   0  -6    3.30    1.50
 -10   0  -6    5.80    2.10
 -11   0  -6    1.60    1.50
 -11   0  -6    2.90    1.20
  12  -1  -6    0.70    0.80
 -12   1   6    0.80    1.10
 -11   1   6    0.80    1.30
 -11   1   6   -0.10    1.30
 -10   1   6    5.90    1.60
 -10   1   6    4.70    1.80
  -9   1   6   32.80    2.90
  -9   1   6   37.20    3.50
   8  -1  -6   27.30    2.20
  -8   1   6   27.50    2.40
  -8   1   6   26.20    3.00
  -8   1   6   28.90    2.50
  -8   1   6   29.10    2.50
   7  -1  -6    0.40    0.70
  -7   1   6   -1.10    0.80
  -7   1   6    0.60    0.70
   6  -1  -6   99.79    4.50
  -6   1   6  107.69    4.70
  -6   1   6   93.49    4.30
   5  -1  -6   21.00    1.50
  -5   1   6   21.40    1.60
   4  -1  -6   25.50    1.60
   4  -1  -6   24.20    1.90
  -4   1   6   26.20    1.60
  -4   1   6   22.20    1.50
   3  -1  -6    0.70    0.40
   3  -1  -6    0.70    0.40
   3  -1  -6    0.70    0.60
  -3   1   6    0.70    0.40
  -3   1   6    0.00    0.20
  -3   1   6    0.60    0.40
   2  -1  -6   14.90    1.00
   2  -1  -6   15.30    1.10
   2  -1  -6   16.20    1.60
  -2   1   6   14.30    1.10
  -2   1   6   14.00    1.00
  -2   1   6   15.90    1.00
   1  -1  -6    0.50    0.30
   1  -1  -6    0.70    0.40
   1  -1  -6    1.10    0.70
  -1   1   6    0.70    0.40
  -1   1   6    0.90    0.30
  -1   1   6    0.20    0.40
   0  -1  -6  139.19    5.20
   0  -1  -6  118.69    5.20
   0  -1  -6  135.29    5.20
   0  -1  -6  141.19    6.30
   0  -1  -6  138.99    5.60
   0   1   6  141.69    5.30
   0   1   6  139.89    5.10
  -1  -1  -6   45.20    1.80
  -1  -1  -6   42.60    2.30
  -1  -1  -6   40.70    1.90
  -1  -1  -6   44.40    2.90
  -1  -1  -6   39.80    1.80
  -1  -1  -6   42.50    2.10
  -2  -1  -6   32.90    1.70
  -2  -1  -6   39.00    1.90
  -2  -1  -6   35.00    2.20
  -2  -1  -6   35.20    1.50
  -2  -1  -6   38.00    2.60
  -2  -1  -6   34.10    1.60
  -3  -1  -6   43.50    2.30
  -3  -1  -6   47.10    2.70
  -3  -1  -6   47.80    1.90
  -4  -1  -6    2.90    0.50
  -4  -1  -6    1.80    0.70
  -4  -1  -6    1.90    0.80
  -5  -1  -6    1.20    0.80
  -5  -1  -6    0.90    0.40
  -6  -1  -6    2.00    1.30
  -6  -1  -6    2.20    1.00
  -7  -1  -6   11.00    2.20
  -7  -1  -6    9.90    1.10
  -7  -1  -6   10.20    1.70
  -8  -1  -6   27.30    2.00
  -8  -1  -6   22.00    3.00
  -8  -1  -6   24.90    2.50
  -9  -1  -6    2.50    1.00
  -9  -1  -6    2.30    1.40
  -9  -1  -6    3.80    2.00
 -10  -1  -6   13.20    2.60
 -10  -1  -6   18.90    2.00
 -11  -1  -6    6.10    1.70
 -11  -1  -6    2.10    1.00
  12  -2  -6    2.00    0.90
 -12   2   6    0.70    1.20
 -11   2   6    0.10    1.40
 -11   2   6    0.80    1.30
 -10   2   6    1.30    1.40
 -10   2   6    2.10    1.60
  -9   2   6    1.60    1.20
  -9   2   6    0.60    1.40
   8  -2  -6   15.40    1.70
  -8   2   6   11.30    1.70
  -8   2   6   15.30    2.30
  -8   2   6   15.50    1.90
   7  -2  -6    1.10    0.70
  -7   2   6    0.30    0.80
   6  -2  -6   17.60    1.60
  -6   2   6   20.80    1.70
   5  -2  -6  394.06   14.50
  -5   2   6  354.86   14.60
  -5   2   6  411.96   14.60
   4  -2  -6   11.10    1.00
   4  -2  -6   10.90    1.40
   4  -2  -6   14.30    1.20
  -4   2   6   11.30    1.10
  -4   2   6    9.90    1.00
  -4   2   6   11.10    1.10
   3  -2  -6  470.85   16.70
   3  -2  -6  455.15   17.50
   3  -2  -6  451.25   16.70
  -3   2   6  438.86   16.60
  -3   2   6  442.96   16.70
  -3   2   6  461.65   16.80
   2  -2  -6  119.29    4.80
   2  -2  -6  121.99    4.80
   2  -2  -6  124.39    5.70
  -2   2   6  117.99    5.00
  -2   2   6  127.49    4.80
  -2   2   6  114.89    4.70
   1  -2  -6   15.50    1.70
   1  -2  -6   16.50    1.10
   1  -2  -6   17.70    1.00
  -1   2   6   14.50    1.20
  -1   2   6   17.60    0.90
  -1   2   6   17.10    1.10
   0  -2  -6  164.18    6.10
   0  -2  -6  159.78    7.30
   0  -2  -6  158.18    6.20
   0  -2  -6  165.38    6.60
   0   2   6  158.88    6.20
   0   2   6  170.98    6.00
   0   2   6  164.58    6.60
  -1  -2  -6  719.33   25.90
  -1  -2  -6  721.73   26.70
  -1  -2  -6  712.13   25.20
  -1  -2  -6  665.03   25.20
  -1  -2  -6  706.23   25.50
   1   2   6  707.93   25.40
  -2  -2  -6   29.70    1.70
  -2  -2  -6   31.90    2.60
  -2  -2  -6   31.60    2.00
  -2  -2  -6   31.10    1.80
  -3  -2  -6   94.59    4.00
  -3  -2  -6   87.79    4.30
  -4  -2  -6    0.30    0.70
  -4  -2  -6    0.50    0.70
  -5  -2  -6    9.50    1.40
  -6  -2  -6   54.09    3.90
  -6  -2  -6   51.89    3.20
  -6  -2  -6   47.90    3.10
  -7  -2  -6   40.60    3.80
  -7  -2  -6   43.00    3.10
  -8  -2  -6    2.10    0.90
  -8  -2  -6    2.20    1.40
  -8  -2  -6    2.70    1.90
  -9  -2  -6   12.80    2.50
  -9  -2  -6    7.70    1.60
 -10  -2  -6    4.50    1.80
 -13   3   6    0.90    0.90
  12  -3  -6    0.80    0.80
 -12   3   6    2.80    1.20
  11  -3  -6    8.00    1.40
 -11   3   6    8.70    1.90
 -10   3   6    1.80    1.40
 -10   3   6    1.80    1.60
  -9   3   6    0.40    1.20
  -9   3   6    1.30    1.40
   8  -3  -6    2.00    0.90
  -8   3   6    4.10    1.10
  -8   3   6    1.30    1.00
  -8   3   6    2.10    1.30
   7  -3  -6    0.40    0.70
  -7   3   6    0.30    0.80
   6  -3  -6   31.90    2.10
  -6   3   6   34.50    2.20
   5  -3  -6    4.00    0.80
  -5   3   6    3.80    1.00
  -5   3   6    5.90    0.90
   4  -3  -6    2.80    0.70
   4  -3  -6    2.30    0.50
   4  -3  -6    2.50    0.60
   4  -3  -6    3.50    1.00
  -4   3   6    2.40    0.60
  -4   3   6    3.70    0.80
  -4   3   6    3.30    0.70
   3  -3  -6    7.00    0.70
   3  -3  -6    6.10    0.80
   3  -3  -6    7.10    1.40
   3  -3  -6    5.80    0.80
  -3   3   6    9.00    1.10
  -3   3   6    5.10    0.70
  -3   3   6    6.40    0.80
   2  -3  -6    5.30    0.60
   2  -3  -6    5.30    1.20
   2  -3  -6    5.30    0.50
   2  -3  -6    4.90    0.70
  -2   3   6    6.40    0.80
  -2   3   6    5.80    0.80
  -2   3   6    5.10    0.60
   1  -3  -6   16.10    1.90
   1  -3  -6   16.20    1.00
   1  -3  -6   15.10    1.10
  -1   3   6   14.50    1.10
  -1   3   6   15.30    0.90
  -1   3   6   15.50    1.30
   0  -3  -6   53.59    2.40
   0  -3  -6   50.99    3.40
   0  -3  -6   52.29    2.10
   0   3   6   50.39    2.60
   0   3   6   48.50    2.30
  -1  -3  -6    6.00    0.50
  -1  -3  -6    6.80    1.40
  -1  -3  -6    5.30    0.80
   1   3   6    5.20    0.70
   1   3   6    8.50    1.00
  -2  -3  -6  201.18    7.80
  -2  -3  -6  200.88    9.10
   2   3   6  196.48    8.00
  -3  -3  -6    5.40    0.90
   3   3   6    6.10    1.40
   3   3   6    5.20    0.90
  -4  -3  -6   -0.50    0.70
  -5  -3  -6    3.20    1.40
  -6  -3  -6   26.60    3.20
  -7  -3  -6   20.10    2.90
  -8  -3  -6   32.80    3.60
  -9  -3  -6    4.40    1.70
 -10  -3  -6    8.50    2.00
  13  -4  -6    1.30    0.70
 -13   4   6    2.20    1.00
  12  -4  -6    1.30    0.90
 -12   4   6   -0.40    1.00
  11  -4  -6    3.00    1.10
 -11   4   6    5.20    1.50
  10  -4  -6   60.29    3.60
 -10   4   6   68.29    3.90
   9  -4  -6   75.99    4.00
  -9   4   6   78.49    4.20
   8  -4  -6   15.90    1.80
  -8   4   6   20.60    2.10
  -8   4   6   20.40    2.00
   7  -4  -6    7.80    1.20
  -7   4   6    9.20    1.40
   6  -4  -6   14.20    1.50
  -6   4   6   14.10    2.10
  -6   4   6   17.40    1.60
   5  -4  -6   64.09    2.90
   5  -4  -6   68.59    3.30
  -5   4   6   68.49    3.50
  -5   4   6   69.39    3.20
   4  -4  -6  144.19    6.90
   4  -4  -6  143.59    5.90
   4  -4  -6  150.88    6.00
   4  -4  -6  142.99    5.60
  -4   4   6  142.79    6.20
  -4   4   6  155.88    5.90
  -4   4   6  143.99    5.80
  -4   4   6  142.49    6.90
   3  -4  -6    2.20    0.50
   3  -4  -6    1.80    0.40
   3  -4  -6    2.40    0.60
   3  -4  -6    2.70    1.00
  -3   4   6    2.40    0.80
  -3   4   6    2.00    0.50
  -3   4   6    2.60    0.60
   2  -4  -6  101.59    4.00
   2  -4  -6  107.39    4.20
   2  -4  -6  107.89    4.40
   2  -4  -6  102.89    5.50
  -2   4   6  100.59    4.60
  -2   4   6  104.29    4.30
  -2   4   6  102.99    4.10
   1  -4  -6   90.99    3.80
   1  -4  -6   89.29    5.00
   1  -4  -6   84.49    3.30
   1  -4  -6   89.39    3.50
  -1   4   6   86.79    3.40
  -1   4   6   84.69    4.00
  -1   4   6   86.69    3.60
   0  -4  -6  216.08    8.00
   0  -4  -6  210.68    8.40
   0  -4  -6  218.28    9.80
   0   4   6  221.38    8.60
   0   4   6  214.18    8.20
  -1  -4  -6   20.30    2.30
  -1  -4  -6   18.90    1.50
  -1  -4  -6   17.90    0.90
   1   4   6   17.70    2.20
   1   4   6   18.00    1.50
   1   4   6   16.90    1.20
  -2  -4  -6    2.10    0.80
   2   4   6    2.00    0.70
   2   4   6    3.20    0.60
   2   4   6    3.00    1.20
  -3  -4  -6   30.80    2.40
  -6  -4  -6  109.59    6.10
  -7  -4  -6    1.70    1.70
  -8  -4  -6    9.70    2.20
  -9  -4  -6   -0.20    1.20
  13  -5  -6   -1.50    0.50
 -13   5   6    0.40    0.90
  12  -5  -6    1.00    0.80
 -12   5   6   -0.20    1.00
  11  -5  -6    7.20    1.40
 -11   5   6   10.10    1.70
  10  -5  -6   14.30    1.90
 -10   5   6   15.50    2.00
   9  -5  -6   -0.10    0.80
  -9   5   6    1.30    1.10
   8  -5  -6    2.10    0.90
   8  -5  -6    2.40    1.00
  -8   5   6    5.50    1.20
  -8   5   6    3.60    1.20
   7  -5  -6    5.40    1.00
  -7   5   6    5.60    1.10
  -7   5   6    3.20    2.20
   6  -5  -6   -0.40    0.50
  -6   5   6    1.50    0.70
  -6   5   6    0.00    1.20
   5  -5  -6    1.30    0.70
   5  -5  -6    1.30    0.50
  -5   5   6    0.70    0.60
  -5   5   6    0.60    0.80
   4  -5  -6    1.30    0.60
   4  -5  -6    1.40    0.50
   4  -5  -6    1.40    0.50
  -4   5   6    1.50    1.00
  -4   5   6    1.40    0.50
  -4   5   6    1.30    0.70
  -4   5   6    1.10    0.60
   3  -5  -6    7.70    0.70
   3  -5  -6    9.90    1.10
   3  -5  -6    7.20    0.90
  -3   5   6    8.30    0.90
  -3   5   6    8.70    1.70
  -3   5   6    8.30    1.20
  -3   5   6    7.60    0.90
   2  -5  -6  159.18    6.10
   2  -5  -6  174.18    6.70
   2  -5  -6  163.58    6.40
  -2   5   6  160.28    7.90
  -2   5   6  165.48    6.90
  -2   5   6  163.08    6.20
  -2   5   6  157.28    6.40
   1  -5  -6   19.60    1.00
   1  -5  -6   21.00    1.50
   1  -5  -6   17.90    1.20
  -1   5   6   17.50    1.20
  -1   5   6   16.90    1.60
  -1   5   6   16.60    2.30
  -1   5   6   20.50    1.10
   0  -5  -6  118.69    5.00
   0  -5  -6  110.49    4.40
   0   5   6  112.89    5.10
   0   5   6  116.29    6.20
  -1  -5  -6   58.69    2.40
  -1  -5  -6   60.99    3.10
   1   5   6   56.29    4.10
   1   5   6   58.09    3.10
  -2  -5  -6   28.60    2.20
   2   5   6   25.20    2.70
  13  -6  -6    3.40    0.80
 -13   6   6    3.20    0.90
  12  -6  -6    3.00    0.90
 -12   6   6    3.80    1.20
  11  -6  -6   41.90    2.70
 -11   6   6   45.00    3.00
  10  -6  -6   50.69    3.10
 -10   6   6   51.09    3.30
   9  -6  -6   78.09    4.00
  -9   6   6   68.79    5.50
   8  -6  -6    3.70    1.40
   8  -6  -6    5.10    1.10
  -8   6   6    2.50    2.20
  -8   6   6    2.00    1.30
   7  -6  -6   19.10    1.80
  -7   6   6   17.60    3.00
  -7   6   6   18.10    1.80
   6  -6  -6   10.00    1.30
  -6   6   6   10.90    2.00
  -6   6   6   12.10    1.40
  -6   6   6   15.60    2.40
   5  -6  -6   60.89    2.70
   5  -6  -6   59.99    3.10
   5  -6  -6   69.19    3.80
  -5   6   6   57.19    3.50
  -5   6   6   56.79    3.00
  -5   6   6   58.29    2.90
   4  -6  -6   21.40    1.70
   4  -6  -6   21.80    1.60
   4  -6  -6   22.20    1.40
  -4   6   6   20.70    1.90
  -4   6   6   19.30    1.50
  -4   6   6   20.50    2.50
  -4   6   6   21.10    1.50
   3  -6  -6   35.90    1.80
   3  -6  -6   33.70    2.00
   3  -6  -6   36.10    2.20
  -3   6   6   33.80    1.80
  -3   6   6   36.30    2.40
  -3   6   6   34.10    3.20
   2  -6  -6    1.00    0.60
   2  -6  -6    1.40    0.40
   2  -6  -6    0.90    0.50
  -2   6   6    0.70    0.60
  -2   6   6    0.80    1.00
  -2   6   6    1.30    0.40
   1  -6  -6   74.99    3.60
   1  -6  -6   75.09    3.20
   1  -6  -6   69.39    2.90
  -1   6   6   72.89    3.00
  -1   6   6   71.89    4.80
  -1   6   6   73.89    3.70
   0  -6  -6  117.79    4.80
   0  -6  -6  127.69    5.50
   0   6   6  122.69    6.80
   0   6   6  119.89    5.40
  -1  -6  -6    2.10    0.90
  -1  -6  -6    0.90    0.40
   1   6   6    1.40    1.10
  -2  -6  -6    2.20    1.10
   3   6   6    1.90    0.90
  13  -7  -6    2.80    0.70
  12  -7  -6    4.40    1.00
  11  -7  -6    5.40    1.20
  10  -7  -6   28.00    2.30
 -10   7   6   20.20    3.30
   9  -7  -6   24.10    2.20
  -9   7   6   23.70    3.60
   8  -7  -6   16.00    1.60
   8  -7  -6   18.30    1.80
  -8   7   6   16.30    3.00
   7  -7  -6    8.40    1.40
   7  -7  -6    9.70    1.40
   7  -7  -6    9.40    1.30
  -7   7   6    7.70    2.60
  -7   7   6   10.20    1.40
   6  -7  -6    1.90    0.80
  -6   7   6    2.60    1.70
   5  -7  -6   52.49    2.90
   5  -7  -6   51.29    3.50
   5  -7  -6   48.40    3.00
   5  -7  -6   51.19    2.50
  -5   7   6   46.20    2.70
  -5   7   6   41.70    5.20
   4  -7  -6   28.20    1.90
   4  -7  -6   25.50    1.60
   4  -7  -6   26.20    2.00
  -4   7   6   26.20    3.00
  -4   7   6   23.30    1.70
   3  -7  -6   21.70    1.60
   3  -7  -6   21.60    1.40
   3  -7  -6   19.60    1.90
  -3   7   6   18.80    1.40
  -3   7   6   19.40    1.90
  -3   7   6   20.10    2.70
   2  -7  -6  104.89    4.20
   2  -7  -6  114.79    5.00
   2  -7  -6  102.79    4.40
  -2   7   6  102.79    4.30
  -2   7   6  103.29    6.30
  -2   7   6  101.29    5.00
   1  -7  -6   81.09    4.00
   1  -7  -6   78.19    3.40
   1  -7  -6   79.39    3.20
  -1   7   6   76.69    3.30
  -1   7   6   77.99    5.40
  -1   7   6   77.09    4.00
   0  -7  -6  113.79    5.10
   0  -7  -6  117.09    5.40
   0   7   6  111.69    4.50
  -1  -7  -6   33.00    2.60
  -2  -7  -6    2.80    1.20
  12  -8  -6   10.70    1.40
  11  -8  -6    2.00    1.00
  10  -8  -6   15.70    1.80
 -10   8   6   12.70    3.00
   9  -8  -6    0.30    0.90
  -9   8   6   -0.70    2.50
   8  -8  -6    6.30    1.20
   8  -8  -6    6.10    1.20
  -8   8   6    9.40    2.80
   7  -8  -6    5.20    1.20
   7  -8  -6    6.20    1.40
  -7   8   6    7.00    2.70
   6  -8  -6   21.60    2.10
   6  -8  -6   15.80    1.90
   6  -8  -6   21.30    2.00
  -6   8   6   14.60    2.80
   5  -8  -6   39.30    2.70
   5  -8  -6   37.70    3.40
   5  -8  -6   37.40    2.20
   4  -8  -6    5.90    0.90
   4  -8  -6    4.60    1.50
   4  -8  -6    5.00    1.20
   3  -8  -6   44.80    2.90
   3  -8  -6   45.90    2.30
   3  -8  -6   44.90    3.30
   2  -8  -6   21.20    1.40
   2  -8  -6   19.50    2.10
   2  -8  -6   17.00    2.30
   1  -8  -6   59.19    2.60
   1  -8  -6   57.79    3.50
   1  -8  -6   56.79    5.40
   0  -8  -6   22.60    2.30
   0  -8  -6   22.40    1.30
   0  -8  -6   24.10    3.90
  -1  -8  -6    4.60    2.30
  12  -9  -6    2.40    0.90
  11  -9  -6   71.39    3.60
 -11   9   6   66.19    4.40
  10  -9  -6   27.10    2.20
 -10   9   6   25.30    3.50
   9  -9  -6    1.60    1.00
  -9   9   6    1.10    2.60
   8  -9  -6    1.40    1.00
   8  -9  -6    0.50    1.00
  -8   9   6    3.60    2.60
   7  -9  -6   39.80    2.80
   7  -9  -6   42.80    3.00
  -7   9   6   39.50    5.00
   6  -9  -6   63.99    3.70
   6  -9  -6   67.89    3.80
  -6   9   6   65.19    5.40
   5  -9  -6    1.50    1.20
   5  -9  -6    2.50    0.90
  -5   9   6    0.90    1.80
   4  -9  -6    1.20    1.50
   4  -9  -6    0.50    0.80
   4  -9  -6    1.90    1.00
   4  -9  -6    1.10    2.00
   3  -9  -6   36.30    5.00
   3  -9  -6   33.80    3.30
   3  -9  -6   28.80    2.60
   3  -9  -6   36.80    2.10
   2  -9  -6  257.97    9.80
   2  -9  -6  261.07   14.00
   1  -9  -6  216.88   12.60
   1  -9  -6  224.38    8.50
   0  -9  -6   47.60    6.00
   0  -9  -6   44.70    2.30
  -1  -9  -6    6.10    2.90
  -1  -9  -6    4.10    0.90
  12 -10  -6   17.00    1.60
  11 -10  -6    1.00    1.00
 -11  10   6   -2.00    1.20
  10 -10  -6    0.30    1.00
 -10  10   6   -5.30    2.00
   9 -10  -6    5.30    1.30
  -9  10   6    2.30    2.70
   8 -10  -6   11.10    1.60
   8 -10  -6   12.00    1.70
  -8  10   6   14.80    3.20
   7 -10  -6    1.50    1.30
   7 -10  -6    4.40    1.30
  -7  10   6    5.90    2.70
   6 -10  -6   12.10    1.90
   6 -10  -6   21.50    2.30
   6 -10  -6   14.40    2.00
  -6  10   6   11.90    2.90
   5 -10  -6    3.70    1.50
   5 -10  -6    4.20    1.40
   5 -10  -6    5.50    3.70
   5 -10  -6    6.70    1.20
  -5  10   6    3.00    2.30
   4 -10  -6    3.30    1.40
   4 -10  -6    2.90    1.00
   4 -10  -6    2.80    3.20
  -4  10   6    2.90    1.90
   3 -10  -6   16.00    4.00
   3 -10  -6   18.40    1.80
   2 -10  -6   -0.30    2.10
   2 -10  -6    1.20    0.90
   1 -10  -6    9.30    3.20
   1 -10  -6   12.30    1.30
   0 -10  -6    0.90    2.40
   0 -10  -6    0.80    0.80
  -1 -10  -6    1.80    0.90
  -1 -10  -6    2.50    2.90
  -2 -10  -6    0.20    1.20
  11 -11  -6    5.60    1.10
 -11  11   6    1.70    1.30
  10 -11  -6    8.70    1.40
 -10  11   6    2.50    2.10
   9 -11  -6    8.50    1.50
  -9  11   6    5.50    2.60
   8 -11  -6   19.10    2.30
   8 -11  -6   18.90    2.20
  -8  11   6   15.50    3.00
   7 -11  -6  113.29    5.60
   7 -11  -6  118.19    5.60
  -7  11   6  119.89    7.20
   6 -11  -6   34.60    2.90
   6 -11  -6   36.90    3.10
  -6  11   6   38.20    4.60
   5 -11  -6    3.70    1.40
   5 -11  -6    2.60    3.30
   5 -11  -6    3.20    1.10
   5 -11  -6    3.70    1.50
  -5  11   6    0.00    2.20
   4 -11  -6   20.30    2.40
   4 -11  -6   22.80    5.00
   4 -11  -6   21.90    2.20
   3 -11  -6    2.40    1.10
   3 -11  -6   -0.60    1.10
   3 -11  -6    2.30    3.00
   2 -11  -6    3.10    1.10
   2 -11  -6    4.90    3.00
   2 -11  -6    2.60    1.60
   1 -11  -6    4.00    1.10
   1 -11  -6    4.50    3.10
   0 -11  -6    4.60    3.30
   0 -11  -6    0.90    0.90
  -1 -11  -6    5.00    3.50
 -11  12   6    0.60    0.90
  10 -12  -6    5.30    1.20
 -10  12   6    1.20    1.60
   9 -12  -6    3.10    1.20
  -9  12   6    0.40    2.00
   8 -12  -6   -0.20    1.10
   8 -12  -6   -1.10    1.00
  -8  12   6    0.00    2.20
   7 -12  -6    7.40    1.50
   7 -12  -6    9.30    1.70
  -7  12   6    9.70    2.50
   6 -12  -6    1.90    3.30
   6 -12  -6    4.30    1.50
   6 -12  -6    4.00    1.50
  -6  12   6    9.20    2.40
   5 -12  -6    1.80    1.40
   5 -12  -6    1.70    1.10
   5 -12  -6    0.80    1.40
   5 -12  -6    1.40    3.30
   4 -12  -6    1.70    1.30
   4 -12  -6   -0.90    1.00
   4 -12  -6    1.00    3.20
   3 -12  -6    2.60    1.40
   3 -12  -6    0.90    1.10
   3 -12  -6    3.40    3.40
   2 -12  -6    3.60    2.60
   2 -12  -6    5.30    1.30
   2 -12  -6    8.10    3.70
   1 -12  -6   14.30    4.20
   0 -12  -6    3.20    3.50
 -10  13   6    6.60    1.50
  -9  13   6   23.10    2.80
   8 -13  -6   36.10    2.20
   8 -13  -6   31.90    2.70
  -8  13   6   36.40    3.60
   7 -13  -6   42.90    3.00
   7 -13  -6   32.10    2.60
  -7  13   6   38.30    3.50
   6 -13  -6   17.20    2.00
   6 -13  -6   13.60    4.10
   6 -13  -6   13.20    2.00
   5 -13  -6   12.00    1.90
   5 -13  -6   13.60    2.00
   5 -13  -6    9.90    4.00
   4 -13  -6   43.60    7.60
   4 -13  -6   35.80    3.30
   3 -13  -6   16.50    4.50
   2 -13  -6    5.50    3.70
   1 -13  -6    5.90    3.80
   0 -13  -6   10.50    3.70
   7 -14  -6    4.20    1.30
   6 -14  -6    6.50    3.30
   6 -14  -6    9.10    1.70
   5 -14  -6    0.40    1.50
   5 -14  -6    1.20    3.20
   4 -14  -6    3.00    3.40
   4 -14  -6    0.60    1.50
   3 -14  -6    8.40    3.90
   3 -14  -6    4.90    1.60
   2 -14  -6    2.10    3.20
  -2  15  -7   17.50    3.40
  -3  15  -7   -3.30    2.20
  -4  15  -7   -5.20    2.70
  -5  15  -7   18.00    4.10
  -6  15  -7   64.59    5.10
   0 -14   7    6.80    1.20
   0 -14   7    5.20    1.30
  -1  14  -7   -1.10    2.50
   1 -14   7    2.10    1.00
   1 -14   7    0.30    1.10
  -2  14  -7   -2.60    3.40
   2 -14   7    2.80    0.90
   2 -14   7    1.10    1.00
  -3  14  -7   -1.30    4.10
   3 -14   7   12.40    1.30
   3 -14   7    6.70    1.40
  -4  14  -7    0.00    4.40
   4 -14   7    5.50    1.30
  -5  14  -7   -0.40    4.80
   5 -14   7   11.30    1.50
  -6  14  -7   -0.40    3.90
   6 -14   7    6.40    1.40
  -2 -13   7    9.20    1.50
  -2 -13   7   13.70    2.30
  -1 -13   7    0.00    1.50
  -1 -13   7   -0.90    0.90
   0  13  -7   16.30    3.80
   0 -13   7   11.20    1.60
   0 -13   7   10.60    1.80
  -1  13  -7   90.29    8.70
   1 -13   7   93.49    4.80
   1 -13   7  100.49    4.60
  -2  13  -7  103.29   10.30
   2 -13   7   98.79    5.10
   2 -13   7  101.09    4.70
  -3  13  -7    0.40    4.80
   3 -13   7    1.80    1.20
   3 -13   7    1.80    0.90
  -4  13  -7   -7.00    4.70
   4 -13   7    2.10    1.20
   4 -13   7    3.80    0.90
  -5  13  -7   28.30    6.20
   5 -13   7   33.10    2.50
  -6  13  -7   37.00    7.20
   6 -13   7   51.29    3.00
 -10  13  -7    6.40    1.40
  -3 -12   7    1.60    1.50
  -3 -12   7    5.10    1.30
  -3 -12   7    6.20    1.20
  -2 -12   7    0.90    1.70
  -2 -12   7    4.80    1.10
  -2 -12   7    1.90    1.20
   1  12  -7   51.89    5.50
  -1 -12   7   26.70    2.80
  -1 -12   7   33.50    3.10
  -1 -12   7   28.90    2.70
   0  12  -7    5.50    3.30
   0 -12   7    4.10    1.30
   0 -12   7    1.80    1.30
   0 -12   7    1.10    1.20
  -1  12  -7    0.10    3.80
   1 -12   7   -0.60    1.00
   1 -12   7    0.20    1.20
   1 -12   7    0.20    1.30
  -2  12  -7   25.00    6.00
   2 -12   7   20.10    2.50
   2 -12   7   23.00    2.30
   2 -12   7   23.30    2.50
  -3  12  -7   13.50    5.40
   3 -12   7   15.00    1.70
   3 -12   7   16.80    2.00
  -4  12  -7    2.00    4.60
   4 -12   7    4.70    1.20
   4 -12   7    4.00    1.00
  -5  12  -7   14.00    5.10
   5 -12   7   17.10    2.00
  -6  12  -7   23.10    5.40
   6 -12   7   22.90    2.20
  -9  12  -7    3.00    1.60
 -10  12  -7    4.70    1.60
 -11  12  -7    9.00    1.60
  -4 -11   7    2.60    1.30
  -4 -11   7    3.00    1.10
  -4 -11   7   -1.10    1.50
  -3 -11   7    4.20    1.30
  -3 -11   7    5.40    1.60
  -3 -11   7    3.00    1.90
  -2 -11   7    3.60    1.60
  -2 -11   7    3.90    1.40
  -2 -11   7    4.80    1.70
   1  11  -7   39.00    6.20
  -1 -11   7   24.90    3.00
  -1 -11   7   19.50    2.30
  -1 -11   7   23.00    2.70
   0  11  -7   21.60    4.50
   0 -11   7   18.50    2.10
   0 -11   7   19.40    2.40
   0 -11   7   23.20    2.90
  -1  11  -7  111.59   10.60
   1 -11   7  101.79    5.50
   1 -11   7  112.69    5.20
   1 -11   7  107.29    5.90
  -2  11  -7   -0.80    4.10
   2 -11   7   -0.30    1.10
   2 -11   7    0.00    0.90
   2 -11   7    0.50    1.10
  -3  11  -7    6.30    4.50
   3 -11   7    5.20    1.50
   3 -11   7    5.90    1.20
   3 -11   7    6.40    1.30
  -4  11  -7   16.00    4.80
   4 -11   7   10.90    2.50
   4 -11   7   12.90    2.00
   4 -11   7   12.50    1.50
  -5  11  -7    3.20    3.70
   5 -11   7    3.70    1.30
  -6  11  -7    1.60    3.40
  -8  11  -7    8.70    2.00
  -9  11  -7   28.00    3.30
 -10  11  -7   79.59    5.00
 -11  11  -7    8.40    1.80
  -5 -10   7    1.20    1.10
  -5 -10   7   -3.10    1.40
  -5 -10   7    1.90    1.30
  -4 -10   7    0.80    1.20
  -4 -10   7   -2.20    1.70
  -4 -10   7    1.00    1.50
  -3 -10   7    0.70    1.70
  -3 -10   7    0.70    1.50
  -3 -10   7   -0.80    1.10
  -3 -10   7    1.70    1.10
  -2 -10   7    2.40    1.40
  -2 -10   7    3.10    1.70
  -2 -10   7   -0.10    1.30
  -2 -10   7    1.10    1.10
   1  10  -7   36.70    5.90
  -1 -10   7   23.40    2.70
  -1 -10   7   29.90    2.90
  -1 -10   7   31.10    2.40
  -1 -10   7   30.10    3.30
   0  10  -7   27.20    5.10
   0 -10   7   25.30    2.90
   0 -10   7   26.10    2.40
   0 -10   7   24.00    2.60
  -1  10  -7   34.60    6.00
   1 -10   7   41.40    2.90
   1 -10   7   43.10    3.20
   1 -10   7   39.90    2.80
  -2  10  -7    7.50    4.40
   2 -10   7    6.30    1.30
   2 -10   7    7.90    1.60
  -3  10  -7    0.20    3.90
   3 -10   7    1.40    0.90
   3 -10   7    2.00    1.10
  -4  10  -7   -0.40    3.30
   4 -10   7    1.70    1.00
   4 -10   7    0.60    0.80
  -5  10  -7    0.40    3.00
   5 -10   7    0.80    1.00
  -6  10  -7    6.90    1.80
   6 -10   7    2.30    1.10
  -7  10  -7   12.40    2.40
   7 -10   7    8.00    1.50
  -8  10  -7   30.10    3.60
   8 -10   7   28.90    2.60
  -9  10  -7   28.70    3.50
 -10  10  -7  101.89    5.90
 -11  10  -7   23.90    2.80
 -12  10  -7   11.30    1.80
  -6  -9   7   11.10    1.70
  -6  -9   7   10.40    1.90
  -6  -9   7    6.90    1.70
  -5  -9   7    5.70    1.80
  -5  -9   7    7.30    2.00
  -5  -9   7    6.00    1.50
  -4  -9   7    1.40    1.10
  -4  -9   7    1.20    1.40
  -4  -9   7    0.00    1.40
  -4  -9   7    1.20    1.60
  -3  -9   7    7.90    1.80
  -3  -9   7   10.10    1.50
  -3  -9   7    7.80    2.10
  -3  -9   7    6.80    1.70
  -2  -9   7    4.40    1.70
  -2  -9   7    1.10    1.30
  -2  -9   7    3.40    1.40
  -2  -9   7    2.70    1.00
   1   9  -7   67.59    6.90
  -1  -9   7   73.89    3.60
  -1  -9   7   64.79    4.10
  -1  -9   7   72.39    4.00
  -1  -9   7   67.99    4.50
   0   9  -7   51.19    7.70
   0  -9   7   64.39    3.30
   0  -9   7   69.29    4.20
   0  -9   7   66.09    3.70
  -1   9  -7   -4.40    3.30
   1  -9   7    0.70    0.90
   1  -9   7   -0.40    0.90
  -2   9  -7    3.10    3.90
   2  -9   7    4.50    1.20
   2  -9   7    4.10    1.40
  -3   9  -7   62.59    8.40
   3  -9   7   62.09    3.60
  -4   9  -7   20.10    4.40
   4  -9   7   22.10    2.10
  -6   9  -7   36.70    3.40
   6  -9   7   30.70    2.50
  -7   9  -7    2.20    1.70
   7  -9   7    1.40    1.00
  -8   9  -7   12.00    2.50
   8  -9   7    8.90    1.60
  -9   9  -7    1.70    1.70
   9  -9   7    0.30    1.10
 -10   9  -7   11.10    2.40
  10  -9   7   12.50    1.80
 -11   9  -7    8.60    1.90
 -12   9  -7    0.90    1.10
  -7  -8   7   -3.40    1.10
  -7  -8   7    0.60    1.30
  -7  -8   7    0.70    1.00
  -6  -8   7   21.70    2.90
  -6  -8   7   17.60    2.30
  -6  -8   7   23.70    2.60
  -5  -8   7   28.30    2.40
  -5  -8   7   26.20    2.90
  -5  -8   7   22.70    2.50
  -5  -8   7   28.70    3.40
  -4  -8   7   15.90    2.30
  -4  -8   7   16.70    2.60
  -4  -8   7   11.40    2.00
  -4  -8   7   16.00    1.80
  -3  -8   7    0.00    1.30
  -3  -8   7   -0.10    0.90
  -3  -8   7   -1.10    1.00
  -3  -8   7    1.20    1.40
   2   8  -7    1.30    1.20
  -2  -8   7    1.10    1.40
  -2  -8   7   -0.50    1.00
  -2  -8   7   -1.10    1.10
  -2  -8   7   -0.40    0.80
   1   8  -7    7.50    2.40
  -1  -8   7    2.40    1.20
  -1  -8   7    2.50    0.90
   0  -8   7   35.60    2.20
   0  -8   7   31.50    2.70
   1  -8   7   14.00    1.80
   2  -8   7   19.30    2.00
   3  -8   7   68.99    4.40
  -4   8  -7   27.10    2.40
   4  -8   7   33.30    2.30
   5  -8   7    4.50    1.10
  -6   8  -7    7.10    1.90
   6  -8   7    5.30    1.20
  -7   8  -7    1.10    1.40
  -7   8  -7    2.90    1.60
  -8   8  -7    4.40    1.80
  -8   8  -7    2.60    1.70
  -9   8  -7   44.40    4.10
  -9   8  -7   42.30    4.20
 -10   8  -7   38.60    3.80
 -10   8  -7   39.20    3.90
 -11   8  -7    2.80    1.70
 -11   8  -7    2.30    1.50
 -12   8  -7   -0.20    1.20
  -8  -7   7    4.70    1.20
  -8  -7   7    6.90    1.70
  -8  -7   7    1.70    1.00
  -7  -7   7   10.30    2.20
  -7  -7   7    5.00    1.70
  -7  -7   7    9.80    1.80
  -6  -7   7   13.30    2.60
  -6  -7   7   12.60    1.70
  -6  -7   7   14.10    2.20
  -6  -7   7   14.30    2.20
  -5  -7   7    3.20    1.60
  -5  -7   7    2.80    1.50
  -5  -7   7    4.10    2.00
  -5  -7   7    2.50    1.10
  -4  -7   7    1.30    1.00
  -4  -7   7    0.40    1.20
  -4  -7   7    0.40    1.50
  -4  -7   7    0.80    1.30
   3   7  -7    2.10    1.10
  -3  -7   7    0.80    1.20
  -3  -7   7    0.00    0.90
  -3  -7   7    1.80    1.20
  -3  -7   7    2.30    1.50
   2   7  -7   16.80    1.80
  -2  -7   7   14.60    1.50
  -2  -7   7   15.00    2.20
   1   7  -7   44.70    4.50
   1   7  -7   47.70    2.70
  -1  -7   7   49.00    2.60
  -1  -7   7   49.60    3.20
   0   7  -7    2.80    1.90
   0  -7   7    2.90    0.80
  -1   7  -7    3.00    1.90
  -2   7  -7    8.50    2.50
  -3   7  -7   15.80    1.70
  -3   7  -7   24.90    3.80
  -4   7  -7    3.10    1.00
  -4   7  -7    4.20    2.00
  -5   7  -7    5.60    2.10
  -5   7  -7    4.80    1.30
  -6   7  -7    2.50    1.50
  -6   7  -7    4.30    1.50
  -7   7  -7    1.90    1.60
  -7   7  -7    1.60    0.90
  -7   7  -7    2.10    1.50
  -8   7  -7    0.30    0.90
  -8   7  -7    1.70    1.50
  -8   7  -7    0.10    1.50
  -9   7  -7    0.90    1.60
  -9   7  -7    1.90    1.80
 -10   7  -7   12.00    1.80
 -10   7  -7   12.10    2.50
 -10   7  -7   10.50    2.40
 -11   7  -7    9.00    2.20
 -11   7  -7    9.00    2.10
 -11   7  -7    9.70    1.60
 -12   7  -7   -0.10    1.00
 -12   7  -7   -0.80    1.20
 -12   7  -7    0.40    1.30
  -9  -6   7    0.00    0.80
  -9  -6   7   -0.70    0.90
  -8  -6   7   13.90    1.90
  -8  -6   7    8.30    1.70
  -8  -6   7   14.50    2.30
  -7  -6   7   12.30    2.10
  -7  -6   7   11.10    1.90
  -7  -6   7   11.60    2.40
  -6  -6   7   45.10    4.30
  -6  -6   7   44.00    2.90
  -6  -6   7   42.20    3.60
  -6  -6   7   41.30    3.40
  -5  -6   7  125.69    6.30
  -5  -6   7  145.49    7.30
  -5  -6   7  133.99    5.90
  -5  -6   7  132.49    6.60
   4   6  -7   53.39    3.40
  -4  -6   7   53.29    3.50
  -4  -6   7   54.79    3.00
  -4  -6   7   49.70    3.50
  -4  -6   7   53.79    4.00
   3   6  -7   40.60    2.70
  -3  -6   7   37.60    3.20
  -3  -6   7   33.80    2.30
   2   6  -7   24.00    3.30
   2   6  -7   31.70    2.10
  -2  -6   7   30.70    1.90
   1   6  -7  169.78    7.30
   1   6  -7  199.18    9.40
  -1  -6   7  181.08    7.10
   0   6  -7  376.66   15.60
   0  -6   7  327.27   13.00
  -1   6  -7  194.38    9.70
  -2   6  -7   18.00    2.90
  -2   6  -7   11.10    1.30
  -3   6  -7  437.26   17.80
  -3   6  -7  399.16   15.90
  -4   6  -7  425.46   16.00
  -4   6  -7  441.56   18.30
  -4   6  -7  430.36   16.60
  -5   6  -7   28.60    2.50
  -5   6  -7   32.40    2.00
  -5   6  -7   31.40    3.50
  -5   6  -7   34.70    2.00
  -6   6  -7   17.80    1.60
  -6   6  -7   18.70    2.50
  -6   6  -7   17.90    1.60
  -6   6  -7   18.90    2.30
  -7   6  -7    7.90    1.20
  -7   6  -7    8.20    1.90
  -7   6  -7    6.10    1.20
  -7   6  -7    6.40    1.70
  -8   6  -7   71.09    3.90
  -8   6  -7   73.29    4.80
  -8   6  -7   75.49    3.70
  -8   6  -7   68.49    4.80
  -9   6  -7  358.36   14.10
  -9   6  -7  363.46   15.30
  -9   6  -7  347.87   15.20
  -9   6  -7  362.86   13.90
 -10   6  -7   86.49    5.60
 -10   6  -7   84.99    5.60
 -10   6  -7   89.09    4.60
 -10   6  -7   88.49    4.40
 -11   6  -7    3.70    1.80
 -11   6  -7    3.70    1.30
 -11   6  -7    4.10    1.80
 -12   6  -7   11.60    1.60
 -12   6  -7    9.70    2.00
  -9  -5   7    9.70    2.00
  -9  -5   7    8.30    1.60
  -9  -5   7    6.20    1.40
  -8  -5   7   12.00    1.90
  -8  -5   7   13.60    2.10
  -8  -5   7   14.20    2.60
  -7  -5   7   28.00    2.80
  -7  -5   7   26.60    3.00
  -7  -5   7   23.60    3.20
  -7  -5   7   24.90    2.30
  -6  -5   7    2.80    1.50
  -6  -5   7    4.00    1.20
  -6  -5   7    3.40    1.80
  -6  -5   7    3.30    1.40
  -5  -5   7    1.60    1.50
  -5  -5   7    1.30    0.90
  -5  -5   7    1.30    1.20
  -5  -5   7    1.70    1.30
   4   5  -7    6.40    1.30
  -4  -5   7    6.50    1.70
  -4  -5   7    5.20    1.00
   3   5  -7    7.80    1.20
  -3  -5   7    5.70    1.10
  -3  -5   7    7.50    1.00
   2   5  -7   18.90    1.60
   2   5  -7   15.70    2.50
  -2  -5   7   16.50    1.40
  -2  -5   7   16.90    1.70
   1   5  -7    0.70    1.20
   1   5  -7    0.50    0.50
  -1  -5   7   -0.70    0.50
  -1  -5   7   -0.50    0.50
   0   5  -7   24.90    2.80
   0   5  -7   19.80    1.40
  -1   5  -7   32.80    3.20
  -1   5  -7   27.10    1.80
  -2   5  -7   73.09    3.50
  -2   5  -7   79.19    4.50
  -2   5  -7   69.59    3.10
  -2   5  -7   75.69    4.90
   2  -5   7   67.99    3.50
  -3   5  -7   12.50    1.10
  -3   5  -7   12.40    1.10
  -3   5  -7   12.40    1.30
  -3   5  -7   13.50    2.50
  -3   5  -7   11.80    1.40
   3  -5   7   12.10    1.20
  -4   5  -7    3.00    0.70
  -4   5  -7    2.30    0.60
  -4   5  -7    3.20    1.40
  -4   5  -7    1.50    0.70
  -4   5  -7    3.50    1.00
   4  -5   7    2.90    0.70
  -5   5  -7   40.80    2.30
  -5   5  -7   35.40    2.70
  -5   5  -7   40.90    2.20
  -5   5  -7   33.70    2.30
   5  -5   7   41.90    2.20
  -6   5  -7    2.50    0.80
  -6   5  -7    2.50    1.20
  -6   5  -7    2.90    0.90
  -6   5  -7    1.60    0.80
  -6   5  -7    3.30    1.30
  -6   5  -7    2.70    1.70
  -7   5  -7   20.70    2.60
  -7   5  -7   18.40    2.00
  -7   5  -7   23.70    2.90
  -7   5  -7   21.30    1.90
  -8   5  -7   43.50    3.00
  -8   5  -7   47.00    4.00
  -8   5  -7   46.30    3.90
  -8   5  -7   50.69    2.90
  -9   5  -7   38.10    3.80
  -9   5  -7   39.30    3.00
  -9   5  -7   38.30    2.70
  -9   5  -7   34.60    3.90
 -10   5  -7   36.40    3.80
 -10   5  -7   43.30    4.20
 -10   5  -7   41.70    2.80
 -10   5  -7   44.40    3.20
 -11   5  -7    2.00    1.70
 -11   5  -7    3.60    1.30
 -12   5  -7    1.60    1.40
 -12   5  -7   -0.20    0.90
 -10  -4   7    0.40    1.10
 -10  -4   7    0.80    1.10
  -9  -4   7   -1.50    1.10
  -9  -4   7   -0.70    1.20
  -9  -4   7   -0.30    1.50
  -8  -4   7   36.80    2.70
  -8  -4   7   40.30    3.50
  -8  -4   7   35.10    3.10
  -8  -4   7   45.50    4.00
  -7  -4   7   27.00    3.30
  -7  -4   7   30.30    3.20
  -7  -4   7   29.00    2.90
  -7  -4   7   31.20    2.40
  -6  -4   7   13.10    2.30
  -6  -4   7   14.60    1.70
  -6  -4   7   19.90    2.50
  -6  -4   7   13.10    2.10
   5   4  -7   30.00    2.40
  -5  -4   7   28.70    3.00
  -5  -4   7   27.90    2.10
   4   4  -7    1.20    0.90
  -4  -4   7    0.70    0.70
  -4  -4   7    0.60    0.70
   3   4  -7  226.18    9.10
  -3  -4   7  244.78    9.30
  -3  -4   7  222.58    8.80
   2   4  -7  189.58    7.60
   2   4  -7  192.18    8.90
  -2  -4   7  195.28    7.40
  -2  -4   7  190.98    7.80
   1   4  -7   13.00    2.20
   1   4  -7   10.30    1.10
  -1  -4   7   11.10    1.00
  -1  -4   7   12.50    1.30
   0   4  -7    3.40    1.30
   0   4  -7    2.00    0.50
   0   4  -7    1.80    0.50
   0  -4   7    1.50    0.40
  -1   4  -7   55.19    2.70
  -1   4  -7   56.99    3.90
  -1   4  -7   48.40    2.60
   1  -4   7   55.09    2.50
   1  -4   7   55.49    2.30
  -2   4  -7    1.60    0.60
  -2   4  -7    2.60    0.60
  -2   4  -7    5.40    1.50
  -2   4  -7    2.30    0.70
   2  -4   7    3.40    0.60
  -3   4  -7  105.29    5.80
  -3   4  -7  101.19    4.30
  -3   4  -7  101.29    4.40
  -3   4  -7  102.89    4.10
  -3   4  -7   97.49    4.60
   3  -4   7   99.39    4.20
  -4   4  -7  456.95   17.10
  -4   4  -7  440.96   16.40
  -4   4  -7  456.65   18.40
  -4   4  -7  445.96   16.60
  -4   4  -7  454.05   16.80
   4  -4   7  436.16   16.60
  -5   4  -7  210.88    8.40
  -5   4  -7  199.78    8.80
  -5   4  -7  214.68    8.00
  -5   4  -7  201.38    8.30
   5  -4   7  214.98    8.20
  -6   4  -7   36.90    2.30
  -6   4  -7   32.30    2.70
  -6   4  -7   35.00    2.00
  -6   4  -7   28.80    2.20
   6  -4   7   31.20    2.00
  -7   4  -7   38.90    2.80
  -7   4  -7   44.90    3.70
  -7   4  -7   43.20    3.50
  -7   4  -7   46.20    2.50
  -8   4  -7    4.90    1.70
  -8   4  -7    4.20    1.40
  -8   4  -7    5.00    1.10
  -8   4  -7    7.90    2.20
  -9   4  -7   17.60    1.80
  -9   4  -7   16.50    2.10
  -9   4  -7   15.50    2.60
  -9   4  -7   16.70    2.90
 -10   4  -7   -0.70    1.60
 -10   4  -7    0.40    1.10
 -10   4  -7    0.50    1.80
 -10   4  -7    0.10    1.40
 -11   4  -7   15.00    2.70
 -11   4  -7   14.30    1.90
 -12   4  -7    1.60    1.10
 -12   4  -7    1.70    1.50
 -10  -3   7    0.10    1.10
 -10  -3   7   -1.00    1.20
  -9  -3   7    4.30    1.50
  -9  -3   7    3.80    1.40
  -9  -3   7    4.50    1.60
  -9  -3   7    2.70    1.70
  -8  -3   7    2.40    1.60
  -8  -3   7    3.30    1.40
  -8  -3   7    2.90    1.30
  -8  -3   7    3.50    1.90
  -8  -3   7    4.10    1.30
  -7  -3   7   -0.10    1.10
  -7  -3   7    2.30    1.20
  -7  -3   7    0.60    1.50
  -7  -3   7   -0.50    0.80
  -7  -3   7   -0.70    1.00
   6   3  -7    2.80    1.10
  -6  -3   7    2.70    2.40
  -6  -3   7    2.60    1.50
  -6  -3   7    3.30    1.10
  -6  -3   7    1.90    0.90
  -6  -3   7    5.80    1.30
   5   3  -7    7.90    1.30
  -5  -3   7    9.40    1.80
  -5  -3   7    6.50    1.00
   4   3  -7    8.10    1.20
  -4  -3   7    6.10    1.10
  -4  -3   7    6.60    1.00
   3   3  -7    4.20    0.80
   3   3  -7    4.30    1.20
  -3  -3   7    3.80    0.70
  -3  -3   7    3.30    0.80
  -3  -3   7    2.40    0.60
   2   3  -7  114.09    4.70
   2   3  -7  112.19    5.80
  -2  -3   7  111.49    4.90
  -2  -3   7  120.19    4.60
  -2  -3   7  114.99    4.60
   1   3  -7   43.60    2.10
   1   3  -7   46.50    3.20
  -1  -3   7   44.90    2.10
  -1  -3   7   44.90    2.40
   0   3  -7   26.20    1.70
   0   3  -7   27.70    1.60
   0   3  -7   25.50    1.40
   0   3  -7   28.00    2.50
   0  -3   7   26.10    1.50
  -1   3  -7   13.00    1.10
  -1   3  -7   13.40    1.10
  -1   3  -7   14.10    1.90
  -1   3  -7   11.20    1.20
   1  -3   7   14.50    0.90
   1  -3   7   13.10    1.00
  -2   3  -7   17.50    1.10
  -2   3  -7   18.30    1.40
  -2   3  -7   17.00    1.50
  -2   3  -7   16.80    2.10
  -2   3  -7   16.80    1.30
   2  -3   7   19.80    1.20
  -3   3  -7    9.80    1.30
  -3   3  -7   10.20    1.90
  -3   3  -7   10.50    1.10
  -3   3  -7   10.10    1.10
  -3   3  -7   10.70    0.90
   3  -3   7   10.70    0.90
  -4   3  -7   11.00    0.90
  -4   3  -7   12.40    1.90
  -4   3  -7    9.80    1.10
  -4   3  -7   10.90    1.50
  -4   3  -7   10.40    1.20
   4  -3   7   10.50    1.00
  -5   3  -7   18.20    1.90
  -5   3  -7   19.70    1.60
  -5   3  -7   19.30    1.30
  -5   3  -7   19.50    1.50
   5  -3   7   18.30    1.40
  -6   3  -7    4.50    0.90
  -6   3  -7    3.80    1.00
  -6   3  -7    4.30    1.30
  -6   3  -7    3.60    0.80
   6  -3   7    3.00    0.70
  -7   3  -7  132.89    5.80
  -7   3  -7  127.79    6.50
  -7   3  -7  127.49    6.70
  -7   3  -7  117.69    5.80
  -7   3  -7  132.39    5.40
  -8   3  -7    6.90    1.50
  -8   3  -7    2.90    1.90
  -8   3  -7    3.80    1.70
  -8   3  -7    6.20    1.20
  -9   3  -7   17.90    2.80
  -9   3  -7   21.80    3.30
  -9   3  -7   24.90    2.20
  -9   3  -7   19.50    2.30
 -10   3  -7   15.00    1.70
 -10   3  -7   15.40    2.90
 -11   3  -7    1.90    1.90
 -11   3  -7    2.10    1.30
 -12   3  -7   31.00    2.90
 -12   3  -7   33.70    2.40
 -11  -2   7    4.20    1.20
 -10  -2   7    1.00    1.50
 -10  -2   7    0.20    1.10
 -10  -2   7    3.70    1.50
  -9  -2   7    4.70    1.80
  -9  -2   7    1.90    1.30
  -9  -2   7    2.20    1.50
  -9  -2   7    3.20    1.50
  -8  -2   7   32.00    2.90
  -8  -2   7   32.50    3.50
  -8  -2   7   32.00    2.50
  -8  -2   7   32.70    3.20
  -8  -2   7   36.60    2.90
  -7  -2   7   39.80    2.60
  -7  -2   7   42.70    2.90
  -7  -2   7   40.60    2.90
  -7  -2   7   40.80    3.40
  -7  -2   7   38.50    3.50
   6   2  -7    3.20    1.00
  -6  -2   7    2.80    0.90
  -6  -2   7    3.30    1.40
   5   2  -7    1.70    0.80
  -5  -2   7    1.90    0.70
  -5  -2   7    1.40    0.80
   4   2  -7   12.60    1.40
  -4  -2   7   12.10    1.40
  -4  -2   7   13.70    1.30
  -4  -2   7   12.60    1.20
   3   2  -7    3.40    0.80
   3   2  -7    3.40    1.00
  -3  -2   7    2.80    0.60
  -3  -2   7    4.30    0.70
  -3  -2   7    4.20    0.80
   2   2  -7  166.68    7.60
   2   2  -7  176.48    6.50
  -2  -2   7  159.28    6.70
  -2  -2   7  161.38    6.40
   1   2  -7   22.10    1.40
   1   2  -7   22.20    1.30
   1   2  -7   22.50    1.50
   1   2  -7   21.80    2.20
  -1  -2   7   25.90    1.40
  -1  -2   7   23.40    2.10
  -1  -2   7   23.90    1.30
   0   2  -7   44.20    2.20
   0   2  -7   46.10    3.10
   0   2  -7   42.50    1.90
   0   2  -7   43.10    2.20
   0  -2   7   44.70    2.10
   0  -2   7   44.40    2.00
  -1   2  -7  276.47   10.60
  -1   2  -7  292.57   10.90
  -1   2  -7  291.27   11.90
   1  -2   7  280.87   10.50
   1  -2   7  275.77   10.50
  -2   2  -7   74.19    3.50
  -2   2  -7   66.49    2.90
  -2   2  -7   75.59    4.30
  -2   2  -7   72.79    3.20
  -2   2  -7   76.09    3.20
   2  -2   7   68.09    3.00
  -3   2  -7   20.70    1.20
  -3   2  -7   22.20    2.30
  -3   2  -7   20.30    1.70
  -3   2  -7   22.20    1.50
  -3   2  -7   22.20    1.40
   3  -2   7   21.70    1.30
  -4   2  -7    9.00    1.30
  -4   2  -7   11.30    1.20
  -4   2  -7    9.60    1.10
  -4   2  -7   10.90    1.90
  -4   2  -7   10.60    0.90
   4  -2   7   11.70    0.90
  -5   2  -7   16.30    1.20
  -5   2  -7   17.50    1.40
  -5   2  -7   16.40    1.60
  -5   2  -7   16.10    1.80
   5  -2   7   17.00    1.20
  -6   2  -7    4.40    1.30
  -6   2  -7    4.70    1.10
  -6   2  -7    6.60    2.30
  -6   2  -7    3.70    0.70
  -6   2  -7    4.40    0.90
   6  -2   7    4.00    0.70
  -7   2  -7   55.59    2.70
  -7   2  -7   47.50    3.80
  -7   2  -7   48.80    3.20
  -7   2  -7   45.60    3.10
  -7   2  -7   49.10    3.70
  -8   2  -7    0.90    1.70
  -8   2  -7    1.50    1.60
  -8   2  -7    0.90    1.30
  -8   2  -7    2.20    1.00
  -9   2  -7   48.80    3.50
  -9   2  -7   48.40    2.90
  -9   2  -7   48.60    4.50
 -10   2  -7   -2.20    0.90
 -10   2  -7   -0.70    1.30
 -10   2  -7    2.00    1.90
 -11   2  -7    3.30    1.20
 -11   2  -7    0.30    1.60
 -12   2  -7    4.50    1.10
 -11  -1   7   -0.30    1.00
 -11  -1   7    2.40    1.20
 -10  -1   7    0.10    1.20
 -10  -1   7    0.10    1.30
  -9  -1   7   19.80    2.30
  -9  -1   7   19.50    3.10
  -9  -1   7   18.10    2.60
  -9  -1   7   17.80    2.20
  -8  -1   7   15.30    2.40
  -8  -1   7   17.40    2.20
  -8  -1   7   14.40    2.30
  -8  -1   7   18.80    2.30
   7   1  -7  152.58    6.80
  -7  -1   7  152.18    6.80
  -7  -1   7  151.48    6.70
  -7  -1   7  150.88    7.30
  -7  -1   7  161.38    6.70
  -7  -1   7  153.28    6.50
   6   1  -7  210.78    8.70
  -6  -1   7  214.28    8.40
  -6  -1   7  216.48    8.70
   5   1  -7    3.60    0.90
  -5  -1   7    3.60    0.90
  -5  -1   7    3.20    0.70
   4   1  -7  203.48    8.00
  -4  -1   7  202.08    7.80
  -4  -1   7  201.08    7.90
   3   1  -7   37.40    2.70
   3   1  -7   41.70    2.10
  -3  -1   7   35.70    2.00
   2   1  -7  148.89    6.80
   2   1  -7  148.49    5.90
   2   1  -7  147.99    5.70
  -2  -1   7  141.09    5.70
  -2  -1   7  143.79    5.70
  -2  -1   7  148.09    5.80
   1   1  -7  153.88    6.00
   1   1  -7  148.69    6.00
   1   1  -7  150.88    7.00
   1   1  -7  150.98    5.80
  -1  -1   7  160.48    5.90
  -1  -1   7  153.18    5.90
   0   1  -7    4.80    0.80
   0   1  -7    5.20    1.20
   0   1  -7    4.40    0.50
   0   1  -7    4.30    0.70
   0  -1   7    5.00    0.60
   0  -1   7    3.70    0.60
  -1   1  -7    1.10    0.80
  -1   1  -7    0.70    0.50
  -1   1  -7    1.00    0.40
   1  -1   7    0.90    0.40
   1  -1   7    1.60    0.40
  -2   1  -7  452.65   17.00
  -2   1  -7  463.95   18.30
  -2   1  -7  468.65   17.30
   2  -1   7  464.65   16.80
  -3   1  -7  417.16   15.00
  -3   1  -7  416.56   16.40
  -3   1  -7  390.16   14.70
  -3   1  -7  424.66   15.30
  -3   1  -7  399.06   15.60
   3  -1   7  409.36   14.90
  -4   1  -7   13.10    1.60
  -4   1  -7   14.80    1.40
  -4   1  -7   14.90    1.10
  -4   1  -7   13.80    1.90
  -4   1  -7   12.40    0.90
   4  -1   7   12.80    0.90
  -5   1  -7    5.00    1.00
  -5   1  -7    5.20    0.60
  -5   1  -7    5.70    0.80
  -5   1  -7    4.60    1.10
   5  -1   7    4.80    0.70
  -6   1  -7   22.20    2.00
  -6   1  -7   21.40    2.40
  -6   1  -7   24.30    2.70
  -6   1  -7   24.20    1.50
  -6   1  -7   22.80    1.60
   6  -1   7   21.90    1.50
  -7   1  -7   29.40    3.20
  -7   1  -7   29.50    2.50
  -7   1  -7   29.30    2.50
  -7   1  -7   33.80    2.00
  -7   1  -7   33.10    3.30
  -8   1  -7   48.90    4.30
  -8   1  -7   52.09    3.40
  -8   1  -7   52.99    2.90
  -9   1  -7   41.50    4.20
  -9   1  -7   39.20    3.20
 -10   1  -7   16.10    2.80
 -10   1  -7   14.90    2.10
 -11   1  -7   -0.10    1.10
 -11   1  -7    1.00    1.50
 -12   0   7    3.30    1.00
 -11   0   7    0.60    1.10
 -11   0   7    1.00    1.30
 -10   0   7   -0.40    1.20
 -10   0   7   -0.20    1.20
  -9   0   7   29.80    2.80
  -9   0   7   25.00    3.00
  -8   0   7   33.80    2.80
  -8   0   7   31.70    3.10
  -8   0   7   30.00    2.70
   7   0  -7   87.09    4.30
  -7   0   7   86.79    4.40
  -7   0   7   84.59    4.30
   6   0  -7  136.89    6.00
  -6   0   7  139.69    6.10
   5   0  -7  120.79    5.20
  -5   0   7  121.89    5.20
   4   0  -7   15.30    1.30
  -4   0   7   17.30    1.40
   3   0  -7   34.20    1.80
   3   0  -7   29.80    2.30
   3   0  -7   32.80    1.80
  -3   0   7   30.90    1.70
  -3   0   7   29.90    1.70
  -3   0   7   32.00    1.80
   2   0  -7   22.80    1.30
   2   0  -7   26.40    1.50
   2   0  -7   23.10    2.10
  -2   0   7   22.20    1.30
  -2   0   7   22.80    1.40
   1   0  -7   30.90    2.50
   1   0  -7   33.90    1.90
   1   0  -7   35.10    1.70
   1   0  -7   29.60    1.50
  -1   0   7   31.50    1.60
  -1   0   7   32.50    1.60
   0   0  -7   32.80    1.90
   0   0  -7   31.70    2.50
   0   0  -7   30.00    1.40
   0   0  -7   28.70    1.60
   0   0   7   32.30    1.60
   0   0   7   28.20    1.50
  -1   0  -7   93.29    3.80
  -1   0  -7   95.79    4.20
  -1   0  -7   93.99    5.00
   1   0   7   95.39    3.70
   1   0   7   92.89    3.80
  -2   0  -7   80.39    4.50
  -2   0  -7   84.39    3.30
  -2   0  -7   76.69    3.50
  -2   0  -7   78.99    3.80
   2   0   7   82.79    3.20
  -3   0  -7    5.50    1.30
  -3   0  -7    7.40    1.00
  -3   0  -7    4.10    0.90
  -3   0  -7    5.70    0.60
   3   0   7    5.60    0.60
  -4   0  -7    2.40    0.80
  -4   0  -7    3.20    0.50
  -4   0  -7    3.10    0.90
   4   0   7    2.70    0.50
  -5   0  -7    0.80    0.80
  -5   0  -7    0.90    0.50
  -5   0  -7    0.20    0.80
   5   0   7    1.60    0.50
  -6   0  -7    0.10    0.50
  -6   0  -7    0.00    0.90
  -6   0  -7    1.40    1.20
  -7   0  -7    2.30    1.50
  -7   0  -7    4.90    1.40
  -7   0  -7    4.50    0.90
  -8   0  -7    3.30    1.90
  -8   0  -7    2.50    1.00
  -8   0  -7    2.30    1.30
  -9   0  -7    3.20    1.10
  -9   0  -7    1.50    2.00
  -9   0  -7    2.90    1.60
 -10   0  -7    7.40    1.60
 -10   0  -7    3.20    1.90
 -11   0  -7    8.50    1.40
 -11   0  -7   14.90    2.10
 -12   1   7    5.90    1.20
 -11   1   7    0.70    1.30
 -11   1   7    0.70    1.40
 -10   1   7   -0.40    1.20
 -10   1   7    1.20    1.50
  -9   1   7   27.40    2.70
  -9   1   7   21.20    2.70
  -8   1   7  164.78    7.40
  -8   1   7  174.38    8.00
   7  -1  -7  216.68    9.00
  -7   1   7  220.88    9.10
   6  -1  -7  146.29    6.20
  -6   1   7  144.29    6.30
   5  -1  -7   57.09    2.90
  -5   1   7   55.69    2.90
   4  -1  -7   40.00    2.10
   4  -1  -7   36.60    2.60
  -4   1   7   36.20    2.10
  -4   1   7   40.60    2.20
   3  -1  -7   29.10    1.50
   3  -1  -7   29.30    1.60
   3  -1  -7   28.70    1.70
   3  -1  -7   29.00    2.30
  -3   1   7   26.20    1.60
  -3   1   7   29.10    1.70
   2  -1  -7   35.00    2.50
   2  -1  -7   30.90    1.70
   2  -1  -7   27.00    1.40
   2  -1  -7   28.90    1.60
  -2   1   7   30.00    1.80
  -2   1   7   28.00    1.50
  -2   1   7   27.10    1.60
   1  -1  -7   76.49    3.30
   1  -1  -7   78.39    4.30
   1  -1  -7   76.29    3.20
  -1   1   7   78.99    3.20
  -1   1   7   79.19    3.50
  -1   1   7   77.59    3.30
   0  -1  -7  466.05   18.60
   0  -1  -7  485.55   17.30
   0  -1  -7  495.85   17.70
   0  -1  -7  458.35   17.30
   0   1   7  462.65   17.40
   0   1   7  486.95   17.20
  -1  -1  -7   70.49    4.00
  -1  -1  -7   68.49    3.30
  -1  -1  -7   60.09    2.80
  -1  -1  -7   67.69    2.80
   1   1   7   70.39    2.90
   1   1   7   67.79    2.60
  -2  -1  -7  137.19    5.30
  -2  -1  -7  139.29    5.60
  -2  -1  -7  143.09    6.00
  -2  -1  -7  132.89    6.60
  -3  -1  -7  287.17   12.20
  -3  -1  -7  283.77   10.60
  -3  -1  -7  285.57   11.40
  -3  -1  -7  303.27   11.10
  -4  -1  -7   62.59    2.60
  -4  -1  -7   66.59    3.30
  -4  -1  -7   60.79    3.50
  -5  -1  -7   14.20    1.60
  -5  -1  -7   10.70    1.00
  -6  -1  -7   79.79    4.30
  -6  -1  -7   89.39    5.00
  -6  -1  -7   83.69    4.30
  -7  -1  -7  144.09    7.50
  -7  -1  -7  146.79    6.60
  -8  -1  -7   41.30    3.10
  -8  -1  -7   39.60    4.10
  -8  -1  -7   37.10    2.40
  -9  -1  -7    4.60    1.00
  -9  -1  -7    5.00    1.50
  -9  -1  -7    1.70    1.90
 -10  -1  -7   11.70    2.30
 -10  -1  -7   14.90    1.80
  12  -2  -7    3.50    1.00
 -12   2   7    4.20    1.30
  11  -2  -7   10.00    1.40
 -11   2   7    7.30    1.70
 -10   2   7   30.50    3.00
 -10   2   7   28.70    3.20
  -9   2   7    4.80    1.70
  -9   2   7    2.00    1.30
  -8   2   7    6.40    1.40
   7  -2  -7    3.00    0.90
  -7   2   7    2.10    1.00
   6  -2  -7    5.00    1.00
  -6   2   7    5.50    1.10
   5  -2  -7   56.39    2.90
  -5   2   7   52.99    2.90
   4  -2  -7    0.40    0.60
   4  -2  -7    0.90    0.40
   4  -2  -7    0.50    0.50
   4  -2  -7    0.20    0.40
  -4   2   7   -0.10    0.50
  -4   2   7    0.70    0.60
  -4   2   7    0.30    0.40
   3  -2  -7   47.40    2.30
   3  -2  -7   46.70    2.30
   3  -2  -7   44.90    3.10
   3  -2  -7   45.90    2.10
  -3   2   7   45.90    2.30
  -3   2   7   43.40    2.20
  -3   2   7   47.10    2.40
   2  -2  -7   21.00    1.30
   2  -2  -7   19.20    2.10
   2  -2  -7   19.70    1.10
   2  -2  -7   19.20    1.30
  -2   2   7   20.90    1.20
  -2   2   7   19.40    1.30
  -2   2   7   19.50    1.40
   1  -2  -7   19.20    2.10
   1  -2  -7   19.50    1.20
   1  -2  -7   17.50    1.00
   1  -2  -7   18.80    1.20
  -1   2   7   18.90    1.00
  -1   2   7   19.10    1.40
  -1   2   7   20.00    1.30
   0  -2  -7   11.50    1.80
   0  -2  -7    9.80    0.80
   0  -2  -7    9.80    0.90
   0   2   7   11.30    0.70
   0   2   7   13.00    1.30
   0   2   7    9.80    0.90
  -1  -2  -7   10.50    0.80
  -1  -2  -7   11.10    1.80
  -1  -2  -7   10.70    1.30
  -1  -2  -7   11.90    1.00
   1   2   7   10.20    0.90
  -2  -2  -7   71.89    3.30
  -2  -2  -7   69.99    3.60
  -2  -2  -7   71.39    2.80
  -2  -2  -7   72.19    4.40
  -3  -2  -7    0.50    0.70
  -3  -2  -7    0.80    0.70
  -3  -2  -7    0.30    0.90
  -4  -2  -7   -0.20    0.60
  -4  -2  -7    0.60    0.80
  -5  -2  -7    1.30    0.90
  -5  -2  -7    2.20    1.30
  -6  -2  -7    4.20    1.30
  -6  -2  -7    4.80    1.70
  -6  -2  -7    6.50    1.90
  -7  -2  -7    2.30    1.60
  -7  -2  -7    7.30    1.60
  -8  -2  -7   14.10    2.50
  -8  -2  -7   14.40    1.90
  -9  -2  -7    2.00    1.30
  -9  -2  -7   -1.30    1.50
 -10  -2  -7   -1.50    1.20
  12  -3  -7   -0.20    0.80
 -12   3   7    0.10    1.00
  11  -3  -7    2.00    0.90
 -11   3   7    1.90    1.30
  10  -3  -7    2.70    1.00
 -10   3   7    0.20    1.30
  -9   3   7  135.39    6.40
  -9   3   7  139.49    7.00
   8  -3  -7   18.70    1.90
  -8   3   7   17.10    2.10
  -8   3   7   17.80    1.90
   7  -3  -7    2.00    0.80
  -7   3   7    1.90    1.00
   6  -3  -7   13.70    1.50
  -6   3   7   15.70    1.70
   5  -3  -7  161.98    6.60
  -5   3   7  167.08    6.60
  -5   3   7  151.58    6.80
   4  -3  -7   90.49    4.10
   4  -3  -7   98.69    4.20
   4  -3  -7   94.59    5.10
   4  -3  -7   94.69    3.80
  -4   3   7  100.69    4.20
  -4   3   7   95.99    4.40
  -4   3   7   90.69    4.00
   3  -3  -7   23.40    2.30
   3  -3  -7   21.30    1.20
   3  -3  -7   20.70    1.40
   3  -3  -7   21.70    1.50
  -3   3   7   24.20    1.70
  -3   3   7   18.70    1.30
  -3   3   7   20.30    1.50
   2  -3  -7    3.90    0.70
   2  -3  -7    4.60    0.70
   2  -3  -7    4.10    1.20
   2  -3  -7    3.90    0.50
  -2   3   7    5.90    0.80
  -2   3   7    3.40    0.50
  -2   3   7    3.80    0.80
   1  -3  -7  133.89    5.20
   1  -3  -7  145.79    7.00
   1  -3  -7  143.89    5.60
   1  -3  -7  140.79    5.50
  -1   3   7  143.09    5.30
  -1   3   7  139.09    5.90
  -1   3   7  136.99    5.50
   0  -3  -7  472.85   17.40
   0  -3  -7  469.65   17.10
   0  -3  -7  472.15   18.80
   0   3   7  467.55   17.70
   0   3   7  471.15   17.00
   0   3   7  477.35   17.30
  -1  -3  -7  535.75   19.60
  -1  -3  -7  554.94   21.50
   1   3   7  535.35   19.90
   1   3   7  549.25   20.30
  -2  -3  -7    3.20    0.80
  -2  -3  -7    4.90    1.40
   2   3   7    4.40    0.90
   2   3   7    3.80    0.70
  -3  -3  -7   25.70    3.60
  -3  -3  -7   21.10    1.80
   3   3   7   23.50    2.50
   3   3   7   23.80    1.90
  -4  -3  -7   72.29    3.70
  -6  -3  -7  137.79    7.00
  -7  -3  -7    0.90    1.60
  -8  -3  -7    2.20    1.70
  -9  -3  -7   31.90    3.20
 -13   4   7    2.00    0.90
  12  -4  -7    1.00    0.80
 -12   4   7    1.20    1.10
  11  -4  -7    1.30    1.00
 -11   4   7    2.50    1.30
  10  -4  -7   15.90    1.80
 -10   4   7   15.90    2.10
   9  -4  -7    1.00    1.00
  -9   4   7    3.00    1.20
   8  -4  -7    0.50    0.80
  -8   4   7    0.40    1.10
  -8   4   7    0.90    0.90
   7  -4  -7    0.90    0.70
  -7   4   7    1.30    0.90
   6  -4  -7   -0.10    0.60
  -6   4   7   -0.70    1.20
  -6   4   7    1.30    0.80
   5  -4  -7    2.30    0.60
   5  -4  -7    2.00    0.70
  -5   4   7    1.70    0.90
  -5   4   7    2.50    0.80
   4  -4  -7   11.40    1.80
   4  -4  -7   10.80    1.10
   4  -4  -7   10.40    0.90
   4  -4  -7   10.40    1.10
  -4   4   7    9.10    1.30
  -4   4   7    9.20    1.10
  -4   4   7    9.30    1.00
   3  -4  -7    0.40    0.80
   3  -4  -7    0.30    0.30
   3  -4  -7   -0.10    0.40
   3  -4  -7    0.10    0.50
  -3   4   7    0.60    0.50
  -3   4   7    0.40    0.60
  -3   4   7    0.40    0.40
   2  -4  -7   42.50    2.30
   2  -4  -7   43.80    2.10
   2  -4  -7   41.70    1.90
   2  -4  -7   42.80    3.30
  -2   4   7   42.60    2.20
  -2   4   7   44.30    2.60
  -2   4   7   42.10    2.00
   1  -4  -7   51.19    2.30
   1  -4  -7   47.10    3.60
   1  -4  -7   47.70    2.00
   1  -4  -7   50.69    2.50
  -1   4   7   47.70    2.10
  -1   4   7   49.00    2.70
  -1   4   7   48.10    2.30
   0  -4  -7    1.50    0.40
   0  -4  -7    2.00    1.10
   0  -4  -7    1.60    0.60
   0   4   7    1.10    0.70
   0   4   7    1.50    0.30
   0   4   7    1.80    0.50
  -1  -4  -7   66.99    4.50
  -1  -4  -7   64.99    2.60
  -1  -4  -7   62.99    3.20
   1   4   7   68.39    3.00
   1   4   7   60.19    3.30
  -2  -4  -7   23.70    1.90
   2   4   7   25.50    1.60
   2   4   7   24.20    2.70
   2   4   7   23.10    1.90
  -7  -4  -7    4.30    1.80
  -8  -4  -7    1.90    1.60
 -13   5   7   11.80    1.30
  12  -5  -7    1.70    0.80
 -12   5   7    1.10    1.10
  11  -5  -7    3.80    1.10
 -11   5   7    3.20    1.20
 -10   5   7   28.70    2.70
   9  -5  -7   80.39    4.20
  -9   5   7   80.09    4.30
  -8   5   7    7.20    1.30
   7  -5  -7    5.40    1.10
  -7   5   7    6.60    1.30
  -7   5   7    6.70    2.60
   6  -5  -7   26.00    2.00
  -6   5   7   21.80    1.90
  -6   5   7   19.80    2.60
   5  -5  -7   67.69    3.40
   5  -5  -7   65.09    2.90
  -5   5   7   63.59    3.30
  -5   5   7   68.39    3.70
   4  -5  -7    4.60    0.70
   4  -5  -7    4.30    0.80
   4  -5  -7    4.20    0.90
  -4   5   7    3.30    0.70
  -4   5   7    4.60    1.00
  -4   5   7    2.90    0.80
  -4   5   7    4.30    1.30
   3  -5  -7   11.10    1.10
   3  -5  -7   11.50    1.30
   3  -5  -7   11.10    0.90
   3  -5  -7   12.80    2.00
  -3   5   7   12.40    1.20
  -3   5   7   11.50    2.00
  -3   5   7   12.60    1.50
  -3   5   7   12.80    1.00
   2  -5  -7    1.20    1.00
   2  -5  -7    1.60    0.50
   2  -5  -7    0.90    0.40
   2  -5  -7    0.70    0.60
  -2   5   7    1.50    0.50
  -2   5   7    0.60    0.70
  -2   5   7    0.60    1.00
  -2   5   7    0.90    0.40
   1  -5  -7   36.00    2.20
   1  -5  -7   34.10    1.80
   1  -5  -7   32.80    1.50
   1  -5  -7   33.10    3.20
  -1   5   7   33.10    3.20
  -1   5   7   33.60    2.30
  -1   5   7   37.30    1.70
  -1   5   7   34.00    1.90
   0  -5  -7  324.47   12.40
   0  -5  -7  323.67   11.80
   0   5   7  325.07   14.00
   0   5   7  314.47   11.70
   0   5   7  317.97   12.60
  -1  -5  -7   15.60    1.70
  -1  -5  -7   17.80    1.00
   1   5   7   20.40    2.60
   1   5   7   18.60    1.70
  -2  -5  -7   13.70    1.70
   2   5   7   11.80    2.30
  12  -6  -7    0.90    0.80
 -12   6   7    0.60    1.00
  11  -6  -7    4.50    1.10
 -11   6   7    2.40    1.20
  10  -6  -7   31.00    2.40
 -10   6   7   33.30    2.60
   9  -6  -7   42.90    2.90
  -9   6   7   39.50    4.00
  -8   6   7    1.50    2.60
   7  -6  -7   11.10    1.50
   7  -6  -7    8.20    1.30
  -7   6   7   11.00    1.50
  -7   6   7    9.10    2.70
   6  -6  -7    9.90    1.90
   6  -6  -7   10.70    1.40
  -6   6   7   10.30    1.40
   5  -6  -7   12.10    1.10
   5  -6  -7   11.80    1.50
  -5   6   7   11.40    1.90
  -5   6   7   12.80    1.40
  -5   6   7   12.80    1.80
   4  -6  -7    1.70    0.60
   4  -6  -7    1.60    0.60
   4  -6  -7    1.10    0.70
  -4   6   7    1.00    1.00
  -4   6   7    1.60    0.70
  -4   6   7    1.10    0.50
  -4   6   7    0.70    0.80
   3  -6  -7    1.10    0.50
   3  -6  -7    0.90    0.70
   3  -6  -7    0.50    0.40
  -3   6   7    2.90    0.70
  -3   6   7    0.40    1.00
  -3   6   7    0.90    0.80
  -3   6   7    0.80    0.50
   2  -6  -7    1.30    0.80
   2  -6  -7    1.20    0.40
   2  -6  -7    0.80    0.50
  -2   6   7    1.10    1.10
  -2   6   7    2.00    0.80
  -2   6   7    1.20    0.50
   1  -6  -7   19.50    1.10
   1  -6  -7   20.80    1.30
   1  -6  -7   19.90    1.80
  -1   6   7   20.20    1.20
  -1   6   7   19.10    1.80
  -1   6   7   19.80    2.70
   0  -6  -7   56.09    2.50
   0  -6  -7   60.49    3.30
   0   6   7   57.29    2.40
   0   6   7   57.29    3.20
   0   6   7   56.19    4.40
  -1  -6  -7    2.10    0.40
  -1  -6  -7    1.60    0.90
  -2  -6  -7   27.10    2.40
  11  -7  -7   10.70    1.40
  10  -7  -7   68.79    3.70
   9  -7  -7   23.20    2.20
  -9   7   7   23.50    3.80
   8  -7  -7    0.30    0.80
  -8   7   7    2.70    2.60
   7  -7  -7    1.00    1.00
  -7   7   7    0.00    2.30
  -7   7   7    2.20    1.10
   6  -7  -7   49.30    3.80
   6  -7  -7   49.10    3.00
   5  -7  -7   20.10    1.90
   5  -7  -7   22.00    1.60
   5  -7  -7   20.50    2.60
   4  -7  -7  120.79    4.70
   4  -7  -7  117.69    5.80
   4  -7  -7  115.79    5.30
   4  -7  -7  111.49    5.00
  -4   7   7  105.99    4.90
  -4   7   7  113.19    7.00
   3  -7  -7    1.90    0.90
   3  -7  -7    1.40    1.10
   3  -7  -7    2.00    0.70
   3  -7  -7    1.40    0.60
  -3   7   7    1.70    0.60
  -3   7   7    2.00    2.20
   2  -7  -7   14.50    1.10
   2  -7  -7   12.60    1.20
   2  -7  -7   13.50    1.60
  -2   7   7   11.60    2.20
  -2   7   7   12.60    1.10
   1  -7  -7   82.69    4.20
   1  -7  -7   76.99    4.30
   1  -7  -7   76.49    3.20
   0  -7  -7    8.10    1.40
  -1  -7  -7   23.30    2.40
  -1  -7  -7   20.50    3.70
  -2  -7  -7   16.50    3.30
  11  -8  -7    0.30    0.80
  10  -8  -7   15.70    1.80
 -10   8   7   13.70    3.10
   9  -8  -7    7.70    1.40
  -9   8   7    5.30    3.10
   8  -8  -7    0.60    1.00
  -8   8   7    0.60    2.70
   7  -8  -7    1.00    1.10
  -7   8   7    0.10    2.50
   6  -8  -7  230.58    9.70
  -6   8   7  246.58   11.30
   5  -8  -7  222.58    9.20
   5  -8  -7  210.18    9.70
   5  -8  -7  216.78    8.50
   4  -8  -7  111.09    4.60
   4  -8  -7  106.89    5.80
   4  -8  -7  107.69    5.30
   3  -8  -7   82.29    4.40
   3  -8  -7   81.59    6.60
   3  -8  -7   77.59    4.70
   3  -8  -7   85.69    3.60
   2  -8  -7   18.00    2.00
   2  -8  -7   22.00    4.00
   2  -8  -7   16.80    2.20
   2  -8  -7   17.90    1.40
   1  -8  -7    7.50    2.40
   1  -8  -7    8.60    0.90
   1  -8  -7    9.80    1.60
   0  -8  -7   19.10    3.80
   0  -8  -7   18.30    1.30
  -1  -8  -7    1.80    2.00
  -2  -8  -7    8.00    3.30
 -11   9   7   23.80    2.80
  10  -9  -7    5.40    1.30
 -10   9   7    3.20    2.50
   9  -9  -7    3.00    1.20
  -9   9   7    1.20    2.80
   8  -9  -7    1.10    1.10
  -8   9   7    0.20    2.70
   7  -9  -7   43.20    3.10
  -7   9   7   42.30    5.50
   6  -9  -7    2.20    0.90
   6  -9  -7    2.20    1.30
  -6   9   7    0.20    2.20
   5  -9  -7    4.40    1.10
   5  -9  -7    3.70    1.90
   5  -9  -7    5.40    1.50
   4  -9  -7   15.30    2.50
   4  -9  -7   11.80    1.40
   4  -9  -7   13.90    3.50
   3  -9  -7   27.10    3.20
   3  -9  -7   31.60    2.00
   3  -9  -7   30.10    5.00
   2  -9  -7    2.30    0.80
   2  -9  -7    2.30    1.60
   2  -9  -7    2.50    2.10
   1  -9  -7    0.40    1.70
   1  -9  -7    0.80    0.70
   0  -9  -7    1.10    2.10
   0  -9  -7    0.90    0.70
  -1  -9  -7    2.30    0.80
  -1  -9  -7    2.20    2.60
 -11  10   7    7.60    1.80
 -10  10   7   -4.50    2.00
   9 -10  -7    3.60    2.00
  -9  10   7   -0.50    2.60
   8 -10  -7    7.80    1.40
  -8  10   7   10.20    3.30
   7 -10  -7    2.50    1.40
  -7  10   7    7.50    2.90
   6 -10  -7   45.70    3.30
  -6  10   7   38.00    4.40
   5 -10  -7   57.99    3.80
   5 -10  -7   64.49    3.30
   5 -10  -7   61.99    8.30
  -5  10   7   55.29    5.10
   4 -10  -7    7.40    3.40
   4 -10  -7    8.30    1.30
  -4  10   7    6.90    2.30
   3 -10  -7  133.19    5.60
   3 -10  -7  123.19    6.90
   3 -10  -7  139.29   10.30
   2 -10  -7  111.99    9.10
   2 -10  -7  105.69    4.70
   1 -10  -7   21.60    1.90
   1 -10  -7   18.40    4.00
   0 -10  -7    0.50    2.50
   0 -10  -7    0.90    0.80
  -1 -10  -7    0.60    2.60
  -1 -10  -7    0.80    0.80
 -11  11   7   -1.10    0.90
 -10  11   7   -4.20    1.70
  -9  11   7   -1.30    2.20
   8 -11  -7   28.40    2.50
  -8  11   7   26.50    3.60
   7 -11  -7    1.50    1.30
  -7  11   7    1.90    2.50
   6 -11  -7   -4.50    2.40
   6 -11  -7    0.10    1.30
  -6  11   7    1.10    2.40
   5 -11  -7    1.60    1.10
   5 -11  -7    0.20    1.40
   5 -11  -7    0.50    3.00
  -5  11   7   -2.20    2.20
   4 -11  -7    1.80    1.10
   4 -11  -7    2.30    3.10
   3 -11  -7   26.50    5.00
   3 -11  -7   24.00    2.20
   2 -11  -7    0.40    2.60
   2 -11  -7    0.40    0.90
   1 -11  -7    3.30    2.90
   1 -11  -7    1.00    1.00
   0 -11  -7    6.30    3.50
  -1 -11  -7    7.20    3.60
 -10  12   7   19.50    2.60
  -9  12   7   15.60    2.70
   8 -12  -7    1.40    1.10
  -8  12   7    2.20    2.10
   7 -12  -7   34.10    2.90
  -7  12   7   32.30    4.10
   6 -12  -7   29.90    2.90
   6 -12  -7   23.60    4.70
  -6  12   7   26.80    3.40
   5 -12  -7   -1.10    3.00
   5 -12  -7    1.20    1.00
   5 -12  -7    1.00    1.50
   4 -12  -7    1.90    3.10
   4 -12  -7   -0.90    1.00
   3 -12  -7    0.30    1.10
   3 -12  -7    4.20    3.30
   2 -12  -7   17.60    4.30
   1 -12  -7   11.70    3.90
   0 -12  -7   -0.10    3.30
  -9  13   7   -1.60    1.40
   8 -13  -7    2.30    0.90
  -8  13   7    1.10    1.80
   7 -13  -7   20.80    2.50
  -7  13   7   14.60    2.50
   6 -13  -7   10.90    1.80
   6 -13  -7    7.00    3.60
   5 -13  -7    4.50    3.60
   5 -13  -7    6.20    1.70
   4 -13  -7    2.30    3.30
   4 -13  -7    2.00    1.50
   3 -13  -7    1.60    3.30
   2 -13  -7    6.80    3.60
   1 -13  -7   22.60    4.50
   0 -13  -7    3.00    3.10
   7 -14  -7   16.90    2.00
   6 -14  -7    4.60    1.50
   6 -14  -7    3.00    2.90
   5 -14  -7    0.60    3.10
   5 -14  -7    1.50    1.50
   4 -14  -7    4.90    3.40
   4 -14  -7    0.40    1.50
   3 -14  -7    8.60    3.50
   3 -14  -7   11.40    1.80
  -3  15  -8   -1.90    1.70
  -4  15  -8   -2.50    2.00
  -5  15  -8    5.70    2.30
  -6  15  -8    5.70    2.00
   0 -14   8    0.70    0.90
  -1  14  -8   28.80    4.30
   1 -14   8   31.00    1.90
  -2  14  -8   45.10    6.20
   2 -14   8   56.79    2.60
  -3  14  -8    6.40    3.90
  -4  14  -8    3.10    4.10
  -5  14  -8   -5.40    3.60
  -6  14  -8    6.50    3.20
  -2 -13   8   -2.20    1.00
  -1 -13   8    1.10    1.20
   0  13  -8    6.60    2.80
   0 -13   8    5.50    1.30
   0 -13   8    5.00    1.70
  -1  13  -8   -3.00    3.00
   1 -13   8    2.80    1.00
  -2  13  -8    4.00    3.80
   2 -13   8   13.00    1.60
  -3  13  -8   -0.90    3.90
   3 -13   8   12.40    1.50
  -4  13  -8   -5.50    3.70
  -5  13  -8   14.30    5.20
  -6  13  -8   19.00    4.80
  -3 -12   8   10.10    1.80
  -3 -12   8   -1.70    1.20
  -2 -12   8    6.40    1.50
  -2 -12   8    6.50    1.70
  -1 -12   8    1.30    1.30
  -1 -12   8    2.00    1.30
   0  12  -8    7.20    3.30
   0 -12   8    6.20    1.60
   0 -12   8    4.40    1.20
  -1  12  -8   26.80    5.10
   1 -12   8   23.20    2.90
   1 -12   8   26.80    2.30
  -2  12  -8   97.09   10.10
   2 -12   8  107.89    4.90
   2 -12   8  104.99    5.60
  -3  12  -8   43.60    9.10
   3 -12   8   52.89    3.70
   3 -12   8   61.09    3.10
  -4  12  -8   33.40    5.90
   4 -12   8   38.10    3.00
  -5  12  -8   23.00    5.30
  -6  12  -8   24.30    5.10
  -9  12  -8    0.70    1.30
 -10  12  -8   14.60    2.00
  -4 -11   8    0.10    1.10
  -4 -11   8   -2.20    1.20
  -3 -11   8    1.10    1.20
  -3 -11   8   -1.40    1.40
  -2 -11   8   -1.40    1.20
  -2 -11   8    0.60    1.30
   1  11  -8   37.70    5.90
  -1 -11   8   22.10    2.30
  -1 -11   8   15.60    2.50
   0  11  -8    5.30    3.20
   0 -11   8    0.80    1.10
   0 -11   8    0.40    1.50
  -1  11  -8   10.50    4.10
   1 -11   8   10.10    1.90
   1 -11   8   10.20    1.60
  -2  11  -8    8.70    4.20
   2 -11   8    7.80    1.70
   2 -11   8    8.90    1.40
  -3  11  -8   26.10    5.30
   3 -11   8   29.70    2.70
   3 -11   8   29.00    2.20
  -4  11  -8   32.10    5.40
   4 -11   8   37.50    3.00
  -5  11  -8    4.20    3.40
   5 -11   8    7.40    1.60
  -6  11  -8    1.90    2.80
   6 -11   8    3.10    1.20
   7 -11   8   12.10    1.80
  -8  11  -8   26.00    3.30
 -10  11  -8   37.20    3.20
 -11  11  -8    6.20    1.60
  -5 -10   8   18.10    2.30
  -5 -10   8   12.20    1.80
  -4 -10   8    1.10    1.40
  -4 -10   8    0.80    1.60
  -3 -10   8    2.00    1.50
  -3 -10   8    3.60    1.70
  -2 -10   8    3.20    1.60
  -2 -10   8    2.20    1.30
   1  10  -8  105.89    8.20
  -1 -10   8   99.09    5.90
  -1 -10   8  106.49    5.20
   0  10  -8   14.10    3.90
   0 -10   8   12.00    2.20
   0 -10   8   10.90    1.60
  -1  10  -8   18.40    4.20
   1 -10   8   16.60    2.30
   1 -10   8   17.20    2.10
  -2  10  -8   15.40    4.30
   2 -10   8   21.00    2.40
   2 -10   8   20.70    2.00
  -3  10  -8    2.10    3.20
   3 -10   8    0.70    1.00
   3 -10   8   -0.30    0.80
  -4  10  -8    3.80    3.20
   4 -10   8    4.30    1.30
  -5  10  -8    3.10    2.90
   5 -10   8    0.90    1.00
   6 -10   8    5.20    1.40
  -7  10  -8   -0.90    1.40
   7 -10   8   -1.50    0.80
  -8  10  -8   15.00    2.50
   8 -10   8   10.60    1.70
  -9  10  -8   32.70    3.60
   9 -10   8   33.30    2.70
 -10  10  -8   19.10    2.60
  10 -10   8   18.40    2.30
 -11  10  -8    0.00    1.30
  -6  -9   8   12.20    2.00
  -6  -9   8    8.00    1.50
  -5  -9   8    1.10    1.60
  -5  -9   8    0.50    1.30
  -5  -9   8   -0.40    1.50
  -4  -9   8   17.90    2.30
  -4  -9   8   17.60    2.70
  -4  -9   8   21.00    2.70
  -3  -9   8   70.69    4.80
  -3  -9   8   64.59    4.00
  -2  -9   8    8.50    1.60
  -2  -9   8    9.60    2.10
   1   9  -8    7.80    2.60
  -1  -9   8    3.60    1.50
  -1  -9   8    1.90    1.20
   0   9  -8  106.79    8.30
   0  -9   8  111.09    5.70
   0  -9   8  105.49    5.10
  -1   9  -8   62.69    7.20
   1  -9   8   57.49    3.70
   1  -9   8   58.29    3.30
  -2   9  -8   54.79    7.20
   2  -9   8   55.29    3.00
   2  -9   8   53.49    3.40
  -3   9  -8   12.70    3.50
   3  -9   8   13.00    1.50
   3  -9   8   14.40    1.90
  -4   9  -8    4.40    2.70
   4  -9   8    1.20    1.00
  -5   9  -8   11.40    3.00
   5  -9   8   10.70    1.60
  -6   9  -8    4.90    1.90
   6  -9   8    3.00    1.10
  -7   9  -8    9.60    2.20
  -8   9  -8    5.90    2.00
   8  -9   8    9.30    1.60
  -9   9  -8   23.60    3.10
   9  -9   8   22.80    2.40
 -10   9  -8   27.60    3.30
  10  -9   8   20.60    2.20
 -11   9  -8    7.60    1.90
  11  -9   8   11.10    1.50
 -12   9  -8    7.50    2.00
  -7  -8   8   -3.50    1.00
  -7  -8   8    2.90    1.40
  -6  -8   8   34.90    3.10
  -6  -8   8   31.70    3.30
  -6  -8   8   41.60    3.60
  -5  -8   8   15.50    2.10
  -5  -8   8   17.10    2.30
  -5  -8   8   21.40    2.90
  -4  -8   8   24.60    2.80
  -4  -8   8   24.80    3.20
  -4  -8   8   19.30    2.00
  -3  -8   8    5.10    1.80
  -3  -8   8    3.60    1.30
  -3  -8   8    3.00    1.10
  -2  -8   8   12.20    1.70
  -2  -8   8   10.90    1.50
  -2  -8   8   11.50    2.10
  -1  -8   8    1.10    1.10
  -1  -8   8    3.70    1.20
   0   8  -8   90.39    6.90
   0  -8   8   72.09    4.40
   1  -8   8    7.00    1.40
   2  -8   8    0.40    0.80
   3  -8   8    3.60    1.00
   4  -8   8    0.20    0.70
   5  -8   8   33.90    2.60
  -6   8  -8    3.70    1.80
   6  -8   8    5.10    1.20
  -7   8  -8   30.70    3.30
  -8   8  -8   15.80    2.60
  -8   8  -8   15.40    2.60
  -9   8  -8    1.20    1.80
  -9   8  -8    4.50    2.00
 -10   8  -8    1.60    1.60
 -10   8  -8    1.10    1.60
 -11   8  -8    2.50    1.50
  11  -8   8    2.60    1.10
 -12   8  -8    3.60    1.40
  -8  -7   8   -1.50    0.80
  -8  -7   8    0.50    1.10
  -7  -7   8    2.90    1.60
  -7  -7   8    0.10    1.20
  -7  -7   8    3.50    1.40
  -6  -7   8    8.80    1.80
  -6  -7   8    8.40    1.80
  -6  -7   8    8.00    2.00
  -5  -7   8   78.29    4.60
  -5  -7   8   89.89    4.30
  -5  -7   8   91.49    5.50
  -4  -7   8   31.40    2.50
  -4  -7   8   35.90    3.00
  -4  -7   8   38.20    3.70
  -3  -7   8   48.10    3.30
  -3  -7   8   52.89    2.90
  -3  -7   8   55.29    4.10
   2   7  -8    2.10    1.00
  -2  -7   8    1.80    0.80
  -2  -7   8    2.20    1.30
  -2  -7   8    0.30    1.00
  -1  -7   8   42.80    3.10
   0   7  -8   36.70    4.10
   0  -7   8   29.80    2.60
  -1   7  -8    9.70    2.50
  -2   7  -8    9.10    2.50
  -3   7  -8    4.70    1.00
  -3   7  -8    9.60    2.50
  -4   7  -8   31.80    4.00
  -4   7  -8   27.60    2.30
   4  -7   8   30.00    2.70
  -5   7  -8   76.49    8.40
  -5   7  -8   85.69    4.70
   5  -7   8   80.39    4.10
  -6   7  -8   31.10    3.20
  -6   7  -8   28.60    3.00
  -7   7  -8    2.20    1.00
  -7   7  -8    1.20    1.50
  -7   7  -8    3.50    1.60
  -8   7  -8    2.70    1.80
  -8   7  -8    0.90    1.00
  -8   7  -8    2.60    1.60
  -9   7  -8   11.90    2.40
  -9   7  -8   12.20    2.60
 -10   7  -8   27.30    3.40
 -10   7  -8   27.30    2.50
 -10   7  -8   29.30    3.40
 -11   7  -8   -0.20    1.40
 -11   7  -8   -1.30    1.00
 -11   7  -8    0.70    1.50
 -12   7  -8   -0.40    1.20
 -12   7  -8   -1.00    1.00
 -12   7  -8    1.60    1.30
  -8  -6   8   -0.30    1.10
  -8  -6   8    2.50    1.50
  -7  -6   8    0.10    1.30
  -7  -6   8   -0.10    1.20
  -7  -6   8    0.40    1.60
  -6  -6   8    3.20    1.90
  -6  -6   8    1.30    1.90
  -6  -6   8    2.40    1.40
  -6  -6   8    2.90    1.10
  -5  -6   8    4.40    1.20
  -5  -6   8    3.90    1.30
  -5  -6   8    4.80    1.90
  -4  -6   8    5.80    1.20
  -4  -6   8    6.10    1.80
  -4  -6   8    5.70    1.40
   3   6  -8    6.00    1.30
  -3  -6   8    6.40    1.70
  -3  -6   8    3.40    0.90
   2   6  -8    2.20    1.00
   2   6  -8   -0.80    1.90
  -2  -6   8   -0.10    0.60
  -2  -6   8    0.70    1.00
   1   6  -8    5.90    1.90
   0   6  -8    0.10    1.30
  -1   6  -8   10.70    2.40
  -2   6  -8   23.00    3.30
  -2   6  -8   18.90    1.70
  -3   6  -8    4.30    1.00
  -3   6  -8    6.20    1.90
  -4   6  -8    3.70    1.00
  -4   6  -8    2.70    0.80
  -4   6  -8    3.00    1.60
  -5   6  -8   -0.30    0.60
  -5   6  -8   -0.20    0.70
  -5   6  -8    0.20    0.90
  -5   6  -8   -1.10    1.30
  -6   6  -8   32.80    3.10
  -6   6  -8   31.50    2.20
  -6   6  -8   30.50    3.00
  -6   6  -8   32.60    2.20
  -7   6  -8    2.70    1.60
  -7   6  -8    2.30    1.50
  -7   6  -8    1.00    0.90
  -7   6  -8    2.00    1.00
  -8   6  -8   -0.20    1.60
  -8   6  -8   -1.20    1.30
  -8   6  -8   -0.20    1.00
  -8   6  -8    0.40    1.00
  -9   6  -8   10.20    1.60
  -9   6  -8    7.50    1.60
  -9   6  -8    9.80    2.30
  -9   6  -8   10.20    2.50
 -10   6  -8   11.60    1.70
 -10   6  -8    9.10    2.20
 -10   6  -8    8.80    1.50
 -10   6  -8    9.80    2.40
 -11   6  -8   11.50    2.40
 -11   6  -8   13.80    1.80
 -11   6  -8   11.40    2.20
 -12   6  -8    0.70    0.90
 -12   6  -8    1.80    1.40
  -9  -5   8    0.00    1.00
  -9  -5   8    0.90    1.30
  -8  -5   8    0.80    1.30
  -8  -5   8    2.70    1.40
  -8  -5   8    3.50    1.70
  -7  -5   8    2.60    1.30
  -7  -5   8    0.70    1.60
  -7  -5   8    2.00    1.40
  -6  -5   8  168.08    7.20
  -6  -5   8  177.68    8.50
  -6  -5   8  168.78    7.50
  -5  -5   8   78.89    4.20
  -5  -5   8   74.29    3.80
  -5  -5   8   74.29    4.90
   4   5  -8    3.90    1.20
  -4  -5   8    3.10    1.40
  -4  -5   8    1.20    0.80
   3   5  -8   30.20    2.30
  -3  -5   8   27.10    1.90
  -3  -5   8   31.20    2.60
   2   5  -8  240.58    9.40
   2   5  -8  232.48   11.10
  -2  -5   8  247.98    9.20
   1   5  -8  876.11   33.80
   0   5  -8    5.00    1.60
  -1   5  -8    3.90    1.60
  -1   5  -8    1.90    0.70
  -2   5  -8    1.40    0.70
  -2   5  -8    2.30    1.40
  -2   5  -8    1.70    0.60
  -3   5  -8   83.39    4.10
  -3   5  -8   84.99    3.70
  -3   5  -8   77.89    3.60
  -3   5  -8   86.19    5.50
  -3   5  -8   84.79    4.00
   3  -5   8   77.59    3.70
  -4   5  -8  133.89    5.50
  -4   5  -8  136.79    7.40
  -4   5  -8  137.29    6.10
  -4   5  -8  133.79    5.60
   4  -5   8  128.89    5.60
  -5   5  -8   65.19    4.00
  -5   5  -8   68.69    3.50
  -5   5  -8   75.99    3.70
  -5   5  -8   73.79    3.30
   5  -5   8   67.89    3.40
  -6   5  -8  239.18   10.00
  -6   5  -8  222.08    9.80
  -6   5  -8  231.08    8.80
  -6   5  -8  226.18    9.10
  -6   5  -8  226.88    9.20
   6  -5   8  203.38    8.90
  -7   5  -8  162.08    6.40
  -7   5  -8  151.88    7.60
  -7   5  -8  147.09    6.70
  -7   5  -8  155.68    7.70
  -7   5  -8  146.99    6.70
  -8   5  -8  247.58   11.30
  -8   5  -8  253.07    9.90
  -8   5  -8  244.28   11.30
  -8   5  -8  253.47   10.30
  -9   5  -8  122.49    5.80
  -9   5  -8  121.59    5.50
  -9   5  -8  120.09    6.90
  -9   5  -8  118.99    6.90
 -10   5  -8   11.50    1.50
 -10   5  -8   10.60    2.30
 -10   5  -8   13.20    2.50
 -10   5  -8    9.20    1.80
 -11   5  -8    0.50    1.60
 -11   5  -8    0.70    1.50
 -11   5  -8    0.10    1.10
 -12   5  -8   13.20    2.10
 -12   5  -8   19.30    1.90
  -9  -4   8    0.50    1.20
  -9  -4   8    0.40    1.30
  -9  -4   8   -0.60    1.30
  -8  -4   8   11.00    2.30
  -8  -4   8   12.40    2.00
  -8  -4   8   11.30    1.80
  -7  -4   8   45.60    3.20
  -7  -4   8   43.20    3.90
  -6  -4   8   15.10    1.70
  -6  -4   8   20.80    2.40
  -6  -4   8   19.40    2.80
   5   4  -8    1.00    1.00
  -5  -4   8    1.00    1.20
  -5  -4   8    2.00    1.00
  -5  -4   8   -0.90    0.70
   4   4  -8    3.40    1.00
  -4  -4   8    0.90    1.10
  -4  -4   8   -0.50    0.60
   3   4  -8    2.00    0.90
  -3  -4   8    1.60    0.70
   2   4  -8   10.50    2.00
   2   4  -8   11.80    1.30
   1   4  -8   13.60    1.30
   1   4  -8   13.40    2.10
   0   4  -8    9.10    1.80
   0   4  -8    8.50    1.00
   0  -4   8    8.40    0.80
  -1   4  -8    2.00    0.60
  -1   4  -8    2.00    1.20
  -1   4  -8    1.40    0.50
  -1   4  -8    1.30    0.60
   1  -4   8    1.60    0.50
   1  -4   8    1.70    0.40
  -2   4  -8   66.29    4.50
  -2   4  -8   65.79    2.80
  -2   4  -8   62.79    3.10
  -2   4  -8   62.09    3.20
   2  -4   8   65.29    2.80
   2  -4   8   59.69    2.90
  -3   4  -8   43.80    3.60
  -3   4  -8   38.10    2.10
  -3   4  -8   43.00    2.30
  -3   4  -8   41.70    2.60
  -3   4  -8   42.50    2.40
   3  -4   8   41.30    2.20
  -4   4  -8  158.18    6.90
  -4   4  -8  157.78    8.10
  -4   4  -8  153.38    6.50
  -4   4  -8  156.78    6.20
  -4   4  -8  156.88    6.40
   4  -4   8  154.38    6.30
  -5   4  -8   20.30    2.20
  -5   4  -8   23.40    1.90
  -5   4  -8   26.00    1.90
  -5   4  -8   24.10    1.60
   5  -4   8   24.10    1.70
  -6   4  -8   19.70    2.50
  -6   4  -8   19.50    1.80
  -6   4  -8   20.00    1.70
  -6   4  -8   19.80    2.50
  -6   4  -8   22.50    1.90
   6  -4   8   19.50    1.60
  -7   4  -8    8.00    1.90
  -7   4  -8    6.20    1.90
  -7   4  -8    7.90    1.50
  -7   4  -8    5.50    1.30
  -7   4  -8    6.30    1.10
  -8   4  -8   14.70    2.60
  -8   4  -8   13.90    1.60
  -8   4  -8   11.70    2.20
  -8   4  -8   10.70    1.70
  -9   4  -8   16.40    1.80
  -9   4  -8   16.90    2.70
  -9   4  -8   17.00    2.10
  -9   4  -8   17.70    3.00
 -10   4  -8   -1.20    1.80
 -10   4  -8    2.20    1.90
 -10   4  -8    0.20    1.10
 -10   4  -8    1.60    1.40
 -11   4  -8    1.30    1.20
 -11   4  -8    0.40    1.60
 -12   4  -8    0.50    1.30
 -12   4  -8    2.00    1.00
 -10  -3   8    0.80    1.30
  -9  -3   8    4.40    1.70
  -9  -3   8    5.20    1.50
  -9  -3   8    5.50    1.60
  -9  -3   8    5.30    1.50
  -8  -3   8    5.40    1.40
  -8  -3   8    2.20    2.30
  -8  -3   8    4.50    1.40
  -8  -3   8    3.20    1.70
  -7  -3   8    7.00    1.40
  -7  -3   8    6.50    2.10
  -7  -3   8    6.10    1.50
  -6  -3   8   58.49    4.00
  -6  -3   8   57.99    3.30
  -6  -3   8   56.59    3.10
  -6  -3   8   61.29    3.50
   5   3  -8   50.79    3.00
  -5  -3   8   46.60    3.50
  -5  -3   8   50.79    2.70
   4   3  -8    4.50    1.00
  -4  -3   8    3.40    0.80
   3   3  -8   51.19    4.30
   3   3  -8   58.79    2.90
  -3  -3   8   54.89    2.90
  -3  -3   8   52.99    3.10
   2   3  -8  230.88    8.50
   2   3  -8  206.08    9.70
  -2  -3   8  218.58    8.40
   1   3  -8   46.90    2.30
   1   3  -8   47.80    3.50
   0   3  -8    3.70    0.60
   0   3  -8    3.00    0.70
   0   3  -8    3.40    0.70
   0   3  -8    3.80    1.30
   0  -3   8    2.80    0.60
   0  -3   8    2.30    0.60
  -1   3  -8    1.50    1.00
  -1   3  -8    1.40    0.60
  -1   3  -8    3.00    0.60
  -1   3  -8    1.90    0.70
   1  -3   8    1.50    0.50
   1  -3   8    1.40    0.40
  -2   3  -8   33.40    2.20
  -2   3  -8   35.70    1.80
  -2   3  -8   37.10    3.10
  -2   3  -8   33.00    2.00
   2  -3   8   31.70    1.80
   2  -3   8   34.80    1.80
  -3   3  -8    2.40    1.20
  -3   3  -8    2.90    0.90
  -3   3  -8    2.80    0.60
  -3   3  -8    4.00    0.80
   3  -3   8    3.50    0.70
  -4   3  -8   48.60    3.10
  -4   3  -8   51.19    2.60
  -4   3  -8   50.79    3.80
  -4   3  -8   48.30    2.60
  -4   3  -8   50.69    2.40
   4  -3   8   48.30    2.40
  -5   3  -8   11.30    1.10
  -5   3  -8   10.00    1.30
  -5   3  -8   10.00    1.60
  -5   3  -8    8.40    1.10
   5  -3   8    8.90    1.00
  -6   3  -8   40.80    3.30
  -6   3  -8   42.40    2.70
  -6   3  -8   35.60    2.40
  -6   3  -8   42.30    2.20
  -6   3  -8   44.00    3.40
  -7   3  -8    8.10    2.00
  -7   3  -8   10.20    1.60
  -7   3  -8   13.60    2.40
  -7   3  -8    7.40    1.40
  -7   3  -8   10.40    1.20
  -8   3  -8    0.80    1.20
  -8   3  -8   -1.20    1.50
  -8   3  -8    0.70    0.90
  -8   3  -8    1.10    1.50
  -9   3  -8   17.30    2.90
  -9   3  -8   18.60    2.30
  -9   3  -8   15.90    2.70
  -9   3  -8   15.90    1.80
 -10   3  -8   14.10    2.80
 -10   3  -8   14.20    2.10
 -10   3  -8   10.40    1.50
 -11   3  -8    6.10    1.50
 -11   3  -8    6.50    2.00
 -12   3  -8    1.70    0.90
 -10  -2   8    3.20    1.90
 -10  -2   8    7.70    1.50
  -9  -2   8    1.60    1.20
  -9  -2   8    1.10    1.20
  -9  -2   8    0.40    1.50
  -9  -2   8    0.90    1.50
  -8  -2   8    2.80    1.20
  -8  -2   8    2.00    1.60
  -8  -2   8    2.00    1.20
  -7  -2   8    0.60    1.00
  -7  -2   8    1.90    1.10
  -7  -2   8   -0.40    1.30
   6   2  -8    9.80    1.50
  -6  -2   8   11.30    1.90
  -6  -2   8   10.70    1.70
  -6  -2   8   10.40    1.50
   5   2  -8    4.10    1.00
  -5  -2   8    5.00    1.00
  -5  -2   8    2.70    1.00
   4   2  -8  105.79    4.60
  -4  -2   8  101.49    4.50
   3   2  -8   28.30    1.80
   3   2  -8   26.00    2.40
  -3  -2   8   27.40    1.70
   2   2  -8   86.59    3.70
   2   2  -8   84.19    4.80
  -2  -2   8   85.99    3.70
   1   2  -8    2.10    0.50
   1   2  -8    1.90    0.50
   1   2  -8    2.40    0.60
   1   2  -8    2.40    1.10
   1   2  -8    2.50    0.60
  -1  -2   8    2.10    0.50
  -1  -2   8    2.20    0.50
   0   2  -8  102.09    5.40
   0   2  -8   97.29    4.20
   0   2  -8   97.59    4.30
   0   2  -8   95.79    4.00
   0  -2   8  102.19    4.10
   0  -2   8  101.69    4.10
  -1   2  -8   13.80    1.20
  -1   2  -8   13.60    2.00
  -1   2  -8   15.40    1.40
  -1   2  -8   13.80    1.00
   1  -2   8   13.60    1.10
   1  -2   8   15.90    1.10
  -2   2  -8  200.28    9.20
  -2   2  -8  201.78    7.80
  -2   2  -8  203.78    8.20
  -2   2  -8  196.68    7.50
  -2   2  -8  201.48    7.80
   2  -2   8  197.68    7.60
  -3   2  -8  177.68    6.90
  -3   2  -8  169.58    7.00
  -3   2  -8  178.58    8.40
  -3   2  -8  170.28    6.60
  -3   2  -8  181.18    7.50
   3  -2   8  173.58    6.80
  -4   2  -8  221.78    8.40
  -4   2  -8  223.38   10.30
  -4   2  -8  219.08    8.70
  -4   2  -8  225.68    9.30
  -4   2  -8  227.18    8.90
   4  -2   8  228.88    8.60
  -5   2  -8   29.90    1.60
  -5   2  -8   28.20    2.10
  -5   2  -8   30.10    1.90
  -5   2  -8   28.60    2.40
   5  -2   8   27.80    1.70
  -6   2  -8    2.80    1.10
  -6   2  -8    3.00    1.40
  -6   2  -8    2.20    1.30
  -7   2  -8   33.60    2.10
  -7   2  -8   35.40    2.70
  -7   2  -8   31.30    2.70
  -7   2  -8   30.60    3.20
  -7   2  -8   33.70    3.40
  -8   2  -8    5.30    1.80
  -8   2  -8    2.70    1.40
  -8   2  -8    4.50    1.10
  -8   2  -8    4.10    1.90
  -9   2  -8   11.90    2.00
  -9   2  -8    9.90    2.60
  -9   2  -8   10.00    1.40
 -10   2  -8   13.70    2.00
 -10   2  -8   13.30    2.60
 -11   2  -8    0.70    1.70
 -11   2  -8    1.70    1.00
 -11  -1   8    1.20    0.90
 -10  -1   8   -0.10    1.20
 -10  -1   8    1.50    1.40
  -9  -1   8    8.20    1.70
  -8  -1   8   30.40    2.90
  -8  -1   8   33.50    2.80
  -7  -1   8   67.89    3.80
  -7  -1   8   66.99    3.80
   6   1  -8    1.40    0.90
  -6  -1   8    1.70    0.90
   5   1  -8   12.60    1.40
  -5  -1   8   11.00    1.40
   4   1  -8    4.00    0.90
  -4  -1   8    5.50    0.90
   3   1  -8  103.29    5.50
   3   1  -8  114.49    4.60
  -3  -1   8  108.99    4.60
   2   1  -8   99.59    4.10
   2   1  -8  104.99    4.40
   2   1  -8   99.49    5.30
   2   1  -8  100.89    4.20
  -2  -1   8  105.49    4.30
  -2  -1   8   97.09    4.20
  -2  -1   8   99.89    4.20
   1   1  -8    9.90    0.90
   1   1  -8    6.30    1.40
   1   1  -8    9.20    1.00
   1   1  -8    8.40    1.00
   1   1  -8    8.70    0.80
  -1  -1   8   10.10    0.90
  -1  -1   8    9.90    0.90
   0   1  -8    5.50    0.70
   0   1  -8    6.50    0.90
   0   1  -8    6.70    1.40
   0   1  -8    7.60    0.70
   0  -1   8    5.90    0.70
   0  -1   8    6.80    0.80
  -1   1  -8  147.99    6.20
  -1   1  -8  150.38    7.20
  -1   1  -8  148.89    5.90
  -1   1  -8  144.49    5.60
   1  -1   8  149.29    5.80
   1  -1   8  149.59    5.80
  -2   1  -8   26.50    1.40
  -2   1  -8   27.40    1.80
  -2   1  -8   27.70    2.70
  -2   1  -8   29.90    2.10
  -2   1  -8   31.20    1.70
   2  -1   8   28.10    1.50
  -3   1  -8    2.20    0.40
  -3   1  -8    2.00    0.70
  -3   1  -8    3.00    0.90
  -3   1  -8    2.00    1.10
   3  -1   8    2.20    0.50
  -4   1  -8   34.80    2.60
  -4   1  -8   36.30    2.20
  -4   1  -8   33.40    1.60
  -4   1  -8   34.40    1.90
  -4   1  -8   29.60    2.80
   4  -1   8   35.70    1.80
  -5   1  -8    0.90    0.80
  -5   1  -8    0.90    1.00
  -5   1  -8    1.00    0.50
  -5   1  -8    1.20    0.60
   5  -1   8    0.80    0.50
  -6   1  -8   12.50    2.10
  -6   1  -8   12.50    1.20
  -6   1  -8   12.00    2.00
  -6   1  -8   14.30    1.80
  -7   1  -8    1.20    0.70
  -7   1  -8    1.30    1.60
  -7   1  -8    0.80    1.10
  -7   1  -8    0.60    1.40
  -8   1  -8   11.70    2.40
  -8   1  -8   13.50    2.00
  -9   1  -8   58.49    3.80
  -9   1  -8   59.39    4.90
  -9   1  -8   64.89    3.30
 -10   1  -8    0.10    1.60
 -10   1  -8   -1.10    1.10
 -11   1  -8    1.50    1.00
 -11   1  -8    0.10    1.30
 -11   0   8    0.50    1.10
 -10   0   8    1.20    1.40
 -10   0   8   -1.20    1.20
  -9   0   8   18.30    2.20
  -8   0   8  791.62   29.50
   7   0  -8  523.95   20.10
  -7   0   8  540.45   20.20
  -7   0   8  540.95   20.10
  -7   0   8  518.85   20.00
   6   0  -8   63.89    3.40
  -6   0   8   62.29    3.50
   5   0  -8    1.40    0.70
  -5   0   8    0.90    0.80
   4   0  -8  104.39    4.60
  -4   0   8  110.69    4.70
   3   0  -8   53.29    3.50
   3   0  -8   53.89    2.60
   3   0  -8   56.19    2.70
   3   0  -8   52.79    2.40
  -3   0   8   52.49    2.60
  -3   0   8   57.29    2.70
  -3   0   8   53.49    2.60
   2   0  -8  256.57    9.60
   2   0  -8  258.87   11.10
   2   0  -8  269.27    9.80
   2   0  -8  274.17   10.00
  -2   0   8  248.48    9.80
  -2   0   8  263.07    9.90
  -2   0   8  251.47   10.00
   1   0  -8    3.40    1.10
   1   0  -8    3.20    0.60
   1   0  -8    3.20    0.50
   1   0  -8    4.00    0.60
   1   0  -8    2.60    0.70
  -1   0   8    3.50    0.70
  -1   0   8    3.60    0.60
  -1   0   8    2.90    0.60
   0   0  -8   93.99    4.20
   0   0  -8   91.49    3.90
   0   0  -8   97.09    3.70
   0   0  -8   89.19    3.70
   0   0  -8   88.39    5.00
   0   0   8   96.39    3.90
   0   0   8   94.69    3.80
  -1   0  -8  100.49    4.40
  -1   0  -8   89.59    4.00
  -1   0  -8  100.89    5.40
  -1   0  -8   92.89    3.70
   1   0   8   94.69    4.00
   1   0   8  101.59    3.90
  -2   0  -8  923.91   33.90
  -2   0  -8  928.01   34.20
  -2   0  -8  950.00   35.60
  -2   0  -8  931.61   34.50
   2   0   8  979.60   33.80
  -3   0  -8  202.98    9.30
  -3   0  -8  196.18    8.40
  -3   0  -8  201.18    8.10
   3   0   8  207.38    7.60
  -4   0  -8    1.60    0.80
  -4   0  -8    1.00    0.50
  -4   0  -8    1.40    0.80
   4   0   8    1.50    0.40
  -5   0  -8    7.90    1.30
  -5   0  -8    8.00    1.50
  -5   0  -8    6.60    0.90
   5   0   8    6.20    0.80
  -6   0  -8   98.09    4.90
  -6   0  -8  102.29    4.10
  -6   0  -8  101.59    4.90
  -6   0  -8  103.59    5.60
  -6   0  -8   94.69    5.70
  -7   0  -8  296.37   12.60
  -7   0  -8  287.77   10.80
  -7   0  -8  275.57   11.60
  -8   0  -8    9.90    1.70
  -8   0  -8    8.40    1.20
  -8   0  -8   11.60    2.40
  -9   0  -8   30.50    2.70
  -9   0  -8   30.00    2.10
  -9   0  -8   30.10    3.70
 -10   0  -8    5.00    1.40
 -10   0  -8    6.60    2.00
 -11   0  -8   -0.30    0.80
 -12   1   8   -0.40    0.80
 -11   1   8    2.70    1.30
 -10   1   8   17.40    2.20
  -9   1   8   88.39    4.80
  -8   1   8   80.39    4.30
   7  -1  -8   18.30    1.90
  -7   1   8   19.30    2.00
  -7   1   8   17.20    2.00
   6  -1  -8    6.10    1.10
  -6   1   8    5.30    1.10
   5  -1  -8   11.00    1.30
  -5   1   8    9.90    1.30
   4  -1  -8   17.60    2.40
   4  -1  -8   16.50    1.40
  -4   1   8   18.00    1.50
   3  -1  -8    6.80    0.70
   3  -1  -8    7.70    1.50
   3  -1  -8    7.40    0.90
   3  -1  -8    6.70    0.90
  -3   1   8    6.60    0.90
  -3   1   8    5.50    0.80
  -3   1   8    7.20    0.90
   2  -1  -8   34.80    1.70
   2  -1  -8   35.70    1.90
   2  -1  -8   34.60    2.80
   2  -1  -8   36.20    1.90
  -2   1   8   35.50    1.90
  -2   1   8   35.50    2.10
  -2   1   8   33.30    1.80
   1  -1  -8    1.60    0.50
   1  -1  -8    2.10    0.40
   1  -1  -8    1.30    0.90
   1  -1  -8    0.80    0.30
  -1   1   8    1.90    0.40
  -1   1   8    1.30    0.60
  -1   1   8    0.90    0.50
   0  -1  -8  110.49    4.40
   0  -1  -8  108.29    4.90
   0  -1  -8  112.89    4.50
   0  -1  -8  116.89    5.90
   0  -1  -8  107.29    4.20
   0   1   8  110.59    4.40
   0   1   8  113.79    4.50
  -1  -1  -8    6.00    1.00
  -1  -1  -8    5.90    0.70
  -1  -1  -8    5.80    1.40
   1   1   8    5.30    0.60
   1   1   8    6.20    0.80
  -2  -1  -8   11.50    0.90
  -2  -1  -8   10.80    1.40
  -2  -1  -8   16.00    2.10
   2   1   8   13.10    0.80
   2   1   8   12.30    1.10
  -3  -1  -8   24.80    2.00
  -3  -1  -8   22.40    1.80
  -3  -1  -8   24.30    1.30
  -3  -1  -8   22.10    2.50
  -4  -1  -8   54.49    3.00
  -4  -1  -8   52.79    3.30
  -5  -1  -8    0.40    1.10
  -5  -1  -8    0.30    1.10
  -5  -1  -8    0.30    0.90
   5   1   8    0.00    0.30
  -6  -1  -8    3.20    1.20
  -6  -1  -8    5.30    1.40
  -6  -1  -8    6.00    1.70
  -7  -1  -8    5.60    1.50
  -7  -1  -8    2.50    1.70
  -8  -1  -8   -0.60    1.20
  -8  -1  -8    1.20    0.90
  -8  -1  -8   -0.30    1.70
  -9  -1  -8    8.20    1.70
  -9  -1  -8    9.80    2.30
 -10  -1  -8    0.90    1.50
 -10  -1  -8    1.30    1.10
 -12   2   8    0.10    1.00
 -11   2   8    4.80    1.40
 -10   2   8    4.50    1.60
  -9   2   8    1.90    1.30
  -8   2   8    9.20    1.60
   7  -2  -8   13.80    1.70
  -7   2   8   20.00    2.10
  -7   2   8   19.40    2.00
   6  -2  -8    7.00    1.20
  -6   2   8    5.90    1.10
   5  -2  -8    2.30    0.70
  -5   2   8    2.80    0.90
   4  -2  -8  160.68    7.70
   4  -2  -8  165.98    6.40
   4  -2  -8  173.18    6.80
   4  -2  -8  182.28    7.40
  -4   2   8  159.78    6.90
  -4   2   8  178.98    6.90
  -4   2   8  158.48    6.80
   3  -2  -8   88.29    3.50
   3  -2  -8   87.99    4.90
   3  -2  -8   85.39    3.80
   3  -2  -8   82.99    3.80
  -3   2   8   89.49    3.80
  -3   2   8   81.09    3.70
  -3   2   8   88.09    4.00
   2  -2  -8   68.79    3.10
   2  -2  -8   68.89    2.80
   2  -2  -8   68.09    4.20
   2  -2  -8   70.89    3.10
  -2   2   8   69.29    3.10
  -2   2   8   67.19    3.00
  -2   2   8   62.99    3.30
   1  -2  -8   72.29    2.90
   1  -2  -8   70.49    3.10
   1  -2  -8   70.49    3.10
   1  -2  -8   71.99    4.40
  -1   2   8   72.09    3.50
  -1   2   8   69.79    3.00
  -1   2   8   68.39    3.10
   0  -2  -8   41.20    2.10
   0  -2  -8   42.50    3.30
   0  -2  -8   40.70    2.00
   0  -2  -8   38.00    1.70
   0   2   8   43.30    2.10
   0   2   8   43.70    2.50
   0   2   8   41.50    1.80
  -1  -2  -8  349.07   14.70
  -1  -2  -8  353.76   13.60
  -1  -2  -8  347.17   12.90
   1   2   8  355.96   13.50
   1   2   8  344.87   12.70
   1   2   8  361.46   13.10
  -2  -2  -8  112.19    5.20
  -2  -2  -8  109.69    6.10
  -2  -2  -8  107.99    4.30
   2   2   8  114.89    4.60
  -3  -2  -8   75.09    3.60
  -3  -2  -8   71.39    4.70
  -3  -2  -8   68.99    2.90
  -3  -2  -8   68.79    3.80
  -4  -2  -8   21.00    2.10
  -4  -2  -8   25.40    2.10
  -5  -2  -8   17.30    1.90
  -5  -2  -8   18.30    2.60
  -5  -2  -8   16.10    1.80
  -6  -2  -8   87.29    4.50
  -6  -2  -8   87.09    5.20
  -7  -2  -8   29.40    2.70
  -7  -2  -8   34.40    3.70
  -8  -2  -8    2.90    1.40
  -8  -2  -8    4.10    1.80
  -9  -2  -8    2.50    1.70
  -9  -2  -8    2.90    1.30
 -12   3   8    2.70    1.20
 -11   3   8    1.00    1.20
 -10   3   8   30.10    2.80
  -9   3   8   13.40    2.00
  -8   3   8   17.30    2.00
   7  -3  -8    0.50    0.70
  -7   3   8    0.20    0.90
  -7   3   8    1.00    1.00
   6  -3  -8    2.60    0.90
  -6   3   8    2.80    1.00
   5  -3  -8   19.40    1.60
  -5   3   8   15.60    1.80
  -5   3   8   21.70    1.70
   4  -3  -8    0.50    0.50
   4  -3  -8    0.80    0.40
   4  -3  -8   -0.30    0.50
   4  -3  -8    0.80    0.90
  -4   3   8    0.10    0.50
  -4   3   8   -0.10    0.50
  -4   3   8   -0.40    0.60
   3  -3  -8   18.20    1.40
   3  -3  -8   21.70    1.30
   3  -3  -8   19.50    1.40
   3  -3  -8   18.10    2.30
  -3   3   8   20.50    1.50
  -3   3   8   21.40    1.70
  -3   3   8   20.40    1.30
   2  -3  -8   20.30    1.20
   2  -3  -8   21.70    1.50
   2  -3  -8   19.70    1.40
   2  -3  -8   22.10    2.40
  -2   3   8   20.90    1.70
  -2   3   8   19.80    1.50
  -2   3   8   19.20    1.20
   1  -3  -8   12.80    2.00
   1  -3  -8   13.70    1.10
   1  -3  -8   12.80    1.20
   1  -3  -8   12.20    0.80
  -1   3   8   13.90    1.50
  -1   3   8   13.00    0.90
  -1   3   8   11.90    1.10
   0  -3  -8    5.30    1.50
   0  -3  -8    5.40    0.80
   0  -3  -8    5.30    0.60
   0   3   8    5.30    0.60
   0   3   8    5.30    1.00
   0   3   8    4.70    0.80
  -1  -3  -8    3.90    1.40
  -1  -3  -8    3.60    0.50
  -1  -3  -8    3.30    0.70
   1   3   8    2.80    0.60
   1   3   8    2.20    0.80
  -2  -3  -8    4.70    0.50
  -2  -3  -8    3.50    1.40
   2   3   8    3.30    0.70
   2   3   8    2.60    0.90
   3   3   8   30.40    2.30
   3   3   8   34.80    2.00
   4   3   8   -0.10    0.60
  -7  -3  -8    9.50    2.20
  -8  -3  -8   16.70    2.50
  -9  -3  -8    3.70    1.50
 -12   4   8    3.00    1.10
 -11   4   8    2.90    1.30
 -10   4   8   28.40    2.70
  -9   4   8   30.10    2.70
  -8   4   8   38.50    2.80
   7  -4  -8    1.20    0.80
  -7   4   8    2.70    1.10
  -7   4   8    0.70    0.90
   6  -4  -8    6.50    1.10
  -6   4   8    8.60    1.30
   5  -4  -8   25.50    1.90
   5  -4  -8   25.40    1.60
  -5   4   8   24.40    2.20
  -5   4   8   24.70    2.00
   4  -4  -8  274.47   12.30
   4  -4  -8  278.87   10.50
   4  -4  -8  284.37   10.90
   4  -4  -8  288.87   10.90
  -4   4   8  274.07   10.70
  -4   4   8  287.57   10.90
  -4   4   8  280.07   11.20
   3  -4  -8   43.00    2.10
   3  -4  -8   45.40    3.60
   3  -4  -8   43.60    2.40
   3  -4  -8   44.00    2.30
  -3   4   8   44.60    2.40
  -3   4   8   45.40    2.70
  -3   4   8   43.00    2.20
   2  -4  -8   18.40    2.40
   2  -4  -8   19.60    1.10
   2  -4  -8   19.20    1.50
   2  -4  -8   17.60    1.30
  -2   4   8   17.60    1.70
  -2   4   8   17.70    1.20
  -2   4   8   18.40    1.40
   1  -4  -8   34.20    3.20
   1  -4  -8   38.30    2.20
   1  -4  -8   36.10    1.60
   1  -4  -8   35.60    1.90
  -1   4   8   34.10    2.30
  -1   4   8   37.90    2.00
  -1   4   8   35.50    1.70
   0  -4  -8  169.98    6.90
   0  -4  -8  170.58    8.60
   0  -4  -8  167.98    6.50
   0   4   8  168.68    6.70
   0   4   8  172.28    7.20
   0   4   8  165.78    6.30
  -1  -4  -8  245.78    9.50
  -1  -4  -8  227.38   11.10
  -1  -4  -8  240.08    8.80
   1   4   8  245.28    9.80
   1   4   8  235.98    9.20
  -2  -4  -8   77.49    5.20
   2   4   8   73.89    5.00
   2   4   8   77.79    3.50
   2   4   8   75.89    4.00
 -12   5   8    1.70    1.00
 -11   5   8    6.30    1.40
 -10   5   8    1.30    1.20
  -9   5   8    1.80    1.10
  -8   5   8   -0.50    0.80
   7  -5  -8   33.50    2.50
   7  -5  -8   33.00    2.20
  -7   5   8   36.80    4.80
  -7   5   8   34.60    2.50
  -7   5   8   33.30    2.40
   6  -5  -8    1.00    0.70
   6  -5  -8    1.50    1.20
  -6   5   8    0.50    0.80
   5  -5  -8    7.60    0.90
   5  -5  -8    7.70    1.20
  -5   5   8    9.00    1.60
  -5   5   8    7.90    1.20
   4  -5  -8    2.00    0.70
   4  -5  -8    0.90    0.60
   4  -5  -8   -0.30    0.40
  -4   5   8    0.30    0.70
  -4   5   8    0.60    1.00
  -4   5   8    0.30    0.60
  -4   5   8   -0.10    0.40
   3  -5  -8    8.80    0.90
   3  -5  -8   10.00    1.10
   3  -5  -8    7.90    1.90
   3  -5  -8    6.50    1.10
  -3   5   8    9.60    2.00
  -3   5   8    8.40    1.10
  -3   5   8    8.30    0.90
  -3   5   8    9.10    1.40
   2  -5  -8    6.30    1.10
   2  -5  -8    9.10    1.00
   2  -5  -8    7.70    0.80
   2  -5  -8    8.50    1.90
  -2   5   8    7.20    0.80
  -2   5   8    7.50    1.00
  -2   5   8    6.70    1.20
  -2   5   8    7.10    1.80
   1  -5  -8    5.20    0.70
   1  -5  -8    4.50    0.60
   1  -5  -8    5.70    1.70
   1  -5  -8    5.30    1.00
  -1   5   8    5.00    0.60
  -1   5   8    5.20    1.60
  -1   5   8    5.50    0.80
  -1   5   8    4.20    1.00
   0  -5  -8   10.60    0.90
   0  -5  -8   11.40    2.20
   0  -5  -8    9.40    1.30
   0   5   8    9.90    1.40
   0   5   8   10.80    0.80
   0   5   8    9.50    2.10
  -1  -5  -8    7.10    1.20
  -1  -5  -8    7.40    0.70
   1   5   8    7.50    1.20
   1   5   8    7.40    1.90
 -12   6   8    0.10    0.90
 -11   6   8   25.20    2.20
 -10   6   8   59.79    3.50
  -9   6   8   69.99    5.00
   8  -6  -8    0.60    0.80
  -8   6   8    0.40    2.90
   7  -6  -8    7.00    1.30
   7  -6  -8    4.30    1.30
  -7   6   8    4.30    2.60
  -7   6   8    5.90    1.30
   6  -6  -8   14.90    2.30
   6  -6  -8   17.30    1.80
  -6   6   8   16.80    1.70
   5  -6  -8   47.80    3.50
   5  -6  -8   52.69    2.50
   5  -6  -8   51.49    3.00
  -5   6   8   48.10    2.80
   4  -6  -8   19.40    1.60
   4  -6  -8   19.70    2.40
   4  -6  -8   19.60    1.80
   4  -6  -8   22.40    1.50
  -4   6   8   20.50    1.50
  -4   6   8   20.90    2.20
  -4   6   8   21.10    1.70
  -4   6   8   21.50    2.90
   3  -6  -8    1.70    0.70
   3  -6  -8    2.90    0.60
   3  -6  -8    2.20    0.90
  -3   6   8    3.10    1.50
  -3   6   8    2.80    1.00
  -3   6   8    1.50    0.90
  -3   6   8    1.80    0.60
   2  -6  -8   53.19    2.60
   2  -6  -8   52.69    2.40
   2  -6  -8   55.29    3.10
  -2   6   8   51.09    3.20
  -2   6   8   53.09    4.40
  -2   6   8   52.39    2.50
   1  -6  -8   14.50    1.20
   1  -6  -8   13.30    1.00
   1  -6  -8   15.50    1.60
  -1   6   8   15.20    1.80
  -1   6   8   15.40    2.70
  -1   6   8   13.60    1.10
   0  -6  -8   36.80    2.70
   0  -6  -8   36.80    2.50
   0  -6  -8   37.80    2.00
   0   6   8   33.60    1.70
  -1  -6  -8    5.30    1.20
  -2  -6  -8    6.20    2.20
  -9   7   8   43.70    4.90
   8  -7  -8    4.40    1.20
  -8   7   8    6.70    3.40
   7  -7  -8    1.00    1.00
  -7   7   8    0.30    2.40
   6  -7  -8    2.20    1.10
   6  -7  -8    1.20    1.50
   6  -7  -8    2.30    1.10
   6  -7  -8    2.00    1.00
   5  -7  -8  113.49    5.40
   5  -7  -8  112.99    6.00
   5  -7  -8  114.29    4.80
   4  -7  -8  253.57    9.70
   4  -7  -8  252.07   10.90
   4  -7  -8  254.87   10.40
   3  -7  -8   79.99    4.10
   3  -7  -8   75.19    4.40
   3  -7  -8   76.79    3.40
   2  -7  -8    3.30    1.20
   2  -7  -8    3.00    1.00
   2  -7  -8    3.20    0.60
   1  -7  -8    3.10    0.60
   1  -7  -8    3.80    1.20
   1  -7  -8    1.40    1.30
   1  -7  -8    2.40    0.90
   0  -7  -8   38.70    2.90
   0  -7  -8   49.50    4.80
   0  -7  -8   40.10    1.90
   0  -7  -8   41.30    4.60
  -1  -7  -8   21.40    3.70
  -1  -7  -8   19.10    3.40
  -2  -7  -8    2.00    1.90
 -10   8   8   14.70    3.00
  -9   8   8    3.10    3.30
   8  -8  -8    5.20    1.30
  -8   8   8    5.60    3.30
   7  -8  -8   34.30    2.80
  -7   8   8   38.30    4.60
   6  -8  -8   74.59    3.70
   6  -8  -8   82.69    4.20
  -6   8   8   66.69    5.80
   5  -8  -8   94.69    4.20
   5  -8  -8   88.99    5.40
   4  -8  -8   -0.90    1.20
   4  -8  -8    2.80    2.10
   4  -8  -8    0.30    0.90
   4  -8  -8    1.10    0.70
   3  -8  -8    4.40    2.30
   3  -8  -8    2.60    0.80
   3  -8  -8    3.40    1.20
   3  -8  -8    3.20    1.50
   2  -8  -8   13.10    1.80
   2  -8  -8   18.40    2.30
   2  -8  -8   16.60    1.40
   2  -8  -8   15.20    3.20
   1  -8  -8   22.00    2.50
   1  -8  -8   24.50    4.10
   1  -8  -8   23.30    1.50
   0  -8  -8   -0.10    0.60
   0  -8  -8    0.70    1.50
  -1  -8  -8    4.30    2.30
  -2  -8  -8    4.50    2.70
 -11   9   8   -1.00    1.10
 -10   9   8    3.70    2.50
  -9   9   8    1.30    3.00
   8  -9  -8    4.00    1.20
  -8   9   8    2.80    3.20
   7  -9  -8   37.70    2.90
  -7   9   8   34.50    4.70
   6  -9  -8    4.40    1.10
   6  -9  -8    3.50    1.30
  -6   9   8    1.00    2.50
   5  -9  -8  176.08    7.10
   5  -9  -8  170.08    7.70
   5  -9  -8  170.88   11.00
   5  -9  -8  171.88    8.60
   4  -9  -8  241.08   13.60
   4  -9  -8  226.88   10.60
   4  -9  -8  241.58    9.30
   3  -9  -8  156.88    6.30
   3  -9  -8  158.78   10.50
   3  -9  -8  151.38    7.70
   2  -9  -8   13.90    2.30
   2  -9  -8   13.60    3.40
   2  -9  -8   11.40    1.30
   1  -9  -8    6.80    1.00
   1  -9  -8    6.60    2.60
   0  -9  -8   27.90    5.20
   0  -9  -8   26.60    1.80
  -1  -9  -8    1.60    2.50
 -11  10   8    3.40    1.30
 -10  10   8   -4.10    1.80
  -9  10   8    1.30    2.70
   8 -10  -8    6.50    1.40
  -8  10   8    9.10    3.20
   7 -10  -8    5.80    1.50
  -7  10   8    4.40    3.00
   6 -10  -8   14.50    1.60
   6 -10  -8   18.50    2.10
  -6  10   8   12.20    3.20
   5 -10  -8    0.60    1.00
   5 -10  -8    0.70    1.30
   5 -10  -8   -1.50    2.50
  -5  10   8   -2.50    2.00
   4 -10  -8    1.70    2.80
   4 -10  -8    2.20    1.10
   3 -10  -8    1.20    1.80
   3 -10  -8    1.20    2.40
   3 -10  -8    1.00    0.90
   2 -10  -8   29.20    2.10
   2 -10  -8   21.20    4.30
   1 -10  -8    5.30    2.90
   1 -10  -8    4.00    1.00
   0 -10  -8   12.20    1.30
   0 -10  -8   12.00    3.60
  -1 -10  -8    3.40    3.00
 -11  11   8    2.80    1.30
 -10  11   8    2.40    1.90
  -9  11   8   16.80    3.00
   8 -11  -8    0.90    1.10
  -8  11   8    1.80    2.60
   7 -11  -8   11.90    1.80
  -7  11   8   10.10    3.00
   6 -11  -8    4.30    3.10
   6 -11  -8    7.00    1.70
  -6  11   8    4.60    2.80
   5 -11  -8    3.40    1.50
   5 -11  -8    3.20    3.20
   5 -11  -8    3.60    1.20
  -5  11   8   -0.50    2.40
   4 -11  -8    3.00    3.20
   4 -11  -8    4.70    1.20
   3 -11  -8    4.60    1.20
   3 -11  -8   10.00    3.70
   2 -11  -8    1.70    2.80
   2 -11  -8    0.40    0.90
   1 -11  -8    8.60    1.20
   1 -11  -8   11.30    3.80
   0 -11  -8   21.30    4.40
  -1 -11  -8    5.10    3.50
 -10  12   8    4.40    1.50
  -9  12   8   -0.30    1.90
   8 -12  -8    2.30    1.10
  -8  12   8    1.40    2.10
   7 -12  -8    3.10    1.40
  -7  12   8    3.90    2.40
   6 -12  -8    3.00    3.20
   6 -12  -8    6.30    1.60
  -6  12   8    5.80    2.50
   5 -12  -8    5.80    3.40
   5 -12  -8    5.00    1.60
   4 -12  -8    1.50    3.00
   3 -12  -8    6.40    3.60
   2 -12  -8    1.90    3.10
   1 -12  -8    4.20    3.30
   0 -12  -8    6.60    3.50
  -9  13   8    3.30    1.50
   8 -13  -8   16.00    1.60
  -8  13   8   12.80    2.30
   7 -13  -8   33.40    2.70
  -7  13   8   32.20    3.40
   6 -13  -8   51.89    6.90
   6 -13  -8   62.29    3.60
   5 -13  -8   -0.10    3.00
   5 -13  -8    1.60    1.50
   4 -13  -8    0.70    1.40
   4 -13  -8    2.90    3.20
   3 -13  -8   11.80    3.80
   2 -13  -8   43.40    6.90
   1 -13  -8   22.10    4.20
   7 -14  -8    6.30    1.30
   6 -14  -8    2.90    1.40
   6 -14  -8    1.80    3.10
   5 -14  -8    3.10    1.40
   5 -14  -8   -0.50    2.90
   4 -14  -8    1.90    1.40
   4 -14  -8    3.10    3.10
  -4  15  -9   47.70    4.40
  -5  15  -9   23.00    3.30
  -1  14  -9   10.70    2.40
  -2  14  -9    8.60    2.80
  -3  14  -9   -6.00    2.10
  -4  14  -9    4.60    3.30
  -5  14  -9   -2.50    2.20
  -6  14  -9    9.00    2.80
  -1 -13   9    2.90    1.00
  -1 -13   9    6.70    1.80
   0  13  -9   44.90    4.60
   0 -13   9   37.60    2.80
   0 -13   9   40.10    2.30
  -1  13  -9   45.80    6.00
   1 -13   9   50.09    2.50
   1 -13   9   43.40    3.20
  -2  13  -9    6.30    3.70
   2 -13   9   13.80    1.40
   2 -13   9   12.40    1.90
  -3  13  -9   -6.00    3.10
   3 -13   9    0.60    1.10
  -4  13  -9   54.59    7.60
  -5  13  -9   41.70    6.30
  -6  13  -9   25.10    4.70
  -3 -12   9   -2.00    0.90
  -2 -12   9   -0.10    1.20
  -2 -12   9   -0.20    1.00
  -1 -12   9    0.30    0.90
  -1 -12   9   -1.10    1.00
   0  12  -9   -0.30    2.50
   0 -12   9    1.30    1.20
   0 -12   9    0.30    0.90
  -1  12  -9   10.70    3.80
   1 -12   9   11.20    1.50
   1 -12   9   11.00    2.00
  -2  12  -9    3.10    3.60
   2 -12   9    5.20    1.50
   2 -12   9    5.60    1.10
  -3  12  -9    5.20    3.90
   3 -12   9   12.10    2.00
  -4  12  -9   -6.20    3.00
   4 -12   9    0.70    1.10
  -5  12  -9   -7.70    2.70
   5 -12   9   -1.40    1.00
  -6  12  -9    5.50    3.10
   6 -12   9    8.20    1.60
  -9  12  -9    0.00    1.10
 -10  12  -9    0.70    1.10
  -4 -11   9    1.20    1.10
  -4 -11   9   -2.90    1.00
  -3 -11   9   -0.50    1.10
  -3 -11   9   -0.60    1.30
  -2 -11   9    7.10    1.80
  -2 -11   9    6.20    1.40
   1  11  -9   28.80    5.00
  -1 -11   9   11.50    2.20
  -1 -11   9   13.60    1.70
   0  11  -9    8.70    3.40
   0 -11   9    8.60    1.90
   0 -11   9    7.50    1.40
  -1  11  -9   91.99    9.10
   1 -11   9  103.49    5.40
   1 -11   9   96.99    4.70
  -2  11  -9    1.20    3.30
   2 -11   9    2.20    1.30
   2 -11   9    1.50    0.90
  -3  11  -9   22.20    4.70
   3 -11   9   28.20    2.00
   3 -11   9   28.80    2.70
  -4  11  -9   -1.60    2.90
   4 -11   9    0.20    1.10
  -5  11  -9   -1.80    2.70
   5 -11   9   -0.20    1.00
  -6  11  -9   27.60    5.40
   6 -11   9   26.70    2.50
   7 -11   9   54.09    3.40
   8 -11   9   40.90    3.00
  -9  11  -9    5.80    1.80
   9 -11   9    4.80    1.20
 -10  11  -9    7.40    1.70
 -11  11  -9    5.70    1.40
  -5 -10   9   12.30    1.90
  -5 -10   9    7.20    1.30
  -4 -10   9    1.40    1.50
  -4 -10   9    3.10    1.50
  -3 -10   9   25.10    2.60
  -3 -10   9   26.20    3.00
  -2 -10   9    6.10    1.40
  -2 -10   9    4.90    1.70
   1  10  -9    5.60    2.50
  -1 -10   9   -0.30    1.40
  -1 -10   9    2.00    1.20
   0  10  -9    2.80    2.60
   0 -10   9    1.50    1.40
   0 -10   9    1.70    1.10
  -1  10  -9   23.10    4.50
   1 -10   9   20.30    2.60
   1 -10   9   23.10    2.20
  -2  10  -9   28.00    4.90
   2 -10   9   30.60    2.20
   2 -10   9   25.70    2.70
  -3  10  -9   10.20    3.60
   3 -10   9    9.20    1.20
   3 -10   9    7.00    1.50
  -4  10  -9   47.50    6.80
   4 -10   9   54.69    3.40
  -5  10  -9    3.90    2.60
   5 -10   9    3.60    1.20
   6 -10   9   82.59    4.50
  -7  10  -9   55.19    4.60
   7 -10   9   55.79    3.50
  -8  10  -9   53.29    4.30
   8 -10   9   51.99    3.40
  -9  10  -9    2.30    1.70
   9 -10   9    2.00    1.10
 -10  10  -9   32.40    3.20
  10 -10   9   28.90    2.30
 -11  10  -9   29.00    2.70
  -6  -9   9    1.00    1.10
  -6  -9   9   -3.00    0.90
  -5  -9   9   11.80    1.90
  -5  -9   9   14.80    2.30
  -4  -9   9   51.79    3.50
  -4  -9   9   55.29    4.20
  -3  -9   9   37.00    3.70
  -3  -9   9   37.30    3.00
  -2  -9   9    7.90    2.00
  -2  -9   9    4.00    1.30
   1   9  -9   27.40    5.10
  -1  -9   9    5.40    1.70
  -1  -9   9    6.40    1.40
   0   9  -9  186.98   11.00
   0  -9   9  184.98    8.40
   0  -9   9  180.78    7.70
  -1   9  -9   14.00    3.40
   1  -9   9   12.40    1.90
   1  -9   9   11.90    1.50
  -2   9  -9   14.80    3.60
   2  -9   9   16.70    2.10
   2  -9   9   17.00    1.70
  -3   9  -9    4.50    2.60
   3  -9   9    1.90    1.10
  -4   9  -9    4.00    2.60
   4  -9   9    3.70    1.20
  -5   9  -9    8.20    2.50
   5  -9   9    8.20    1.50
  -6   9  -9   18.90    2.60
   6  -9   9   17.00    2.10
  -7   9  -9   -1.20    1.50
   7  -9   9   -0.20    0.90
  -8   9  -9    1.30    1.70
   8  -9   9   -0.80    0.90
  -9   9  -9    1.90    1.70
   9  -9   9    2.20    1.10
 -10   9  -9   12.30    2.30
  10  -9   9   16.80    2.00
 -11   9  -9    4.60    1.60
  11  -9   9    3.90    1.10
  -7  -8   9   -1.60    0.80
  -7  -8   9    1.20    1.20
  -6  -8   9   -3.00    1.10
  -6  -8   9    1.20    1.50
  -5  -8   9   18.20    2.70
  -5  -8   9   20.00    2.20
  -4  -8   9   10.10    1.60
  -4  -8   9   11.10    2.40
  -3  -8   9   12.50    2.40
  -3  -8   9   14.00    1.90
  -2  -8   9    7.10    1.90
  -2  -8   9    7.20    1.40
  -1  -8   9    2.20    1.00
  -1  -8   9    4.00    1.50
   0   8  -9  137.79    8.50
   0  -8   9  124.09    6.10
   0  -8   9  113.29    5.40
  -1   8  -9   57.59    6.00
   1  -8   9   50.89    3.30
  -2   8  -9    4.00    2.20
   2  -8   9    0.20    0.80
  -3   8  -9   30.60    4.90
   3  -8   9   23.70    2.30
  -4   8  -9   20.70    3.80
  -5   8  -9  149.79    6.90
  -5   8  -9  139.09    8.60
   5  -8   9  138.99    6.50
  -6   8  -9    7.20    2.10
   6  -8   9    5.70    1.30
  -7   8  -9    1.40    1.70
   7  -8   9    1.00    1.00
  -8   8  -9    5.80    2.10
  -9   8  -9   11.50    2.50
  -9   8  -9   11.80    2.40
 -10   8  -9   12.40    2.30
 -11   8  -9    0.60    1.40
  11  -8   9    0.00    0.90
  -8  -7   9   -0.60    0.80
  -7  -7   9   10.20    2.00
  -7  -7   9    8.20    1.60
  -6  -7   9    6.90    1.60
  -6  -7   9    7.50    2.00
  -5  -7   9    5.40    1.40
  -5  -7   9    6.60    2.00
  -4  -7   9   14.10    1.80
  -4  -7   9   19.00    2.80
  -3  -7   9    0.80    1.40
  -3  -7   9    2.10    1.10
  -2  -7   9    2.30    1.30
  -2  -7   9    1.40    1.00
  -1  -7   9   56.29    3.60
   0  -7   9    0.40    0.90
   1  -7   9    3.50    1.00
   2  -7   9    1.20    1.00
   3  -7   9   30.40    2.30
  -5   7  -9   23.90    2.60
   5  -7   9   15.10    1.80
  -6   7  -9    0.20    1.40
  -6   7  -9    0.80    1.40
  -6   7  -9    1.50    0.90
  -7   7  -9    4.70    1.80
  -7   7  -9    4.30    1.90
  -7   7  -9    5.20    1.20
  -8   7  -9    6.50    1.30
  -8   7  -9    7.30    2.20
  -8   7  -9    8.70    2.30
  -9   7  -9    7.00    2.10
  -9   7  -9    6.50    2.20
 -10   7  -9    4.50    2.00
 -10   7  -9    6.90    2.00
 -10   7  -9    2.60    1.30
 -11   7  -9   29.40    3.10
 -11   7  -9   26.40    2.30
 -11   7  -9   28.80    3.10
  -8  -6   9    1.40    1.30
  -8  -6   9   -0.90    0.90
  -7  -6   9   28.60    3.20
  -7  -6   9   29.80    2.80
  -6  -6   9   48.50    3.40
  -6  -6   9   48.70    4.10
  -5  -6   9  126.39    6.60
  -5  -6   9  108.29    5.50
  -4  -6   9   38.10    3.50
  -4  -6   9   35.50    2.70
   3   6  -9    3.00    1.20
  -3  -6   9    1.80    1.30
  -3  -6   9    1.30    1.00
  -2  -6   9  117.79    5.80
   1   6  -9  477.95   20.50
  -1  -6   9  497.25   18.80
   0   6  -9  397.46   17.30
  -1   6  -9   33.30    3.70
  -2   6  -9   23.00    3.30
  -3   6  -9   25.90    2.20
  -3   6  -9   23.60    3.30
  -4   6  -9  199.38    7.70
  -4   6  -9  185.78    8.30
  -4   6  -9  190.88   10.10
   4  -6   9  194.88    8.80
  -5   6  -9   75.99    3.60
  -5   6  -9   76.99    4.60
  -5   6  -9   74.59    4.60
  -6   6  -9    5.40    1.20
  -6   6  -9    5.50    1.70
  -6   6  -9    3.70    1.60
  -6   6  -9    3.10    1.00
  -7   6  -9  173.18    8.50
  -7   6  -9  171.18    7.10
  -7   6  -9  167.48    7.30
  -7   6  -9  169.38    8.40
  -8   6  -9  311.37   12.10
  -8   6  -9  314.07   13.50
  -8   6  -9  303.57   12.30
  -8   6  -9  307.77   13.50
  -9   6  -9  136.69    6.40
  -9   6  -9  138.19    6.10
  -9   6  -9  141.89    7.60
  -9   6  -9  137.69    7.50
 -10   6  -9   28.40    3.40
 -10   6  -9   25.70    2.50
 -10   6  -9   29.80    3.40
 -10   6  -9   21.30    2.60
 -11   6  -9    0.40    1.30
 -11   6  -9    1.00    1.60
 -11   6  -9   -0.20    1.10
 -12   6  -9    0.40    0.80
  -9  -5   9    1.10    1.20
  -8  -5   9    4.90    1.40
  -8  -5   9    5.70    1.80
  -7  -5   9    7.40    2.00
  -7  -5   9    8.70    1.60
  -6  -5   9   -1.10    1.30
  -6  -5   9    1.70    1.20
  -5  -5   9    2.20    1.50
  -5  -5   9    4.80    1.30
   4   5  -9   10.00    1.60
  -4  -5   9   17.30    2.00
  -4  -5   9   11.90    2.00
   3   5  -9    2.00    1.00
  -3  -5   9    1.40    1.10
   2   5  -9    2.70    1.40
   2   5  -9    3.40    1.00
   1   5  -9    1.90    1.30
   0   5  -9    3.20    1.40
  -1   5  -9   24.00    3.10
  -2   5  -9   71.09    3.20
  -2   5  -9   76.69    5.20
  -2   5  -9   71.39    3.70
  -3   5  -9   34.30    3.50
  -3   5  -9   27.70    2.30
  -3   5  -9   35.60    2.30
  -3   5  -9   33.70    1.90
   3  -5   9   32.90    2.10
   3  -5   9   28.90    1.70
  -4   5  -9    8.50    1.30
  -4   5  -9    7.40    1.90
  -4   5  -9    8.90    1.50
  -4   5  -9    7.40    1.20
  -4   5  -9    8.50    1.10
   4  -5   9    7.80    1.10
  -5   5  -9   32.90    2.90
  -5   5  -9   35.40    2.30
  -5   5  -9   34.30    2.10
  -5   5  -9   32.50    2.90
   5  -5   9   32.10    2.20
  -6   5  -9   16.90    2.40
  -6   5  -9   20.30    2.70
  -6   5  -9   18.70    1.80
  -6   5  -9   18.70    2.00
  -7   5  -9   16.70    2.40
  -7   5  -9   17.10    1.70
  -7   5  -9   17.10    2.60
  -7   5  -9   16.20    1.90
  -8   5  -9    7.30    2.20
  -8   5  -9    9.30    1.70
  -8   5  -9    9.10    2.20
  -8   5  -9   10.20    1.50
  -9   5  -9    0.20    1.00
  -9   5  -9    0.40    1.20
  -9   5  -9    0.70    1.70
  -9   5  -9    1.20    1.80
 -10   5  -9    7.30    1.40
 -10   5  -9    6.30    2.10
 -10   5  -9    8.00    1.60
 -10   5  -9    6.20    2.00
 -11   5  -9    0.60    1.60
 -11   5  -9    1.70    1.20
 -11   5  -9    0.00    1.50
 -12   5  -9    0.80    0.90
  -9  -4   9    0.20    1.30
  -8  -4   9    3.40    1.30
  -8  -4   9    2.60    1.60
  -7  -4   9   14.40    2.60
  -7  -4   9   23.60    2.50
  -6  -4   9   67.39    4.50
  -6  -4   9   65.39    3.80
   5   4  -9   67.29    4.20
  -5  -4   9   63.69    4.30
  -5  -4   9   66.39    3.60
   4   4  -9    2.80    1.10
  -4  -4   9    5.70    1.50
   3   4  -9    5.20    1.10
   2   4  -9   35.70    3.30
   2   4  -9   38.50    2.30
   1   4  -9  133.69    7.20
   0   4  -9   24.10    2.90
   0  -4   9   20.90    1.30
  -1   4  -9  108.19    4.30
  -1   4  -9  107.79    4.80
  -1   4  -9  107.49    4.70
  -1   4  -9  111.69    6.30
   1  -4   9   95.69    4.50
  -2   4  -9   47.60    3.90
  -2   4  -9   47.70    2.80
  -2   4  -9   46.00    2.30
  -2   4  -9   46.30    2.60
   2  -4   9   46.00    2.40
   2  -4   9   47.50    2.30
  -3   4  -9  240.28    9.70
  -3   4  -9  245.48   10.00
  -3   4  -9  235.68    9.50
  -3   4  -9  254.57   11.50
  -3   4  -9  249.78    9.30
   3  -4   9  234.28    9.40
  -4   4  -9  201.88    8.30
  -4   4  -9  207.18    7.90
  -4   4  -9  208.78   10.10
  -4   4  -9  206.48    8.20
  -4   4  -9  191.48    8.60
   4  -4   9  198.18    8.00
  -5   4  -9    1.90    1.20
  -5   4  -9    0.20    0.70
  -5   4  -9    1.10    0.70
  -5   4  -9    0.60    0.80
  -5   4  -9    1.70    1.50
   5  -4   9    0.40    0.60
  -6   4  -9    3.00    1.10
  -6   4  -9    1.60    1.30
  -6   4  -9    1.40    0.80
  -6   4  -9   -0.60    1.10
  -7   4  -9    2.80    1.00
  -7   4  -9    2.60    1.60
  -7   4  -9    2.70    1.20
  -7   4  -9    2.10    1.60
  -8   4  -9   56.29    3.30
  -8   4  -9   58.29    4.60
  -8   4  -9   52.89    4.40
  -8   4  -9   61.59    3.70
  -9   4  -9    5.60    1.50
  -9   4  -9    6.90    2.10
  -9   4  -9    5.10    1.30
  -9   4  -9    4.80    2.20
 -10   4  -9   25.20    2.60
 -10   4  -9   27.90    3.40
 -10   4  -9   27.50    2.40
 -10   4  -9   29.40    3.50
 -11   4  -9    6.60    1.90
 -11   4  -9    2.70    1.20
 -12   4  -9   -0.70    0.80
  -9  -3   9   -0.10    1.30
  -9  -3   9    1.50    1.40
  -8  -3   9   43.40    3.00
  -8  -3   9   42.60    3.70
  -8  -3   9   44.10    3.20
  -7  -3   9    1.10    1.10
  -7  -3   9    0.30    1.50
  -7  -3   9    1.70    1.10
  -6  -3   9   23.00    2.80
  -6  -3   9   25.20    2.30
  -6  -3   9   29.00    2.40
   5   3  -9    5.70    1.30
  -5  -3   9    9.10    2.20
  -5  -3   9    6.00    1.60
   4   3  -9    4.60    1.10
   3   3  -9    2.20    0.80
   2   3  -9   42.50    2.30
   2   3  -9   42.30    3.40
   1   3  -9   70.69    4.50
  -1  -3   9   61.89    2.90
   0   3  -9    4.70    0.70
   0   3  -9    6.10    1.50
   0   3  -9    4.90    0.90
   0   3  -9    4.50    0.90
   0  -3   9    4.20    0.70
   0  -3   9    4.70    0.70
  -1   3  -9   72.99    4.70
  -1   3  -9   72.49    3.50
  -1   3  -9   66.19    3.30
  -1   3  -9   69.69    3.00
   1  -3   9   65.39    3.10
   1  -3   9   69.19    3.00
  -2   3  -9   61.09    2.80
  -2   3  -9   60.09    3.30
  -2   3  -9   65.89    3.10
  -2   3  -9   64.19    4.40
   2  -3   9   55.89    2.80
   2  -3   9   66.19    2.80
  -3   3  -9   50.39    2.70
  -3   3  -9   50.79    4.00
  -3   3  -9   53.69    2.70
  -3   3  -9   51.49    3.10
  -3   3  -9   49.20    2.40
   3  -3   9   47.40    2.50
  -4   3  -9  142.39    5.60
  -4   3  -9  144.39    7.70
  -4   3  -9  136.99    6.00
  -4   3  -9  139.29    6.50
   4  -3   9  142.59    5.80
  -5   3  -9   10.60    1.30
  -5   3  -9   10.80    1.70
  -5   3  -9   12.20    1.20
  -5   3  -9   14.70    1.60
   5  -3   9   13.10    1.30
  -6   3  -9   14.80    1.80
  -6   3  -9   15.20    1.40
  -6   3  -9   16.30    2.40
  -6   3  -9   10.20    2.00
  -6   3  -9   17.10    2.40
  -7   3  -9    0.70    0.80
  -7   3  -9    1.80    1.50
  -7   3  -9   -0.50    1.30
  -7   3  -9   -0.60    1.10
  -8   3  -9   27.50    2.10
  -8   3  -9   27.50    3.50
  -8   3  -9   28.40    2.70
  -8   3  -9   34.30    3.70
  -9   3  -9   31.10    2.50
  -9   3  -9   33.30    3.60
  -9   3  -9   36.00    3.00
  -9   3  -9   37.00    4.10
 -10   3  -9   23.30    3.20
 -10   3  -9   27.20    2.70
 -11   3  -9   -0.50    1.40
 -11   3  -9    0.10    1.10
 -10  -2   9    1.30    1.10
  -9  -2   9    0.80    1.10
  -8  -2   9   13.90    1.90
  -8  -2   9   12.40    1.80
  -7  -2   9    7.00    1.40
  -7  -2   9    9.00    1.50
   6   2  -9    2.10    1.00
  -6  -2   9    5.20    1.20
  -6  -2   9    2.60    1.10
   5   2  -9   24.90    2.10
  -5  -2   9   22.90    2.40
   4   2  -9   21.90    1.90
  -4  -2   9   22.20    1.70
   3   2  -9   90.09    4.00
   3   2  -9   88.89    5.10
  -3  -2   9   86.59    3.90
   2   2  -9   12.10    1.10
   2   2  -9   10.20    1.80
  -2  -2   9   10.80    1.10
   1   2  -9  141.69    6.00
   1   2  -9  155.28    5.80
   1   2  -9  144.49    6.10
   1   2  -9  159.48    7.50
   1   2  -9  143.99    5.70
  -1  -2   9  152.08    5.90
  -1  -2   9  144.19    5.90
   0   2  -9   21.40    1.60
   0   2  -9   23.00    1.60
   0   2  -9   23.40    1.40
   0   2  -9   24.70    2.60
   0  -2   9   22.20    1.50
   0  -2   9   22.80    1.40
  -1   2  -9    6.90    1.60
  -1   2  -9    6.70    0.90
  -1   2  -9    7.10    0.80
  -1   2  -9    5.00    0.90
   1  -2   9    8.50    0.90
   1  -2   9    8.00    0.90
  -2   2  -9   10.00    1.90
  -2   2  -9    8.20    1.20
  -2   2  -9    8.40    0.90
  -2   2  -9    9.20    1.10
   2  -2   9    9.70    1.00
   2  -2   9    8.60    0.90
  -3   2  -9  162.58    6.50
  -3   2  -9  157.98    6.10
  -3   2  -9  154.08    6.90
  -3   2  -9  156.48    8.00
  -3   2  -9  157.48    6.40
   3  -2   9  154.58    6.20
  -4   2  -9   54.09    2.40
  -4   2  -9   52.39    4.10
  -4   2  -9   54.69    2.90
  -4   2  -9   53.69    3.40
   4  -2   9   51.59    2.60
  -5   2  -9    2.20    0.60
  -5   2  -9    3.20    1.10
  -5   2  -9    2.90    0.80
  -5   2  -9    4.50    1.20
  -5   2  -9    3.70    1.70
   5  -2   9    4.20    0.80
  -6   2  -9    5.50    1.30
  -6   2  -9    4.00    1.60
  -6   2  -9    3.00    1.20
  -7   2  -9    1.00    1.20
  -7   2  -9    3.60    0.90
  -7   2  -9    2.20    1.70
  -7   2  -9    1.10    1.40
  -8   2  -9   22.00    1.90
  -8   2  -9   18.70    2.90
  -8   2  -9   19.50    2.80
  -8   2  -9   24.00    2.50
  -9   2  -9   -0.20    1.80
  -9   2  -9   -1.00    1.20
  -9   2  -9    1.50    0.90
 -10   2  -9    3.90    1.50
 -10   2  -9    1.00    1.80
 -11   2  -9   13.40    2.20
 -11  -1   9    1.60    0.90
 -10  -1   9    1.10    1.10
  -9  -1   9    7.80    1.60
  -8  -1   9   28.60    2.70
  -7  -1   9   16.10    1.90
  -7  -1   9   14.20    1.80
   6   1  -9   46.90    2.90
  -6  -1   9   44.20    2.90
  -6  -1   9   46.60    3.00
  -6  -1   9   48.30    3.10
   5   1  -9   13.90    1.50
  -5  -1   9   13.90    1.60
   4   1  -9   13.00    1.40
  -4  -1   9   15.90    1.40
   3   1  -9    9.40    1.70
   3   1  -9    9.20    1.10
  -3  -1   9   10.70    1.20
   2   1  -9   68.49    3.00
   2   1  -9   72.29    3.40
   2   1  -9   70.39    4.40
   2   1  -9   71.79    3.20
  -2  -1   9   74.69    3.30
  -2  -1   9   69.19    3.30
  -2  -1   9   71.69    3.20
   1   1  -9    2.20    0.60
   1   1  -9    2.30    0.50
   1   1  -9    2.70    0.70
   1   1  -9    3.00    1.20
   1   1  -9    2.10    0.50
  -1  -1   9    3.40    0.70
  -1  -1   9    2.50    0.60
   0   1  -9    1.80    0.50
   0   1  -9    2.50    1.20
   0   1  -9    1.80    0.70
   0   1  -9    2.40    0.60
   0  -1   9    2.90    0.60
   0  -1   9    2.50    0.60
  -1   1  -9   14.10    1.00
  -1   1  -9   15.50    1.30
  -1   1  -9   15.00    1.50
  -1   1  -9   18.30    2.30
   1  -1   9   16.50    1.20
   1  -1   9   14.60    1.10
  -2   1  -9    1.80    1.10
  -2   1  -9    2.00    0.50
  -2   1  -9    2.20    0.80
  -2   1  -9    2.70    0.60
   2  -1   9    2.50    0.50
   2  -1   9    2.30    0.60
  -3   1  -9  281.57   12.30
  -3   1  -9  291.37   10.80
  -3   1  -9  268.67   10.20
  -3   1  -9  273.47   11.10
  -3   1  -9  274.07   10.50
   3  -1   9  268.97   10.30
  -4   1  -9  106.79    4.70
  -4   1  -9   98.89    4.00
  -4   1  -9   97.09    5.00
   4  -1   9  100.99    4.20
  -5   1  -9   14.80    1.40
  -5   1  -9   18.10    2.40
  -5   1  -9   16.90    1.20
  -5   1  -9   21.30    2.50
  -5   1  -9   15.10    1.70
   5  -1   9   19.80    1.40
  -6   1  -9    2.10    1.50
  -6   1  -9    3.90    1.20
  -6   1  -9    4.10    1.20
  -6   1  -9    4.70    1.50
  -7   1  -9   13.20    2.50
  -7   1  -9   12.20    1.30
  -7   1  -9   13.20    1.80
  -7   1  -9   14.30    2.50
  -8   1  -9    2.20    2.00
  -8   1  -9    2.50    1.40
  -8   1  -9    2.00    1.00
  -9   1  -9   29.50    3.60
  -9   1  -9   31.60    2.20
  -9   1  -9   31.00    2.90
 -10   1  -9    1.40    1.60
 -10   1  -9   -0.70    1.10
 -11   1  -9    1.50    0.90
 -11   1  -9    2.50    1.30
 -11   0   9    0.90    1.10
 -10   0   9    4.70    1.40
  -9   0   9  118.59    5.80
  -8   0   9  290.47   11.70
  -7   0   9   66.29    4.50
  -7   0   9   61.49    3.60
   6   0  -9    1.40    0.80
  -6   0   9    3.40    1.00
   5   0  -9    1.30    0.70
  -5   0   9    1.50    0.80
   4   0  -9   65.89    3.20
  -4   0   9   64.49    3.20
   3   0  -9   21.00    1.30
   3   0  -9   21.40    1.50
   3   0  -9   20.90    2.30
  -3   0   9   22.20    1.60
   2   0  -9   44.30    2.20
   2   0  -9   45.80    2.10
   2   0  -9   44.10    3.30
   2   0  -9   42.90    2.30
  -2   0   9   44.90    2.40
  -2   0   9   43.60    2.20
  -2   0   9   42.80    2.30
   1   0  -9    6.20    0.80
   1   0  -9    4.00    0.90
   1   0  -9    6.40    0.90
   1   0  -9    6.30    1.60
   1   0  -9    6.80    0.70
  -1   0   9    4.40    0.80
  -1   0   9    6.50    0.80
  -1   0   9    7.90    0.90
   0   0  -9  112.09    6.10
   0   0  -9  113.59    4.70
   0   0  -9  109.29    5.00
   0   0  -9  114.39    4.40
   0   0   9  112.09    4.60
   0   0   9  116.89    4.70
  -1   0  -9  144.29    5.80
  -1   0  -9  138.39    5.60
  -1   0  -9  146.49    7.40
  -1   0  -9  152.78    6.40
   1   0   9  148.39    5.70
   1   0   9  151.08    5.90
  -2   0  -9   34.30    1.60
  -2   0  -9   34.90    3.20
  -2   0  -9   36.10    2.50
  -2   0  -9   36.70    1.90
   2   0   9   34.80    1.80
   2   0   9   37.20    2.00
  -3   0  -9    0.30    0.70
  -3   0  -9    0.30    0.40
  -3   0  -9    0.40    0.70
  -3   0  -9    0.50    0.40
  -3   0  -9    1.10    1.00
   3   0   9    0.50    0.40
  -4   0  -9    4.40    0.70
  -4   0  -9    4.90    1.20
  -4   0  -9    4.60    1.10
   4   0   9    5.10    0.70
  -5   0  -9   45.80    2.90
  -5   0  -9   48.90    3.60
  -5   0  -9   46.00    3.70
  -6   0  -9   24.30    2.30
  -6   0  -9   20.50    2.80
  -6   0  -9   23.60    1.60
  -6   0  -9   23.30    2.40
  -6   0  -9   24.20    2.90
  -7   0  -9    0.50    1.20
  -7   0  -9    0.40    0.70
  -7   0  -9    0.40    1.50
  -8   0  -9   39.10    2.40
  -8   0  -9   43.90    4.20
  -8   0  -9   44.10    3.20
  -9   0  -9   15.50    2.00
  -9   0  -9   13.40    2.50
 -10   0  -9    1.70    1.10
 -10   0  -9    2.30    1.50
 -12   1   9    2.50    0.90
 -11   1   9   14.10    1.80
 -10   1   9   28.60    2.70
  -9   1   9   15.50    2.20
  -8   1   9   89.29    4.70
   7  -1  -9   59.19    3.40
  -7   1   9   60.69    3.60
  -7   1   9   64.89    3.70
   6  -1  -9    9.40    1.30
  -6   1   9    9.40    1.40
   5  -1  -9    3.70    0.90
  -5   1   9    3.80    0.90
   4  -1  -9    4.50    0.90
  -4   1   9    4.30    0.90
   3  -1  -9  415.66   15.40
   3  -1  -9  427.86   15.70
   3  -1  -9  415.36   15.80
   3  -1  -9  416.96   17.10
  -3   1   9  428.26   15.90
  -3   1   9  400.96   15.60
  -3   1   9  435.66   15.70
   2  -1  -9  634.64   23.20
   2  -1  -9  628.04   23.00
   2  -1  -9  620.84   23.30
   2  -1  -9  640.34   24.90
  -2   1   9  651.13   23.30
  -2   1   9  628.24   23.50
  -2   1   9  650.13   23.20
   1  -1  -9    9.30    1.80
   1  -1  -9   11.90    1.10
   1  -1  -9    8.70    0.90
   1  -1  -9    8.40    0.90
  -1   1   9    9.40    1.00
  -1   1   9    9.80    1.20
  -1   1   9    8.80    0.90
   0  -1  -9   44.20    3.50
   0  -1  -9   43.10    2.00
   0  -1  -9   44.40    2.20
   0  -1  -9   43.10    2.60
   0   1   9   44.90    2.50
   0   1   9   41.80    2.10
   0   1   9   47.70    2.30
  -1  -1  -9   95.09    3.90
  -1  -1  -9   90.19    3.60
  -1  -1  -9   96.69    4.50
  -1  -1  -9   93.89    5.50
   1   1   9   96.49    4.00
   1   1   9   94.69    3.80
  -2  -1  -9    4.10    1.50
  -2  -1  -9    2.90    0.60
  -2  -1  -9    2.90    1.00
   2   1   9    2.80    0.50
   2   1   9    3.60    0.70
  -3  -1  -9   44.80    2.20
  -3  -1  -9   47.20    3.10
  -3  -1  -9   50.89    2.80
  -3  -1  -9   48.20    3.90
   3   1   9   51.09    2.20
  -4  -1  -9  106.99    5.00
  -4  -1  -9  103.09    4.30
  -4  -1  -9  104.09    5.30
   4   1   9  107.89    4.20
  -5  -1  -9   46.10    3.60
  -5  -1  -9   42.90    3.50
  -5  -1  -9   41.30    2.80
  -5  -1  -9   44.90    3.00
  -6  -1  -9   34.70    3.60
  -6  -1  -9   41.30    3.00
  -7  -1  -9   82.89    5.40
  -7  -1  -9   90.99    4.70
  -8  -1  -9   15.30    2.00
  -9  -1  -9    4.00    1.40
  -9  -1  -9    5.30    1.90
 -10  -1  -9   18.90    1.80
 -10  -1  -9   11.70    1.90
 -12   2   9    1.00    0.90
 -11   2   9    0.10    1.10
 -10   2   9    0.10    1.30
  -9   2   9   27.10    2.70
  -8   2   9   19.20    2.20
   7  -2  -9    6.20    1.30
  -7   2   9    6.20    1.40
  -7   2   9    5.90    1.30
   6  -2  -9    0.50    0.70
  -6   2   9    0.00    0.80
   5  -2  -9   13.80    1.50
  -5   2   9   15.90    1.60
   4  -2  -9   25.40    1.50
   4  -2  -9   24.60    2.60
   4  -2  -9   26.60    1.80
  -4   2   9   24.60    1.90
  -4   2   9   25.40    1.90
   3  -2  -9   34.30    2.00
   3  -2  -9   32.60    2.90
   3  -2  -9   34.80    1.70
   3  -2  -9   32.20    2.00
  -3   2   9   33.50    2.10
  -3   2   9   31.00    1.90
  -3   2   9   32.00    2.20
   2  -2  -9   28.90    1.70
   2  -2  -9   25.30    1.40
   2  -2  -9   24.10    2.70
   2  -2  -9   27.40    1.70
  -2   2   9   25.70    1.70
  -2   2   9   26.40    1.60
  -2   2   9   28.40    2.00
   1  -2  -9    6.40    0.80
   1  -2  -9    6.00    0.70
   1  -2  -9    7.70    1.70
  -1   2   9    5.50    1.00
  -1   2   9    7.80    1.00
  -1   2   9    6.00    0.70
   0  -2  -9    0.40    0.30
   0  -2  -9    0.40    0.90
   0  -2  -9    0.90    0.50
   0  -2  -9    0.10    0.40
   0   2   9    0.80    0.40
   0   2   9    0.80    0.60
   0   2   9    1.00    0.50
  -1  -2  -9  115.79    6.50
  -1  -2  -9  115.59    4.60
  -1  -2  -9  111.49    5.30
   1   2   9  114.99    4.50
   1   2   9  119.99    4.80
   1   2   9  112.19    5.20
  -2  -2  -9   16.80    1.80
  -2  -2  -9   15.70    2.40
  -2  -2  -9   17.00    1.10
   2   2   9   15.70    1.30
   2   2   9   16.00    0.90
  -3  -2  -9    2.50    0.50
  -3  -2  -9    2.70    1.30
  -3  -2  -9    2.30    1.00
   3   2   9    2.80    0.80
  -4  -2  -9   10.90    1.90
  -5  -2  -9    0.70    1.00
  -5  -2  -9    0.90    1.20
  -6  -2  -9    2.00    1.70
  -6  -2  -9    3.20    1.40
  -7  -2  -9    7.20    1.70
  -7  -2  -9    7.60    2.00
  -8  -2  -9    9.00    2.10
  -8  -2  -9    7.90    1.70
  -9  -2  -9   21.70    2.70
 -12   3   9    6.30    1.20
 -11   3   9    0.90    1.10
 -10   3   9    2.10    1.30
  -9   3   9   10.60    1.70
  -8   3   9   34.80    2.80
   7  -3  -9   69.79    3.90
  -7   3   9   71.69    4.00
  -7   3   9   79.29    4.10
   6  -3  -9    5.10    1.10
  -6   3   9    6.20    1.30
   5  -3  -9    5.10    1.00
  -5   3   9    5.20    1.60
  -5   3   9    4.60    1.10
   4  -3  -9   59.79    3.00
   4  -3  -9   54.29    4.00
   4  -3  -9   55.99    3.00
   4  -3  -9   59.89    2.70
  -4   3   9   60.09    3.00
  -4   3   9   52.59    3.10
  -4   3   9   56.69    2.90
   3  -3  -9  171.38    6.70
   3  -3  -9  174.18    7.00
   3  -3  -9  167.08    8.50
   3  -3  -9  181.18    7.10
  -3   3   9  173.68    7.00
  -3   3   9  181.48    7.40
  -3   3   9  166.28    6.90
   2  -3  -9  401.16   14.70
   2  -3  -9  384.36   16.40
   2  -3  -9  395.76   14.60
   2  -3  -9  381.46   14.30
  -2   3   9  403.86   15.10
  -2   3   9  374.36   14.50
  -2   3   9  400.96   14.70
   1  -3  -9  188.68    7.60
   1  -3  -9  186.98    7.20
   1  -3  -9  184.38    9.20
   1  -3  -9  197.38    7.50
  -1   3   9  199.88    7.60
  -1   3   9  188.38    7.30
  -1   3   9  197.08    8.00
   0  -3  -9    2.00    0.50
   0  -3  -9    2.50    0.40
   0  -3  -9    3.40    1.40
   0  -3  -9    2.80    0.70
   0   3   9    2.90    0.50
   0   3   9    2.90    0.90
   0   3   9    3.00    0.70
  -1  -3  -9   11.40    2.20
  -1  -3  -9   15.10    1.00
   1   3   9   11.00    1.50
   1   3   9   13.30    0.80
   1   3   9   13.20    1.20
  -2  -3  -9  390.66   14.60
  -2  -3  -9  394.46   17.20
   2   3   9  415.96   15.10
   2   3   9  408.26   15.70
  -3  -3  -9   86.19    4.80
   3   3   9   86.79    4.00
   4   3   9   18.10    1.60
 -12   4   9   -0.40    0.90
 -11   4   9    2.90    1.20
 -10   4   9    3.50    1.40
  -9   4   9   25.70    2.50
  -8   4   9    0.90    1.10
   7  -4  -9    7.20    1.30
   7  -4  -9    7.80    1.20
  -7   4   9   10.10    1.50
  -7   4   9    6.30    1.40
   6  -4  -9    6.40    1.20
   6  -4  -9   15.10    1.80
  -6   4   9    5.50    1.20
   5  -4  -9    8.90    1.00
   5  -4  -9    7.50    1.20
  -5   4   9    8.60    1.40
  -5   4   9    8.70    1.50
   4  -4  -9    2.20    1.20
   4  -4  -9    1.70    0.70
   4  -4  -9    2.40    0.60
   4  -4  -9    1.80    0.70
  -4   4   9    1.70    0.90
  -4   4   9    1.80    0.80
  -4   4   9    1.80    0.60
   3  -4  -9   11.00    1.00
   3  -4  -9   11.70    1.20
   3  -4  -9   10.70    2.20
   3  -4  -9   11.00    1.30
  -3   4   9   10.90    1.30
  -3   4   9   10.80    1.10
  -3   4   9    9.00    1.40
   2  -4  -9   11.30    1.30
   2  -4  -9   12.20    2.30
   2  -4  -9   12.90    1.20
   2  -4  -9   12.90    1.00
  -2   4   9   11.80    1.00
  -2   4   9   11.30    1.50
  -2   4   9   13.40    1.30
   1  -4  -9   18.00    1.30
   1  -4  -9   16.80    2.60
   1  -4  -9   15.90    1.00
   1  -4  -9   18.40    1.60
  -1   4   9   18.90    1.80
  -1   4   9   15.00    1.10
  -1   4   9   17.90    1.40
   0  -4  -9    3.50    0.60
   0  -4  -9    3.50    0.50
   0  -4  -9    2.60    0.80
   0  -4  -9    3.40    1.50
   0   4   9    2.80    0.50
   0   4   9    3.80    0.80
   0   4   9    3.90    1.00
  -1  -4  -9   44.50    2.10
  -1  -4  -9   42.10    3.90
   1   4   9   45.00    1.90
   1   4   9   47.10    3.00
   1   4   9   44.70    2.40
  -2  -4  -9    8.90    1.60
   2   4   9    8.50    1.10
 -12   5   9    1.20    0.90
 -11   5   9    0.90    1.10
 -10   5   9   11.70    1.70
  -9   5   9   33.20    2.70
  -8   5   9   24.90    2.30
   7  -5  -9    1.10    1.00
  -7   5   9    2.00    1.10
  -7   5   9    3.40    2.60
   6  -5  -9   38.00    3.20
   6  -5  -9   37.40    2.60
  -6   5   9   37.10    2.60
   5  -5  -9   46.40    3.40
   5  -5  -9   45.40    2.80
   5  -5  -9   47.80    2.40
  -5   5   9   43.20    2.80
   4  -5  -9   53.29    3.00
   4  -5  -9   51.99    2.90
   4  -5  -9   52.99    2.50
  -4   5   9   53.59    4.30
  -4   5   9   54.29    3.30
  -4   5   9   48.50    2.70
  -4   5   9   56.69    3.00
   3  -5  -9   40.60    2.50
   3  -5  -9   38.90    2.30
   3  -5  -9   36.80    1.90
   3  -5  -9   36.60    3.60
  -3   5   9   36.80    2.10
  -3   5   9   39.40    2.70
  -3   5   9   39.20    3.70
  -3   5   9   35.80    2.20
   2  -5  -9   17.40    2.70
   2  -5  -9   20.80    1.80
   2  -5  -9   20.80    1.50
   2  -5  -9   20.30    1.30
  -2   5   9   19.60    2.00
  -2   5   9   17.50    1.50
  -2   5   9   16.70    2.60
  -2   5   9   16.40    1.30
   1  -5  -9    1.90    0.40
   1  -5  -9    0.40    1.10
   1  -5  -9    1.50    0.80
  -1   5   9    3.10    0.80
  -1   5   9    2.10    1.40
  -1   5   9    2.30    1.00
  -1   5   9    0.60    0.40
   0  -5  -9   27.50    1.60
   0  -5  -9   25.70    2.10
   0   5   9   27.00    1.40
   0   5   9   26.70    2.30
  -1  -5  -9    6.80    1.50
  -2  -5  -9    5.20    2.00
  -2  -5  -9    6.40    2.30
 -12   6   9   12.20    1.30
 -11   6   9    0.70    1.00
 -10   6   9    2.60    1.20
  -9   6   9    8.10    2.00
   8  -6  -9   15.60    1.70
  -8   6   9   15.50    4.00
   7  -6  -9    9.30    1.60
  -7   6   9   11.60    3.10
   6  -6  -9   26.70    3.00
   6  -6  -9   23.70    2.10
   6  -6  -9   21.80    2.20
  -6   6   9   26.00    2.20
   5  -6  -9    5.10    1.20
   5  -6  -9    6.70    1.00
   5  -6  -9    6.20    1.70
  -5   6   9    6.70    1.20
   4  -6  -9   28.70    2.20
   4  -6  -9   30.00    2.70
   4  -6  -9   25.80    2.00
   4  -6  -9   29.10    1.80
  -4   6   9   24.80    2.00
   3  -6  -9   28.00    2.60
   3  -6  -9   24.00    1.80
   3  -6  -9   28.10    1.70
   3  -6  -9   28.50    2.20
   2  -6  -9   12.00    1.00
   2  -6  -9   12.20    1.80
   2  -6  -9    7.40    1.30
   1  -6  -9    1.70    0.90
   1  -6  -9    1.20    1.00
   1  -6  -9    2.50    0.50
   0  -6  -9   17.10    1.30
   0  -6  -9   17.20    2.20
   0  -6  -9   16.90    3.40
   0  -6  -9   15.20    1.90
  -1  -6  -9    3.10    1.70
  -1  -6  -9    3.60    1.40
  -2  -6  -9    1.70    1.70
  -9   7   9   27.10    4.40
   8  -7  -9   24.20    2.10
  -8   7   9   27.80    4.50
   7  -7  -9    7.80    1.50
  -7   7   9    7.10    3.10
   6  -7  -9   85.89    5.40
   6  -7  -9   88.19    4.50
   5  -7  -9  120.59    5.80
   5  -7  -9  118.79    5.60
   5  -7  -9  123.79    6.40
   5  -7  -9  125.49    5.20
   4  -7  -9  241.18    8.90
   4  -7  -9  226.68   10.20
   4  -7  -9  216.18    9.50
   3  -7  -9    8.10    1.40
   3  -7  -9    9.20    2.70
   3  -7  -9    7.40    1.00
   2  -7  -9    9.90    1.50
   2  -7  -9   10.90    1.10
   2  -7  -9    8.70    2.50
   2  -7  -9   11.80    1.80
   1  -7  -9    8.00    2.30
   1  -7  -9   10.80    1.80
   1  -7  -9   11.40    1.70
   1  -7  -9    9.00    0.90
   0  -7  -9    8.90    0.80
   0  -7  -9    8.10    1.70
   0  -7  -9    5.90    2.10
   0  -7  -9    7.60    1.60
  -1  -7  -9   17.90    3.80
  -2  -7  -9    2.10    1.80
 -10   8   9    7.00    2.50
  -9   8   9   30.10    4.50
   8  -8  -9   52.59    3.20
  -8   8   9   67.99    7.40
   7  -8  -9    0.60    1.10
  -7   8   9    2.20    2.90
   6  -8  -9   72.09    3.70
   6  -8  -9   72.49    4.20
   6  -8  -9   78.59    5.30
   5  -8  -9   33.10    2.80
   5  -8  -9   36.10    2.30
   5  -8  -9   35.70    3.80
   4  -8  -9   53.49    2.80
   4  -8  -9   52.19    4.10
   4  -8  -9   50.69    6.10
   3  -8  -9    2.20    1.50
   3  -8  -9    1.60    2.20
   3  -8  -9    1.00    0.80
   2  -8  -9    1.20    0.70
   2  -8  -9    1.10    1.90
   2  -8  -9    1.30    1.30
   1  -8  -9   12.30    1.20
   1  -8  -9   12.20    3.00
   1  -8  -9   13.20    2.10
   0  -8  -9   14.50    3.20
   0  -8  -9   15.90    1.30
  -1  -8  -9  167.38   10.60
  -2  -8  -9   10.20    3.30
 -10   9   9    7.70    2.50
  -9   9   9   -4.50    2.80
   8  -9  -9    1.00    1.10
  -8   9   9    2.00    3.40
   7  -9  -9   13.10    1.80
  -7   9   9   16.70    3.80
   6  -9  -9   15.10    1.60
   6  -9  -9   15.60    2.00
  -6   9   9   12.50    3.40
   5  -9  -9   62.99    3.40
   5  -9  -9   68.59    7.00
   5  -9  -9   61.89    4.00
   5  -9  -9   67.39    4.90
   4  -9  -9    1.50    2.40
   4  -9  -9    2.90    1.80
   4  -9  -9    0.50    0.90
   3  -9  -9   -1.20    0.70
   3  -9  -9   -0.90    1.60
   3  -9  -9    2.60    2.30
   2  -9  -9   17.20    1.60
   2  -9  -9   17.90    3.70
   2  -9  -9   19.00    2.60
   1  -9  -9    3.70    0.90
   1  -9  -9    3.30    2.20
   0  -9  -9    1.00    2.10
   0  -9  -9    1.20    0.80
  -1  -9  -9    3.50    2.60
 -11  10   9    0.60    1.00
 -10  10   9    1.80    2.00
  -9  10   9    7.10    2.90
   8 -10  -9    1.60    1.10
  -8  10   9    1.80    3.00
   7 -10  -9   13.30    1.90
  -7  10   9   12.20    3.50
   6 -10  -9   14.70    2.10
   6 -10  -9   21.70    2.60
   6 -10  -9   15.90    4.80
  -6  10   9   17.20    3.60
   5 -10  -9  163.18   11.30
   5 -10  -9  164.58    7.30
  -5  10   9  162.48    9.00
   4 -10  -9   16.20    2.80
   4 -10  -9   17.40    1.70
   4 -10  -9   19.90    4.40
   3 -10  -9    2.50    1.10
   3 -10  -9    5.00    2.10
   3 -10  -9    2.90    2.60
   2 -10  -9    1.30    2.50
   2 -10  -9    0.50    0.90
   1 -10  -9    3.90    2.80
   1 -10  -9    4.30    1.00
   0 -10  -9   63.49    3.10
   0 -10  -9   69.99    7.40
  -1 -10  -9   55.69    6.80
 -10  11   9   -3.10    1.40
  -9  11   9   -0.50    2.10
   8 -11  -9    6.40    1.30
  -8  11   9    6.00    2.80
   7 -11  -9   22.30    2.60
  -7  11   9   26.60    3.80
   6 -11  -9    4.20    2.90
   6 -11  -9    5.70    1.60
  -6  11   9    0.30    2.60
   5 -11  -9    8.80    1.70
   5 -11  -9    6.10    1.30
   5 -11  -9    5.00    3.20
  -5  11   9    2.50    2.70
   4 -11  -9    0.30    1.00
   4 -11  -9   -0.30    2.70
   3 -11  -9    5.00    1.20
   3 -11  -9    5.60    3.20
   2 -11  -9   12.10    3.70
   2 -11  -9   13.00    1.60
   1 -11  -9    3.60    2.90
   0 -11  -9    4.60    3.20
  -1 -11  -9   -0.60    3.00
  -9  12   9    6.40    2.00
   8 -12  -9    1.30    1.00
  -8  12   9   -1.90    1.90
   7 -12  -9   10.40    1.60
  -7  12   9   11.00    2.60
   6 -12  -9   21.60    4.40
   6 -12  -9   27.80    2.70
  -6  12   9   29.80    3.50
   5 -12  -9    4.50    1.50
   5 -12  -9    1.40    2.90
   4 -12  -9    2.90    3.10
   3 -12  -9    2.40    3.10
   2 -12  -9    5.60    3.10
   1 -12  -9    5.20    3.30
   0 -12  -9    5.70    3.30
   8 -13  -9    2.40    0.80
  -8  13   9    1.30    1.60
   7 -13  -9    4.50    1.40
  -7  13   9    6.10    1.80
   6 -13  -9    2.30    3.00
   6 -13  -9    6.70    1.50
   5 -13  -9   -0.60    2.90
   5 -13  -9    1.70    1.40
   4 -13  -9    1.50    3.00
   4 -13  -9    1.30    1.40
   3 -13  -9    4.80    3.20
   2 -13  -9    4.70    3.20
  -1  14 -10    2.00    1.40
  -2  14 -10   30.70    4.10
  -3  14 -10   24.80    4.20
  -4  14 -10    5.70    2.60
  -5  14 -10    0.30    2.00
  -6  14 -10    7.10    2.30
   0  13 -10    5.20    2.00
   0 -13  10    4.20    1.20
  -1  13 -10   11.20    2.90
   1 -13  10   16.10    2.00
  -2  13 -10   -2.90    2.00
   2 -13  10    0.20    1.10
  -3  13 -10   -2.60    2.40
   3 -13  10    1.60    1.10
  -4  13 -10   -0.50    2.90
   4 -13  10    5.80    1.40
  -5  13 -10   -3.60    2.30
   5 -13  10    0.40    0.90
  -6  13 -10    2.30    2.20
  -2 -12  10    7.60    1.10
  -2 -12  10    9.00    1.50
   1  12 -10   15.40    3.20
  -1 -12  10    8.40    1.10
  -1 -12  10    6.10    1.50
   0  12 -10   56.09    5.80
   0 -12  10   52.39    3.70
   0 -12  10   57.99    2.90
  -1  12 -10   69.19    7.30
   1 -12  10   76.49    4.50
   1 -12  10   77.89    3.50
  -2  12 -10   34.40    5.20
   2 -12  10   48.00    3.30
  -3  12 -10   16.10    4.10
   3 -12  10   20.20    2.30
  -4  12 -10    1.50    3.10
   4 -12  10    4.00    1.40
  -5  12 -10   11.30    3.60
   5 -12  10   11.10    1.80
  -6  12 -10   32.60    5.50
   6 -12  10   31.30    2.60
   7 -12  10   12.50    1.70
   8 -12  10    1.50    0.90
  -4 -11  10    2.40    0.80
  -4 -11  10    5.00    1.70
  -3 -11  10    8.90    1.70
  -3 -11  10    9.10    1.40
  -2 -11  10    5.10    1.10
  -2 -11  10    1.70    1.40
   1  11 -10    4.20    2.10
  -1 -11  10    0.30    1.30
  -1 -11  10    1.60    1.00
   0  11 -10   -0.20    2.40
   0 -11  10    0.00    1.30
   0 -11  10    0.70    0.90
  -1  11 -10    0.20    2.80
   1 -11  10    4.10    1.10
   1 -11  10    4.30    1.50
  -2  11 -10    1.40    3.10
   2 -11  10    4.40    1.50
   2 -11  10    4.30    1.10
  -3  11 -10    0.70    3.00
   3 -11  10    6.50    1.60
  -4  11 -10   -3.40    2.50
   4 -11  10    0.80    1.20
  -5  11 -10   -1.50    2.30
   5 -11  10   -1.10    1.00
  -6  11 -10   71.69    7.10
   6 -11  10   72.79    4.10
   7 -11  10   35.10    2.80
   8 -11  10   14.10    1.90
  -9  11 -10   -0.10    1.30
   9 -11  10   -0.40    0.90
 -10  11 -10    0.70    1.20
  -5 -10  10   16.20    1.90
  -5 -10  10    9.00    1.20
  -4 -10  10   20.00    2.20
  -4 -10  10   23.30    2.60
  -3 -10  10   35.90    2.60
  -3 -10  10   33.80    3.20
  -2 -10  10    1.80    1.50
  -2 -10  10    1.40    1.00
   1  10 -10   47.50    5.60
  -1 -10  10   44.10    3.10
  -1 -10  10   43.60    3.80
   0  10 -10   30.00    5.70
   0 -10  10   30.60    2.40
   0 -10  10   32.30    3.10
  -1  10 -10   29.60    5.90
   1 -10  10   25.60    2.80
   1 -10  10   27.50    2.20
  -2  10 -10    2.90    2.90
   2 -10  10    2.40    1.30
   2 -10  10    4.10    1.00
  -3  10 -10   67.59    7.50
   3 -10  10   84.09    4.50
  -4  10 -10    5.10    2.90
   4 -10  10    8.30    1.60
  -5  10 -10   16.00    3.60
   5 -10  10   17.70    2.20
   6 -10  10  139.69    6.60
   7 -10  10   23.30    2.40
  -8  10 -10    1.10    1.50
   8 -10  10    0.20    1.00
  -9  10 -10    7.20    1.90
   9 -10  10    7.90    1.50
 -10  10 -10   21.10    2.70
  10 -10  10   19.80    1.90
 -11  10 -10    8.30    1.60
  -6  -9  10   -1.90    0.70
  -6  -9  10   -0.40    1.00
  -5  -9  10    8.60    1.90
  -5  -9  10    4.80    1.30
  -4  -9  10   41.30    3.60
  -4  -9  10   47.90    3.00
  -3  -9  10   17.00    2.60
  -3  -9  10   19.70    2.30
  -2  -9  10    0.10    1.40
  -2  -9  10    0.60    1.10
   1   9 -10   29.90    4.90
  -1  -9  10    8.40    2.00
  -1  -9  10    8.00    1.40
   0   9 -10   47.60    5.90
   0  -9  10   36.50    2.60
   0  -9  10   34.50    3.20
  -1   9 -10  177.08   11.00
   1  -9  10  186.68    7.50
   1  -9  10  179.48    8.20
  -2   9 -10    2.00    2.30
   2  -9  10    2.20    1.10
   2  -9  10    0.20    1.00
  -3   9 -10   49.60    5.90
   3  -9  10   49.40    3.30
  -4   9 -10   28.00    4.80
   4  -9  10   34.30    2.70
  -5   9 -10   63.69    6.30
   5  -9  10   62.39    3.80
  -6   9 -10   61.59    4.40
   6  -9  10   66.09    3.90
  -7   9 -10   23.10    3.00
   7  -9  10   20.70    2.40
  -8   9 -10    1.60    1.60
   8  -9  10    1.80    1.20
  -9   9 -10   13.70    2.40
   9  -9  10   13.40    1.90
 -10   9 -10   58.99    4.30
  10  -9  10   62.29    3.50
 -11   9 -10   24.40    2.50
  11  -9  10   26.10    2.00
  -7  -8  10   -0.90    0.70
  -6  -8  10   16.20    1.80
  -6  -8  10   17.90    2.40
  -5  -8  10   13.40    1.70
  -5  -8  10   12.40    2.30
  -4  -8  10    6.60    2.10
  -4  -8  10    8.60    1.50
  -3  -8  10    3.60    1.70
  -3  -8  10    3.30    1.20
  -2  -8  10    7.10    1.90
  -2  -8  10    6.20    1.40
   1   8 -10   62.79    5.40
  -1  -8  10   38.00    3.30
  -1  -8  10   37.10    2.80
   0   8 -10   46.90    5.20
   0  -8  10   27.20    2.80
   0  -8  10   29.90    2.30
  -1   8 -10   41.90    5.30
   1  -8  10   32.30    2.20
   1  -8  10   29.20    2.60
  -2   8 -10   27.40    4.70
   2  -8  10   17.10    2.00
  -3   8 -10    2.40    1.80
   3  -8  10    0.00    0.80
  -4   8 -10   17.80    3.40
   4  -8  10    9.60    1.60
  -5   8 -10   18.50    2.30
  -5   8 -10   19.20    3.90
   5  -8  10    6.80    1.50
  -6   8 -10    1.30    1.60
   6  -8  10    2.30    1.10
  -7   8 -10   15.90    2.60
   7  -8  10   18.70    2.20
  -8   8 -10    0.90    1.70
   8  -8  10    0.00    1.00
  -9   8 -10    0.50    1.60
   9  -8  10    1.40    1.10
 -10   8 -10    3.30    1.70
  10  -8  10    2.70    1.20
 -11   8 -10    0.00    1.20
  11  -8  10    0.80    0.90
  -7  -7  10    0.90    1.00
  -7  -7  10    2.80    1.40
  -6  -7  10    1.90    1.60
  -6  -7  10   -0.60    1.00
  -5  -7  10   14.70    1.90
  -5  -7  10   15.10    2.50
  -4  -7  10   24.30    2.50
  -4  -7  10   26.20    3.30
  -3  -7  10   21.10    2.20
  -3  -7  10   17.20    2.50
  -2  -7  10   11.60    1.60
  -2  -7  10   11.50    2.00
  -1  -7  10   39.00    2.60
  -1  -7  10   41.20    3.10
   0   7 -10   91.19    6.20
   0  -7  10   65.09    4.30
   1  -7  10    8.50    1.40
   2  -7  10   79.59    4.20
   3  -7  10    3.50    1.10
  -4   7 -10   38.50    5.20
   4  -7  10   22.20    2.10
  -5   7 -10   62.69    4.20
   5  -7  10   54.69    3.40
  -6   7 -10    7.00    1.80
  -6   7 -10    6.40    1.90
   6  -7  10    4.40    1.30
  -7   7 -10   17.80    1.80
  -7   7 -10   21.30    3.00
  -7   7 -10   21.20    2.80
  -8   7 -10    4.10    1.90
  -8   7 -10    6.80    1.30
  -8   7 -10    5.70    2.10
  -9   7 -10   26.60    3.40
  -9   7 -10   21.70    2.90
  -9   7 -10   26.70    3.50
 -10   7 -10   37.90    3.70
 -10   7 -10   39.40    3.70
 -10   7 -10   35.70    2.70
 -11   7 -10    0.30    1.20
 -11   7 -10   -0.40    1.00
  11  -7  10    1.80    1.00
  -8  -6  10   -0.40    0.90
  -8  -6  10    0.80    1.20
  -7  -6  10   15.70    2.30
  -7  -6  10   15.00    1.80
  -6  -6  10   30.40    2.60
  -6  -6  10   29.70    3.30
  -5  -6  10    4.10    1.20
  -5  -6  10    1.40    1.60
  -4  -6  10   15.60    2.40
  -4  -6  10   14.10    1.70
  -3  -6  10    1.20    0.90
  -3  -6  10    0.70    1.20
  -2  -6  10   12.00    1.50
  -2  -6  10   10.70    1.80
  -1  -6  10   26.80    2.40
   0  -6  10   11.30    1.60
  -1   6 -10    0.90    1.80
   1  -6  10    0.60    0.90
  -2   6 -10    3.60    1.70
   2  -6  10    1.80    1.10
  -3   6 -10   14.70    1.80
   3  -6  10   15.10    1.70
  -4   6 -10    1.60    0.70
   4  -6  10    0.80    0.80
  -5   6 -10   -0.80    1.20
  -5   6 -10    1.50    1.30
  -5   6 -10   -0.50    0.70
  -6   6 -10   20.70    2.80
  -6   6 -10   16.70    2.60
  -6   6 -10   18.20    1.90
  -7   6 -10   -0.90    0.90
  -7   6 -10   -0.50    1.10
  -7   6 -10    1.80    1.70
  -7   6 -10    0.40    1.50
  -8   6 -10    5.60    1.30
  -8   6 -10    5.60    2.20
  -8   6 -10    5.40    2.00
  -8   6 -10    5.50    1.50
  -9   6 -10   12.60    2.40
  -9   6 -10   12.00    1.60
  -9   6 -10   11.70    2.60
  -9   6 -10   10.40    1.80
 -10   6 -10    1.70    1.20
 -10   6 -10    1.40    1.70
 -10   6 -10    1.40    1.70
 -11   6 -10    3.60    1.70
 -11   6 -10    4.10    1.20
 -11   6 -10    2.00    1.50
  -8  -5  10    2.10    1.40
  -8  -5  10    5.20    1.30
  -7  -5  10   -0.30    1.40
  -7  -5  10    1.90    1.20
  -6  -5  10   22.50    2.90
  -6  -5  10   26.40    2.50
  -5  -5  10  118.69    5.50
  -5  -5  10  115.29    6.30
  -4  -5  10   43.30    3.40
  -4  -5  10   39.80    2.80
  -3  -5  10   17.50    1.80
  -3  -5  10   13.90    2.00
   2   5 -10  102.99    6.50
  -2  -5  10  109.89    5.30
   1   5 -10   43.00    4.00
   0   5 -10   46.00    4.10
  -1   5 -10   15.20    2.60
  -2   5 -10   95.49    4.70
  -2   5 -10   97.29    4.20
  -2   5 -10  101.99    6.40
  -3   5 -10   87.79    5.90
  -3   5 -10   83.99    3.80
  -3   5 -10   81.39    4.40
   3  -5  10   83.29    3.70
   3  -5  10   85.59    4.50
  -4   5 -10  468.45   17.90
  -4   5 -10  466.85   16.80
  -4   5 -10  453.15   17.30
  -4   5 -10  464.15   19.40
  -4   5 -10  464.55   19.60
   4  -5  10  418.36   17.00
   4  -5  10  429.86   16.70
  -5   5 -10  777.62   29.20
  -5   5 -10  764.02   29.30
  -5   5 -10  731.53   28.40
  -5   5 -10  800.82   28.10
  -6   5 -10   37.00    2.70
  -6   5 -10   40.80    2.50
  -6   5 -10   42.20    3.60
  -6   5 -10   38.60    2.70
  -6   5 -10   43.80    3.60
  -7   5 -10    0.60    0.90
  -7   5 -10   -0.70    1.30
  -7   5 -10    0.00    1.20
  -7   5 -10   -0.20    1.50
  -8   5 -10    5.40    1.30
  -8   5 -10    0.50    1.70
  -8   5 -10    1.20    1.30
  -8   5 -10    0.60    1.50
  -9   5 -10   11.70    2.40
  -9   5 -10   17.10    2.80
  -9   5 -10   11.10    1.50
  -9   5 -10   15.40    2.00
 -10   5 -10   -0.90    1.20
 -10   5 -10    1.80    1.50
 -10   5 -10    0.60    1.70
 -11   5 -10    1.40    1.50
 -11   5 -10    0.50    1.20
 -11   5 -10   -0.70    1.00
  -9  -4  10    2.20    1.50
  -8  -4  10    3.10    1.30
  -8  -4  10    2.80    1.50
  -7  -4  10   25.90    2.70
  -7  -4  10   24.70    3.10
  -6  -4  10    1.10    1.10
  -6  -4  10   -0.80    1.30
  -5  -4  10    3.80    1.60
  -5  -4  10    2.50    1.10
   4   4 -10    0.80    1.00
  -4  -4  10    3.00    1.00
  -4  -4  10    2.00    1.30
   3   4 -10   10.00    1.40
  -3  -4  10    9.20    1.50
   2   4 -10    7.70    1.90
   1   4 -10    0.80    1.10
   0   4 -10    5.90    1.80
   0  -4  10    5.10    0.80
  -1   4 -10    8.80    2.00
  -1   4 -10    6.60    0.90
  -1   4 -10    7.60    1.20
   1  -4  10    9.50    1.00
  -2   4 -10    0.50    1.00
  -2   4 -10   -0.30    0.50
  -2   4 -10    0.10    0.70
  -2   4 -10    0.40    0.60
   2  -4  10    0.00    0.40
   2  -4  10    0.60    0.50
  -3   4 -10    3.40    0.70
  -3   4 -10    4.00    1.10
  -3   4 -10    2.30    1.40
  -3   4 -10    3.70    0.90
   3  -4  10    4.40    0.90
  -4   4 -10   45.20    2.70
  -4   4 -10   39.00    3.00
  -4   4 -10   42.10    2.60
  -4   4 -10   44.10    4.10
  -4   4 -10   42.80    2.30
   4  -4  10   43.80    2.40
  -5   4 -10   25.40    1.80
  -5   4 -10   21.60    2.70
  -5   4 -10   22.70    2.60
  -5   4 -10   27.90    2.20
  -6   4 -10    6.30    1.30
  -6   4 -10    7.90    1.50
  -6   4 -10    6.10    1.80
  -6   4 -10    3.90    1.60
  -6   4 -10    7.60    1.20
  -7   4 -10   13.80    2.40
  -7   4 -10   13.40    1.90
  -7   4 -10   12.20    2.30
  -7   4 -10   13.10    1.50
  -8   4 -10    1.80    1.30
  -8   4 -10    5.30    1.90
  -8   4 -10    4.70    1.90
  -8   4 -10    4.80    1.20
  -9   4 -10    3.00    1.70
  -9   4 -10    2.50    1.50
  -9   4 -10    3.90    2.10
  -9   4 -10    2.80    1.10
 -10   4 -10   19.30    2.70
 -10   4 -10   25.00    3.10
 -10   4 -10   22.80    2.30
 -11   4 -10    3.30    1.20
 -11   4 -10    2.60    1.50
  -8  -3  10    2.00    1.20
  -8  -3  10    1.90    2.00
  -8  -3  10    2.50    1.30
  -7  -3  10   95.89    4.80
  -7  -3  10   97.49    5.60
  -7  -3  10   96.49    4.80
  -6  -3  10   73.19    4.00
  -6  -3  10   73.59    4.60
  -6  -3  10   74.69    3.90
   5   3 -10   17.60    2.00
  -5  -3  10   19.50    2.40
  -5  -3  10   21.80    2.10
  -5  -3  10   20.20    2.10
   4   3 -10   21.80    2.10
  -4  -3  10   27.40    2.50
   3   3 -10    6.90    1.20
   2   3 -10   52.39    4.00
  -2  -3  10   50.49    2.60
   1   3 -10   40.60    3.50
  -1  -3  10   36.40    2.00
   0   3 -10   25.20    1.80
   0   3 -10   25.30    1.50
   0   3 -10   25.10    1.90
   0   3 -10   28.80    3.10
   0  -3  10   26.80    1.60
   0  -3  10   25.00    1.70
  -1   3 -10    1.30    0.50
  -1   3 -10    1.10    0.60
  -1   3 -10    1.10    1.10
  -1   3 -10    1.10    0.60
   1  -3  10    0.90    0.50
   1  -3  10    1.60    0.60
  -2   3 -10   71.09    5.00
  -2   3 -10   77.59    3.90
  -2   3 -10   75.09    3.30
  -2   3 -10   78.69    3.70
   2  -3  10   71.59    3.40
   2  -3  10   76.19    3.40
  -3   3 -10   43.40    3.90
  -3   3 -10   44.20    2.90
  -3   3 -10   46.50    2.30
  -3   3 -10   41.30    2.50
   3  -3  10   42.20    2.30
   3  -3  10   43.70    2.30
  -4   3 -10  150.38    8.40
  -4   3 -10  151.38    6.50
  -4   3 -10  157.98    7.20
  -4   3 -10  162.08    6.20
  -4   3 -10  157.88    6.70
   4  -3  10  150.48    6.30
  -5   3 -10   48.60    3.00
  -5   3 -10   46.40    3.60
  -5   3 -10   49.40    3.50
  -5   3 -10   48.10    2.50
  -6   3 -10    1.40    1.40
  -6   3 -10    3.80    1.60
  -6   3 -10    4.60    0.90
  -6   3 -10    4.90    1.40
  -6   3 -10    4.20    1.30
  -7   3 -10   20.10    2.90
  -7   3 -10   19.30    2.70
  -7   3 -10   18.70    2.20
  -7   3 -10   20.90    1.90
  -8   3 -10   34.60    3.90
  -8   3 -10   41.30    2.50
  -8   3 -10   32.20    3.10
  -8   3 -10   38.10    4.00
  -9   3 -10    3.50    1.60
  -9   3 -10    4.70    2.00
  -9   3 -10    8.30    2.30
  -9   3 -10    6.60    1.30
 -10   3 -10    1.30    1.30
 -10   3 -10    0.00    1.60
 -11   3 -10   16.10    1.70
 -11   3 -10   15.10    2.10
 -10  -2  10    0.80    1.00
  -9  -2  10    0.50    1.10
  -8  -2  10   96.19    4.80
  -7  -2  10    5.00    1.40
  -7  -2  10    3.50    1.20
  -6  -2  10    8.80    1.50
  -6  -2  10    8.90    1.40
   5   2 -10    1.70    0.90
  -5  -2  10    4.10    1.10
   4   2 -10   15.20    1.60
  -4  -2  10   15.50    1.60
   3   2 -10   36.00    2.20
   3   2 -10   36.30    3.20
  -3  -2  10   37.10    2.20
   2   2 -10   47.90    3.70
   2   2 -10   42.80    2.30
  -2  -2  10   46.80    2.40
   1   2 -10    8.90    1.10
   1   2 -10    7.30    0.80
   1   2 -10    8.10    1.80
   1   2 -10    8.70    1.10
  -1  -2  10    8.60    1.00
  -1  -2  10    6.60    0.90
   0   2 -10    1.10    1.10
   0   2 -10    0.60    0.50
   0   2 -10    0.70    0.60
   0   2 -10    0.60    0.60
   0  -2  10    1.50    0.50
   0  -2  10    1.60    0.50
  -1   2 -10   20.30    1.60
  -1   2 -10   26.40    2.90
  -1   2 -10   20.30    1.80
  -1   2 -10   21.00    1.40
   1  -2  10   20.90    1.50
   1  -2  10   24.30    1.50
  -2   2 -10   21.80    1.90
  -2   2 -10   21.60    1.60
  -2   2 -10   19.90    1.40
  -2   2 -10   20.90    2.70
   2  -2  10   24.50    1.50
   2  -2  10   20.50    1.40
  -3   2 -10   90.69    4.10
  -3   2 -10   90.29    5.70
  -3   2 -10   87.59    4.60
  -3   2 -10   89.09    3.80
   3  -2  10   87.89    3.90
   3  -2  10   91.69    4.00
  -4   2 -10   21.60    1.70
  -4   2 -10   18.60    1.40
  -4   2 -10   17.90    1.90
  -4   2 -10   17.20    2.70
   4  -2  10   19.70    1.50
  -5   2 -10   24.80    2.70
  -5   2 -10   21.20    2.60
  -5   2 -10   24.60    2.20
  -5   2 -10   24.40    1.60
  -6   2 -10   12.60    1.30
  -6   2 -10   13.60    2.30
  -6   2 -10   11.10    1.70
  -6   2 -10   12.20    2.10
  -6   2 -10   11.80    1.70
  -7   2 -10    2.60    1.70
  -7   2 -10    3.90    1.40
  -7   2 -10    3.40    1.80
  -7   2 -10    2.50    0.90
  -8   2 -10   63.39    4.80
  -8   2 -10   63.59    4.90
  -8   2 -10   65.79    4.10
  -8   2 -10   68.49    3.40
  -9   2 -10   44.30    2.70
  -9   2 -10   42.90    4.10
  -9   2 -10   48.00    3.40
 -10   2 -10   47.40    3.10
 -10   2 -10   49.00    3.90
 -11   2 -10   12.30    1.90
 -11   2 -10   11.80    1.40
 -11  -1  10    2.90    0.90
 -10  -1  10   10.10    1.50
  -9  -1  10   10.50    1.80
  -8  -1  10    9.80    1.60
  -7  -1  10   41.10    2.90
   6   1 -10   80.39    4.10
  -6  -1  10   81.49    4.20
  -6  -1  10   76.69    3.90
  -6  -1  10   79.09    4.10
   5   1 -10    1.40    0.80
  -5  -1  10    1.70    0.90
   4   1 -10    1.20    0.70
  -4  -1  10    1.50    0.70
   3   1 -10   83.69    3.80
   3   1 -10   83.59    5.10
  -3  -1  10   86.39    3.90
   2   1 -10   20.40    2.00
   2   1 -10   22.00    1.30
   2   1 -10   23.20    2.60
   2   1 -10   14.20    1.20
  -2  -1  10   20.40    1.50
  -2  -1  10   22.70    1.50
   1   1 -10    1.30    0.50
   1   1 -10    0.60    0.50
   1   1 -10    0.50    1.00
   1   1 -10    1.10    0.60
  -1  -1  10    1.00    0.50
  -1  -1  10    0.20    0.50
  -1  -1  10    0.90    0.50
   0   1 -10    1.50    0.50
   0   1 -10    1.40    0.60
   0   1 -10    1.40    1.10
   0   1 -10    1.60    0.70
   0  -1  10    1.90    0.50
   0  -1  10    2.70    0.70
  -1   1 -10   59.29    2.60
  -1   1 -10   55.29    4.20
  -1   1 -10   56.39    3.20
  -1   1 -10   55.19    2.80
   1  -1  10   56.09    2.70
   1  -1  10   60.99    2.80
  -2   1 -10  222.28    9.00
  -2   1 -10  210.28    8.10
  -2   1 -10  221.38    8.50
  -2   1 -10  211.38   10.30
   2  -1  10  218.38    8.40
   2  -1  10  211.48    8.30
  -3   1 -10   29.70    1.60
  -3   1 -10   28.90    1.80
  -3   1 -10   30.40    2.40
  -3   1 -10   25.60    3.00
   3  -1  10   27.10    1.80
   3  -1  10   27.20    1.70
  -4   1 -10   13.10    1.30
  -4   1 -10   16.20    1.80
  -4   1 -10   13.70    2.60
  -4   1 -10   12.60    1.10
  -4   1 -10   10.60    1.60
   4  -1  10   12.00    1.10
  -5   1 -10   62.89    4.20
  -5   1 -10   66.09    3.70
  -5   1 -10   63.19    3.70
  -5   1 -10   63.59    4.10
  -5   1 -10   59.79    2.80
  -6   1 -10    3.90    0.80
  -6   1 -10    4.30    1.60
  -6   1 -10    6.10    1.50
  -6   1 -10    2.70    1.60
  -7   1 -10    2.90    1.30
  -7   1 -10    0.70    0.80
  -7   1 -10    1.20    1.70
  -7   1 -10    2.30    1.60
  -8   1 -10    7.60    1.70
  -8   1 -10    7.00    2.10
  -8   1 -10    7.60    2.20
  -8   1 -10    8.30    1.20
  -9   1 -10    5.70    1.50
  -9   1 -10    3.20    1.80
 -10   1 -10    0.70    1.40
 -10   1 -10    0.70    1.10
 -11   0  10   67.29    3.50
 -10   0  10  194.18    8.20
  -9   0  10   97.29    5.00
  -8   0  10    0.40    1.00
  -7   0  10    5.70    1.40
   6   0 -10    0.30    0.70
  -6   0  10    2.50    1.10
  -6   0  10    0.70    0.90
   5   0 -10   21.50    1.80
  -5   0  10   24.30    1.90
   4   0 -10    3.80    0.90
  -4   0  10    3.30    0.90
   3   0 -10    1.90    0.60
   3   0 -10    1.90    0.50
   3   0 -10    1.50    1.00
  -3   0  10    1.30    0.70
   2   0 -10   43.10    2.10
   2   0 -10   45.30    3.60
   2   0 -10   48.20    2.50
  -2   0  10   44.30    2.40
  -2   0  10   43.00    2.50
  -2   0  10   49.30    2.50
   1   0 -10  444.06   16.70
   1   0 -10  453.55   18.50
   1   0 -10  445.06   16.40
  -1   0  10  470.25   16.70
  -1   0  10  447.56   16.60
  -1   0  10  435.16   16.90
   0   0 -10  475.45   17.00
   0   0 -10  476.85   17.30
   0   0 -10  458.35   17.70
   0   0 -10  456.25   19.10
   0   0  10  450.95   17.20
   0   0  10  480.95   17.30
  -1   0 -10   30.30    1.80
  -1   0 -10   30.50    1.60
  -1   0 -10   31.40    2.30
  -1   0 -10   30.80    3.10
   1   0  10   30.60    1.80
   1   0  10   33.90    1.80
  -2   0 -10    2.10    0.60
  -2   0 -10    2.80    0.50
  -2   0 -10    2.70    1.00
  -2   0 -10    2.00    1.30
   2   0  10    3.30    0.60
   2   0  10    2.10    0.70
  -3   0 -10  392.06   14.70
  -3   0 -10  381.36   14.40
  -3   0 -10  384.46   15.60
  -3   0 -10  388.56   16.90
   3   0  10  422.06   14.90
   3   0  10  403.06   14.60
  -4   0 -10  138.19    5.40
  -4   0 -10  145.69    6.90
  -4   0 -10  144.09    6.30
  -4   0 -10  135.09    5.70
   4   0  10  145.19    5.60
  -5   0 -10   30.00    2.50
  -5   0 -10   35.20    2.70
  -5   0 -10   28.50    1.70
  -5   0 -10   31.20    3.10
  -5   0 -10   32.10    3.10
  -6   0 -10    1.30    1.50
  -6   0 -10    3.00    1.60
  -6   0 -10    2.10    1.30
  -6   0 -10    1.40    0.70
  -7   0 -10   15.00    1.40
  -7   0 -10   15.60    2.70
  -7   0 -10   17.20    2.10
  -7   0 -10   17.40    2.60
  -8   0 -10    2.60    1.80
  -8   0 -10    2.00    0.80
  -8   0 -10    0.50    1.30
  -9   0 -10   -0.90    1.30
  -9   0 -10    1.70    1.30
 -10   0 -10    0.30    1.20
 -10   0 -10    1.10    1.00
 -11   1  10    6.50    1.30
 -10   1  10   13.00    1.90
  -9   1  10    3.60    1.40
  -8   1  10   14.00    2.00
  -7   1  10   39.20    3.00
   6  -1 -10    0.30    0.70
  -6   1  10    0.30    0.90
  -6   1  10    1.00    0.90
   5  -1 -10    1.20    0.70
  -5   1  10    1.80    0.90
   4  -1 -10  107.39    4.70
  -4   1  10  101.99    4.70
   3  -1 -10  111.69    4.80
   3  -1 -10  108.59    4.40
   3  -1 -10  103.79    6.00
   3  -1 -10  108.59    4.60
  -3   1  10   99.39    4.80
  -3   1  10  104.49    4.60
  -3   1  10  111.39    4.70
   2  -1 -10   39.20    1.90
   2  -1 -10   41.50    2.20
   2  -1 -10   37.10    2.20
   2  -1 -10   39.60    3.40
  -2   1  10   42.00    2.20
  -2   1  10   35.60    2.10
   1  -1 -10    5.10    0.70
   1  -1 -10    5.10    0.80
   1  -1 -10    4.10    1.40
  -1   1  10    4.40    0.90
  -1   1  10    5.20    0.70
  -1   1  10    5.60    0.90
   0  -1 -10   18.20    2.40
   0  -1 -10   16.10    1.30
   0  -1 -10   16.70    1.10
   0  -1 -10   15.30    1.60
   0   1  10   16.60    1.30
   0   1  10   15.10    1.20
   0   1  10   17.70    1.60
  -1  -1 -10   79.19    3.30
  -1  -1 -10   81.79    5.30
  -1  -1 -10   81.69    3.60
  -1  -1 -10   82.49    4.20
   1   1  10   81.59    3.40
   1   1  10   79.69    3.60
  -2  -1 -10   27.80    3.20
  -2  -1 -10   25.50    1.30
  -2  -1 -10   26.10    1.60
  -2  -1 -10   23.70    2.30
   2   1  10   27.60    1.50
   2   1  10   28.50    1.80
  -3  -1 -10   95.09    5.00
  -3  -1 -10   94.99    6.10
  -3  -1 -10   96.49    4.10
   3   1  10   99.09    4.00
   3   1  10  100.09    4.40
  -4  -1 -10    0.20    1.10
   4   1  10    0.20    0.60
  -5  -1 -10    0.70    1.10
  -5  -1 -10   -0.10    1.20
  -5  -1 -10    0.90    1.00
  -6  -1 -10    1.50    1.50
  -6  -1 -10    0.70    1.20
  -6  -1 -10    0.80    1.50
  -7  -1 -10    0.00    1.20
  -7  -1 -10    0.20    1.50
  -8  -1 -10    2.20    1.40
  -8  -1 -10    3.40    1.10
  -8  -1 -10    4.20    1.80
  -9  -1 -10   10.20    2.00
  -9  -1 -10    9.90    1.50
 -12   2  10    0.20    0.80
 -11   2  10    1.00    1.10
 -10   2  10   35.60    2.90
  -9   2  10    1.30    1.30
  -8   2  10   10.50    1.80
  -7   2  10    0.90    1.10
   6  -2 -10   15.70    1.70
  -6   2  10   15.60    1.80
  -6   2  10   14.10    1.80
   5  -2 -10    3.60    0.90
  -5   2  10    4.30    1.10
   4  -2 -10   29.80    2.00
   4  -2 -10   26.10    3.00
   4  -2 -10   27.70    1.60
  -4   2  10   26.60    2.00
  -4   2  10   27.50    2.10
   3  -2 -10  231.58    9.20
   3  -2 -10  230.48   10.80
   3  -2 -10  237.48    8.80
   3  -2 -10  235.98    9.20
  -3   2  10  235.68    9.20
  -3   2  10  240.28    9.50
  -3   2  10  221.28    9.10
   2  -2 -10  225.08   10.80
   2  -2 -10  241.78    8.70
   2  -2 -10  229.38    9.00
   2  -2 -10  230.48    9.00
  -2   2  10  221.88    8.90
  -2   2  10  229.48    9.00
  -2   2  10  234.98    9.40
   1  -2 -10    4.30    0.70
   1  -2 -10    5.10    0.90
   1  -2 -10    3.80    0.60
   1  -2 -10    3.00    1.40
  -1   2  10    4.00    0.70
  -1   2  10    5.50    0.90
  -1   2  10    3.60    0.90
   0  -2 -10   21.10    2.70
   0  -2 -10   19.30    1.20
   0  -2 -10   19.90    1.40
   0   2  10   20.40    1.30
   0   2  10   22.00    1.60
   0   2  10   19.80    1.80
  -1  -2 -10   28.20    1.70
  -1  -2 -10   30.40    1.50
  -1  -2 -10   30.30    3.20
   1   2  10   31.00    1.90
   1   2  10   31.40    1.60
   1   2  10   29.80    2.30
  -2  -2 -10   41.70    2.90
  -2  -2 -10   48.40    4.10
  -2  -2 -10   43.60    2.20
   2   2  10   43.80    2.90
   2   2  10   48.50    2.50
   2   2  10   47.20    2.10
  -3  -2 -10    6.90    0.80
  -3  -2 -10    7.80    1.60
  -3  -2 -10    5.90    2.50
   3   2  10    6.40    1.10
   3   2  10    7.60    0.80
  -4  -2 -10   53.79    3.90
  -4  -2 -10   57.99    3.40
   4   2  10   56.99    3.00
  -5  -2 -10   49.80    3.80
  -5  -2 -10   49.90    3.20
  -6  -2 -10   45.00    3.20
  -7  -2 -10   39.50    3.00
  -8  -2 -10   31.70    2.60
 -12   3  10    4.50    1.10
 -11   3  10    0.60    1.10
 -10   3  10   17.50    2.10
  -9   3  10   18.70    2.10
  -8   3  10   -0.20    1.10
  -7   3  10   10.00    1.60
   6  -3 -10    8.10    1.30
  -6   3  10    9.20    1.40
   5  -3 -10    7.50    1.20
  -5   3  10    7.80    1.30
   4  -3 -10   45.30    3.90
   4  -3 -10   50.79    3.10
   4  -3 -10   52.59    2.40
   4  -3 -10   51.39    2.80
  -4   3  10   48.30    2.80
  -4   3  10   47.30    2.70
  -4   3  10   49.10    3.00
   3  -3 -10    4.30    1.50
   3  -3 -10    5.60    1.00
   3  -3 -10    5.10    0.70
   3  -3 -10    6.00    1.00
  -3   3  10    3.80    0.80
  -3   3  10    5.10    1.00
  -3   3  10    5.90    1.10
   2  -3 -10    0.20    0.50
   2  -3 -10    0.50    1.00
   2  -3 -10    0.50    0.40
   2  -3 -10    0.60    0.60
  -2   3  10    0.20    0.60
  -2   3  10    0.60    0.60
  -2   3  10    0.50    0.50
   1  -3 -10    4.60    0.90
   1  -3 -10    4.40    0.60
   1  -3 -10    5.40    0.80
   1  -3 -10    3.90    1.50
  -1   3  10    6.00    0.90
  -1   3  10    5.20    0.80
  -1   3  10    4.40    1.00
   0  -3 -10   28.90    1.50
   0  -3 -10   29.00    3.20
   0  -3 -10   28.40    1.70
   0   3  10   31.60    1.90
   0   3  10   29.00    1.60
   0   3  10   30.80    2.30
  -1  -3 -10   42.80    2.10
  -1  -3 -10   41.00    3.90
   1   3  10   44.00    2.00
   1   3  10   39.70    2.40
   1   3  10   45.50    2.90
  -2  -3 -10    4.90    1.30
  -2  -3 -10    2.40    0.50
   2   3  10    3.50    0.80
   2   3  10    4.30    0.60
  -3  -3 -10    9.00    1.80
   3   3  10    8.50    1.20
  -4  -3 -10   35.70    3.20
 -12   4  10   12.60    1.40
 -11   4  10    0.40    1.00
 -10   4  10    0.90    1.10
  -9   4  10    1.10    1.10
  -8   4  10  198.88    8.40
   7  -4 -10   73.59    3.70
  -7   4  10   78.39    4.10
   6  -4 -10   10.10    1.40
   6  -4 -10    8.50    1.30
   6  -4 -10   12.80    1.90
  -6   4  10    7.80    1.40
  -6   4  10    9.40    1.40
   5  -4 -10    8.50    1.60
   5  -4 -10    7.50    1.20
   5  -4 -10    8.40    1.00
  -5   4  10    9.30    1.40
   4  -4 -10   67.99    5.00
   4  -4 -10   70.09    3.60
   4  -4 -10   77.69    3.70
   4  -4 -10   74.49    3.30
  -4   4  10   75.29    3.70
  -4   4  10   69.19    3.50
  -4   4  10   68.99    3.90
   3  -4 -10  364.26   16.50
   3  -4 -10  385.66   14.60
   3  -4 -10  369.96   14.40
   3  -4 -10  393.46   14.00
  -3   4  10  388.36   14.50
  -3   4  10  369.66   14.30
  -3   4  10  382.36   14.90
   2  -4 -10   99.69    4.40
   2  -4 -10   96.59    6.20
   2  -4 -10   98.59    4.10
   2  -4 -10   95.89    4.50
  -2   4  10   91.69    4.20
  -2   4  10  104.99    4.50
  -2   4  10  105.79    5.00
   1  -4 -10    0.60    1.20
   1  -4 -10    0.80    0.70
   1  -4 -10    1.00    0.40
   1  -4 -10    0.70    0.50
  -1   4  10    0.60    0.60
  -1   4  10    1.10    0.80
  -1   4  10    1.50    0.50
   0  -4 -10    9.80    2.20
   0  -4 -10   11.80    0.90
   0  -4 -10   11.70    1.10
   0   4  10   11.50    1.00
   0   4  10   11.70    1.30
   0   4  10   10.70    1.60
  -1  -4 -10  289.77   12.40
   1   4  10  301.97   11.60
   1   4  10  307.37   11.20
  -2  -4 -10  136.99   10.60
  -2  -4 -10  134.19    6.60
  -3  -4 -10   13.70    2.10
 -12   5  10    0.80    0.80
 -11   5  10    3.70    1.20
 -10   5  10    1.10    1.10
  -9   5  10   18.40    2.10
  -8   5  10   17.10    2.00
   7  -5 -10   13.20    1.70
  -7   5  10   15.20    1.80
  -7   5  10   19.90    3.60
   6  -5 -10   21.50    2.00
   6  -5 -10   19.90    2.50
   6  -5 -10   19.60    1.90
  -6   5  10   20.00    2.00
   5  -5 -10    0.00    1.00
   5  -5 -10    0.80    0.70
   5  -5 -10    1.30    0.70
  -5   5  10   -1.30    0.70
   4  -5 -10    0.20    0.60
   4  -5 -10    1.60    1.00
   4  -5 -10    0.10    0.70
   4  -5 -10    0.50    0.60
  -4   5  10    1.40    0.80
  -4   5  10    0.70    0.60
   3  -5 -10    2.20    0.70
   3  -5 -10    3.10    1.20
   3  -5 -10    2.10    0.80
   3  -5 -10    2.20    0.60
  -3   5  10    1.80    0.60
  -3   5  10    1.50    0.70
   2  -5 -10   19.20    1.60
   2  -5 -10   19.70    2.30
   2  -5 -10   18.20    1.30
   2  -5 -10   20.00    1.90
  -2   5  10   20.40    1.70
  -2   5  10   18.00    1.40
   1  -5 -10   14.10    1.70
   1  -5 -10   12.50    1.90
   1  -5 -10   13.10    1.10
  -1   5  10   14.50    1.40
   0  -5 -10    5.90    0.70
  -1  -5 -10   26.00    2.60
  -1  -5 -10   27.40    3.90
  -2  -5 -10    3.00    1.30
  -2  -5 -10    2.90    1.80
 -12   6  10    6.90    1.10
 -11   6  10    4.80    1.20
 -10   6  10    0.10    0.90
   8  -6 -10   -0.20    0.80
  -8   6  10    5.70    3.90
   7  -6 -10    5.80    1.40
  -7   6  10    9.40    3.30
   6  -6 -10    2.20    1.60
   6  -6 -10    2.80    1.10
   5  -6 -10   38.30    2.20
   5  -6 -10   37.00    3.30
   5  -6 -10   34.50    2.60
   5  -6 -10   36.30    2.60
  -5   6  10   32.20    2.40
   4  -6 -10  205.38    7.60
   4  -6 -10  197.08    8.30
   4  -6 -10  188.78    8.70
  -4   6  10  181.28    8.00
   3  -6 -10   67.79    4.30
   3  -6 -10   74.09    3.40
   3  -6 -10   90.29    6.50
   3  -6 -10   72.79    4.00
   2  -6 -10    4.30    0.70
   2  -6 -10    3.40    1.90
   2  -6 -10    3.20    1.10
   2  -6 -10    3.80    1.30
   1  -6 -10    0.80    0.90
   1  -6 -10    1.20    0.50
   1  -6 -10   -0.10    1.50
   1  -6 -10   -0.10    1.00
   0  -6 -10    0.90    1.50
   0  -6 -10    1.50    0.50
   0  -6 -10    2.90    1.30
  -1  -6 -10    5.80    2.10
  -1  -6 -10    8.80    1.80
  -2  -6 -10    0.40    1.40
  -9   7  10   10.30    3.80
   8  -7 -10    0.40    1.00
  -8   7  10    7.20    4.10
   7  -7 -10   30.70    2.60
  -7   7  10   29.70    4.40
   6  -7 -10   28.20    2.50
   6  -7 -10   26.30    3.50
   5  -7 -10   40.90    3.00
   5  -7 -10   41.50    2.40
   5  -7 -10   40.60    3.80
   4  -7 -10   45.70    5.60
   4  -7 -10   42.30    3.60
   4  -7 -10   49.60    2.60
   3  -7 -10    6.80    1.70
   3  -7 -10    5.90    1.60
   3  -7 -10    7.10    2.70
   3  -7 -10    6.80    1.00
   2  -7 -10    0.60    1.70
   2  -7 -10    2.40    1.20
   2  -7 -10    2.20    1.20
   2  -7 -10    1.00    0.60
   1  -7 -10    5.10    1.40
   1  -7 -10    2.20    1.70
   1  -7 -10    4.00    0.70
   0  -7 -10   26.60    4.20
   0  -7 -10   29.90    2.90
   0  -7 -10   29.50    1.60
  -1  -7 -10   75.49    6.70
  -2  -7 -10   49.99    5.70
 -10   8  10   22.40    4.10
  -9   8  10    8.40    3.60
   8  -8 -10   34.30    2.60
  -8   8  10   34.20    5.10
   7  -8 -10    0.90    1.20
  -7   8  10   -1.10    3.10
   6  -8 -10   15.10    2.80
   6  -8 -10   18.70    2.20
   6  -8 -10   14.70    2.00
   5  -8 -10   19.50    2.80
   5  -8 -10   18.20    2.10
   5  -8 -10   19.20    1.90
   5  -8 -10   29.40    4.80
   4  -8 -10   18.00    2.70
   4  -8 -10   15.70    3.90
   4  -8 -10   19.40    1.80
   3  -8 -10   16.80    1.70
   3  -8 -10   18.40    2.60
   3  -8 -10   18.00    3.90
   2  -8 -10    5.20    1.70
   2  -8 -10    4.20    0.90
   2  -8 -10    4.20    2.40
   1  -8 -10    6.60    2.50
   1  -8 -10    8.30    1.00
   1  -8 -10    5.50    1.70
   0  -8 -10   13.10    3.10
   0  -8 -10   14.90    1.30
  -1  -8 -10    3.70    2.20
  -2  -8 -10    3.70    2.70
 -10   9  10    2.00    2.10
  -9   9  10   15.30    3.60
   8  -9 -10    3.00    1.20
  -8   9  10    2.10    3.50
   7  -9 -10   27.00    2.60
  -7   9  10   21.10    4.20
   6  -9 -10  133.59    6.00
   6  -9 -10  107.09    5.50
  -6   9  10   99.19    7.70
   5  -9 -10  339.67   12.90
   5  -9 -10  340.37   14.40
   5  -9 -10  339.27   17.20
   5  -9 -10  326.97   13.40
   4  -9 -10   46.20    6.40
   4  -9 -10   42.40    4.20
   4  -9 -10   44.80    2.70
   3  -9 -10    5.00    2.00
   3  -9 -10    2.40    2.30
   3  -9 -10    4.00    1.00
   2  -9 -10   24.80    1.80
   2  -9 -10   19.00    3.90
   2  -9 -10   25.50    3.20
   1  -9 -10    3.70    2.20
   1  -9 -10    1.90    0.80
   1  -9 -10    3.10    2.80
   0  -9 -10   14.50    1.40
   0  -9 -10   13.30    3.40
  -1  -9 -10   17.70    3.90
 -10  10  10    0.70    1.80
  -9  10  10   -1.90    2.40
   8 -10 -10    4.60    1.20
  -8  10  10    6.70    3.20
   7 -10 -10   17.70    2.10
  -7  10  10   21.60    4.00
   6 -10 -10    4.10    2.80
   6 -10 -10    5.00    1.50
  -6  10  10    2.10    2.90
   5 -10 -10    1.10    1.40
   5 -10 -10    0.50    2.60
   5 -10 -10    1.30    1.10
  -5  10  10   -5.50    2.10
   4 -10 -10    0.50    2.40
   4 -10 -10    5.60    2.30
   4 -10 -10    1.50    1.10
   3 -10 -10    1.30    1.00
   3 -10 -10    3.60    2.00
   3 -10 -10    1.50    2.60
   2 -10 -10   18.60    1.80
   2 -10 -10   21.60    2.90
   2 -10 -10   20.20    4.20
   1 -10 -10    3.90    1.00
   1 -10 -10    3.70    2.70
   0 -10 -10    6.80    3.10
  -1 -10 -10    1.40    2.70
 -10  11  10    0.30    1.40
  -9  11  10    0.30    2.00
   8 -11 -10    1.30    1.00
  -8  11  10   -0.50    2.40
   7 -11 -10    3.20    1.40
  -7  11  10   -0.20    2.60
   6 -11 -10   23.10    2.70
   6 -11 -10   16.60    3.90
  -6  11  10   20.30    3.60
   5 -11 -10    7.20    1.70
   5 -11 -10    5.60    3.10
  -5  11  10    3.50    2.70
   4 -11 -10   -0.20    2.50
   3 -11 -10    1.80    2.80
   2 -11 -10   30.30    6.10
   1 -11 -10   31.20    5.90
   0 -11 -10   36.10    6.10
  -9  12  10   -0.70    1.50
   8 -12 -10    0.80    0.90
  -8  12  10    0.70    1.80
   7 -12 -10    8.00    1.50
  -7  12  10    8.00    2.40
   6 -12 -10    7.30    1.60
   6 -12 -10    2.00    2.90
  -6  12  10    8.10    2.50
   5 -12 -10    2.20    2.90
   5 -12 -10    3.80    1.50
  -5  12  10    0.40    2.20
   4 -12 -10    0.60    1.40
   4 -12 -10    1.70    2.90
   3 -12 -10   -0.10    2.80
   2 -12 -10    3.60    2.90
   1 -12 -10    3.00    2.90
   0 -12 -10   -1.90    3.20
   7 -13 -10   15.60    1.90
   6 -13 -10    1.10    2.70
   6 -13 -10    9.60    1.50
   5 -13 -10   11.90    1.70
   5 -13 -10    8.00    3.20
   4 -13 -10    2.90    2.80
   4 -13 -10    1.30    1.30
   3 -13 -10   12.80    3.40
  -2  14 -11   -0.20    1.30
  -3  14 -11   -0.80    1.50
  -4  14 -11    1.20    1.70
  -5  14 -11    3.50    2.00
  -6  14 -11    8.90    3.40
   0  13 -11   16.60    3.00
   0 -13  11    9.20    1.50
  -1  13 -11    5.50    2.20
   1 -13  11    4.80    1.30
  -2  13 -11   94.29    7.10
   2 -13  11   92.09    4.80
  -3  13 -11   57.49    6.10
   3 -13  11   69.99    3.80
  -4  13 -11   -2.30    2.00
   4 -13  11    1.70    1.10
  -5  13 -11   -1.70    2.00
   5 -13  11   -0.70    0.80
  -6  13 -11    1.50    2.00
   6 -13  11    0.50    1.00
  -2 -12  11    0.70    0.90
   1  12 -11   19.00    3.20
  -1 -12  11    8.40    1.60
   0  12 -11    7.00    2.60
   0 -12  11    7.90    1.70
  -1  12 -11    7.40    2.80
   1 -12  11   10.80    1.90
  -2  12 -11    5.70    2.80
   2 -12  11    9.60    1.70
  -3  12 -11   10.90    3.30
   3 -12  11   15.30    2.10
  -4  12 -11   -0.90    2.40
   4 -12  11    4.10    1.30
  -5  12 -11    8.20    3.10
   5 -12  11   12.90    2.00
  -6  12 -11    0.90    2.10
   6 -12  11    0.80    1.00
   7 -12  11    2.60    1.10
   8 -12  11   15.10    1.70
  -3 -11  11   15.50    1.30
  -3 -11  11   13.00    1.90
  -2 -11  11    2.40    0.80
  -2 -11  11    1.60    1.30
   1  11 -11    6.60    2.40
  -1 -11  11    6.10    1.70
  -1 -11  11    5.60    1.00
   0  11 -11   16.60    3.60
   0 -11  11   21.90    2.70
   0 -11  11   25.70    1.90
  -1  11 -11   -2.00    2.20
   1 -11  11    2.20    1.30
  -2  11 -11   -2.70    2.20
   2 -11  11    1.40    1.20
  -3  11 -11   -2.50    2.10
   3 -11  11    2.30    1.30
  -4  11 -11    0.80    2.50
   4 -11  11    5.10    1.50
  -5  11 -11   36.90    5.80
   5 -11  11   45.60    3.10
  -6  11 -11  141.09    9.40
   6 -11  11  145.29    6.70
   7 -11  11   18.30    2.20
   8 -11  11   -0.20    1.00
  -9  11 -11    0.60    1.20
   9 -11  11    2.10    1.00
 -10  11 -11    2.20    1.20
  -4 -10  11    2.80    1.40
  -4 -10  11    1.30    0.80
  -3 -10  11    6.80    1.10
  -3 -10  11    4.50    1.60
  -2 -10  11    1.80    1.60
  -2 -10  11    4.60    1.10
   1  10 -11    7.10    2.70
  -1 -10  11    6.70    1.80
  -1 -10  11    6.20    1.20
   0  10 -11    3.00    2.50
   0 -10  11    2.90    1.50
   0 -10  11    3.30    1.00
  -1  10 -11    2.40    2.70
   1 -10  11    4.60    1.50
   1 -10  11    5.20    1.40
  -2  10 -11   44.30    6.40
   2 -10  11   50.39    3.60
  -3  10 -11    0.00    2.20
   3 -10  11    1.20    1.20
  -4  10 -11    1.00    2.30
   4 -10  11    6.80    1.50
  -5  10 -11   36.00    5.60
   5 -10  11   37.90    3.00
   6 -10  11   91.79    4.90
   7 -10  11    8.10    1.60
  -8  10 -11    4.30    1.70
   8 -10  11    5.90    1.40
  -9  10 -11    5.80    1.70
   9 -10  11    6.00    1.40
 -10  10 -11    7.40    1.70
  10 -10  11    7.80    1.30
  -5  -9  11   31.50    2.20
  -5  -9  11   34.10    2.90
  -4  -9  11   49.10    3.70
  -4  -9  11   49.40    2.80
  -3  -9  11   16.50    2.10
  -3  -9  11   12.80    2.30
   2   9 -11   37.20    5.30
  -2  -9  11   12.20    2.30
  -2  -9  11   16.80    2.10
   1   9 -11    8.50    2.60
  -1  -9  11    3.40    1.70
  -1  -9  11    5.90    1.20
   0   9 -11  106.99    8.00
   0  -9  11   92.59    4.40
   0  -9  11   86.89    5.20
  -1   9 -11   59.19    6.70
   1  -9  11   59.19    3.90
  -2   9 -11   39.20    5.90
   2  -9  11   44.10    3.20
  -3   9 -11    0.90    2.10
   3  -9  11    2.60    1.20
  -4   9 -11   10.70    3.10
   4  -9  11   11.70    1.80
  -5   9 -11   23.80    4.60
   5  -9  11   23.70    2.40
   6  -9  11   68.89    4.10
  -7   9 -11    1.50    1.70
   7  -9  11    0.60    1.10
  -8   9 -11    0.70    1.50
   8  -9  11    1.90    1.20
  -9   9 -11   31.60    3.40
   9  -9  11   31.20    2.60
 -10   9 -11    6.80    1.90
  10  -9  11    6.20    1.30
 -11   9 -11    0.70    1.10
  -6  -8  11    6.60    1.60
  -6  -8  11    5.90    1.10
  -5  -8  11    4.50    1.10
  -5  -8  11    2.00    1.50
  -4  -8  11   12.30    1.60
  -4  -8  11   10.60    2.20
  -3  -8  11    2.50    1.70
  -3  -8  11    2.50    1.10
  -2  -8  11   11.70    2.20
   1   8 -11    9.70    2.70
  -1  -8  11    3.20    1.50
  -1  -8  11    4.00    1.00
   0   8 -11   39.80    5.20
   0  -8  11   21.60    2.60
   0  -8  11   29.30    2.10
  -1   8 -11   56.79    6.00
   1  -8  11   42.30    3.30
  -2   8 -11    4.80    2.20
   2  -8  11    4.20    1.30
  -3   8 -11    7.70    2.50
   3  -8  11    9.20    1.60
  -4   8 -11    0.80    1.80
   4  -8  11    1.40    1.00
  -5   8 -11   37.40    4.90
  -5   8 -11   42.10    3.50
   5  -8  11   36.70    2.90
  -6   8 -11   26.70    3.50
   6  -8  11   29.00    2.60
  -7   8 -11    2.00    1.80
   7  -8  11    2.50    1.20
  -8   8 -11    3.00    1.80
   8  -8  11    4.80    1.40
  -9   8 -11   13.10    2.40
   9  -8  11   15.60    2.00
 -10   8 -11   18.80    2.70
  10  -8  11   21.80    2.10
 -11   8 -11    3.50    1.40
  11  -8  11    4.70    1.10
  -7  -7  11   -0.70    0.80
  -7  -7  11    0.10    1.10
  -6  -7  11    6.90    1.80
  -6  -7  11    8.10    1.30
  -5  -7  11   10.00    2.10
  -5  -7  11   10.60    1.50
  -4  -7  11   19.20    2.30
  -4  -7  11   15.20    2.60
  -3  -7  11   13.00    2.30
  -3  -7  11   20.20    2.20
   1   7 -11   60.39    5.40
  -1  -7  11   37.20    3.00
  -1  -7  11   40.50    2.60
   0   7 -11   39.10    4.40
   0  -7  11   24.20    2.60
   0  -7  11   31.40    2.10
  -1   7 -11   31.00    4.50
   1  -7  11   20.10    2.20
  -2   7 -11    3.30    1.70
   2  -7  11    0.20    0.80
  -3   7 -11    2.70    1.60
   3  -7  11    1.10    0.90
  -4   7 -11    2.90    1.70
   4  -7  11   -0.80    0.80
  -5   7 -11    6.10    2.00
   5  -7  11    4.30    1.30
  -6   7 -11    2.50    1.80
   6  -7  11    3.80    1.30
  -7   7 -11    7.00    2.10
  -7   7 -11   10.50    1.70
   7  -7  11    8.20    1.60
  -8   7 -11    0.10    1.70
  -8   7 -11    0.50    1.50
  -9   7 -11    1.60    1.30
  -9   7 -11    0.30    1.70
  -9   7 -11   -0.60    1.60
 -10   7 -11    1.80    1.20
 -10   7 -11    0.10    1.40
  10  -7  11    1.10    1.00
 -11   7 -11   17.90    2.00
 -11   7 -11   14.50    2.00
  11  -7  11   14.90    1.70
  -8  -6  11    9.40    2.10
  -7  -6  11    3.10    1.40
  -7  -6  11    3.70    1.10
  -6  -6  11    7.00    1.40
  -6  -6  11    6.50    1.90
  -5  -6  11   51.09    3.30
  -5  -6  11   51.89    4.10
  -4  -6  11  159.58    7.60
  -4  -6  11  147.09    6.60
  -3  -6  11   31.10    3.00
  -3  -6  11   35.00    2.50
   0  -6  11   33.30    2.50
   1  -6  11   91.29    4.60
   2  -6  11   73.09    3.90
   3  -6  11    6.60    1.30
  -4   6 -11   78.89    4.50
  -4   6 -11   69.49    3.50
  -4   6 -11   75.89    6.40
   4  -6  11   68.79    3.90
  -5   6 -11  417.66   15.90
  -5   6 -11  417.96   17.00
   5  -6  11  425.96   16.40
  -6   6 -11  184.48    9.00
  -6   6 -11  181.58    7.90
  -6   6 -11  197.18    9.10
  -6   6 -11  191.48    7.80
  -7   6 -11  305.67   13.10
  -7   6 -11  301.37   11.70
  -7   6 -11  305.37   13.20
  -7   6 -11  277.67   11.80
  -8   6 -11    2.20    1.40
  -8   6 -11    1.40    1.90
  -8   6 -11    2.20    1.10
  -8   6 -11    1.20    1.80
  -9   6 -11    5.10    1.50
  -9   6 -11    3.10    1.10
  -9   6 -11    2.80    1.80
  -9   6 -11    2.60    1.90
 -10   6 -11    2.40    1.20
 -10   6 -11    5.50    1.80
 -10   6 -11    5.10    2.00
 -11   6 -11   19.80    2.30
 -11   6 -11   16.60    2.30
 -11   6 -11   16.20    1.70
  -8  -5  11    2.40    1.30
  -7  -5  11   10.00    2.00
  -7  -5  11   11.50    1.60
  -6  -5  11    7.00    1.90
  -6  -5  11    8.70    1.50
  -5  -5  11    2.50    1.10
  -5  -5  11    1.30    1.50
  -4  -5  11    1.60    1.30
  -4  -5  11    5.00    1.20
  -3  -5  11   -0.30    1.10
  -3  -5  11    3.00    0.90
  -2  -5  11    2.20    1.10
  -1  -5  11   19.70    2.10
   0  -5  11    3.50    1.30
  -1   5 -11   10.60    2.80
  -2   5 -11   -0.80    0.70
  -2   5 -11    0.70    0.60
  -3   5 -11    0.90    0.70
   3  -5  11    1.10    0.80
  -4   5 -11    9.50    1.20
  -4   5 -11   12.70    2.00
  -4   5 -11    6.10    1.30
   4  -5  11    7.10    1.70
   4  -5  11    7.60    1.10
  -5   5 -11    1.20    0.80
  -5   5 -11    0.80    1.10
  -5   5 -11    1.00    1.30
  -5   5 -11    0.40    1.30
   5  -5  11    0.80    0.60
  -6   5 -11   10.20    1.70
  -6   5 -11    8.10    1.30
  -6   5 -11   10.60    2.30
  -6   5 -11    7.40    2.00
  -7   5 -11   12.60    1.60
  -7   5 -11   14.20    2.50
  -7   5 -11   14.00    2.60
  -7   5 -11   14.40    1.90
  -8   5 -11   15.70    2.00
  -8   5 -11   14.30    2.60
  -8   5 -11   10.80    2.40
  -8   5 -11   13.50    1.60
  -9   5 -11    1.20    1.60
  -9   5 -11   -0.80    1.70
  -9   5 -11    0.10    1.20
  -9   5 -11    0.60    0.90
 -10   5 -11   10.10    1.70
 -10   5 -11   14.50    2.60
 -10   5 -11   13.30    2.30
 -11   5 -11   12.30    1.50
 -11   5 -11   13.40    2.10
  -8  -4  11    1.30    1.80
  -7  -4  11    7.80    1.90
  -7  -4  11    9.80    1.60
  -6  -4  11   19.40    2.70
  -6  -4  11   27.40    2.50
  -5  -4  11  158.98    6.90
  -5  -4  11  163.28    7.80
   4   4 -11    6.00    2.10
  -4  -4  11    8.00    1.20
  -4  -4  11    5.00    1.50
  -3  -4  11   10.30    1.70
   2   4 -11   13.00    2.50
  -2  -4  11   16.30    1.90
   1   4 -11   26.20    3.10
   0   4 -11   30.50    3.40
  -1   4 -11    7.10    1.90
  -1   4 -11    6.40    1.20
  -1   4 -11    8.00    1.00
   1  -4  11    8.80    1.00
  -2   4 -11   80.99    4.30
  -2   4 -11   86.19    5.80
  -2   4 -11   87.69    3.70
  -2   4 -11   82.09    4.10
   2  -4  11   78.39    3.90
   2  -4  11   85.29    3.70
  -3   4 -11  129.29    7.70
  -3   4 -11  134.59    5.40
  -3   4 -11  125.99    6.10
  -3   4 -11  129.09    5.80
   3  -4  11  133.69    5.40
   3  -4  11  117.79    5.50
  -4   4 -11  229.78    9.70
  -4   4 -11  243.88    9.30
  -4   4 -11  233.38   10.30
  -4   4 -11  235.28   10.40
   4  -4  11  237.88   10.80
   4  -4  11  242.88    9.30
  -5   4 -11    4.20    1.30
  -5   4 -11    5.00    1.20
  -5   4 -11    5.70    1.70
  -5   4 -11    3.80    1.00
  -5   4 -11    4.60    1.60
  -6   4 -11    7.30    1.50
  -6   4 -11    7.00    1.20
  -6   4 -11    7.20    2.00
  -6   4 -11    4.80    1.80
  -7   4 -11    9.70    1.70
  -7   4 -11    8.80    2.30
  -7   4 -11    6.60    2.00
  -7   4 -11    8.60    1.40
  -8   4 -11    2.40    1.40
  -8   4 -11    1.30    1.80
  -8   4 -11    4.10    1.20
  -8   4 -11    1.30    1.70
  -9   4 -11   22.10    3.00
  -9   4 -11   19.90    3.00
  -9   4 -11   20.10    2.30
  -9   4 -11   19.90    2.00
 -10   4 -11   14.40    2.40
 -10   4 -11   16.30    1.90
 -10   4 -11   11.00    2.10
 -11   4 -11    3.90    1.10
 -11   4 -11    3.60    1.50
  -8  -3  11    1.70    1.10
  -7  -3  11    8.60    1.60
  -7  -3  11    8.30    1.50
  -6  -3  11   24.40    2.30
  -6  -3  11   18.00    2.00
  -5  -3  11    3.70    1.10
  -5  -3  11    1.60    1.10
   4   3 -11   -2.20    0.60
  -4  -3  11    1.50    1.10
  -4  -3  11   -0.50    0.70
   2   3 -11   88.99    5.70
  -2  -3  11   90.59    4.00
   1   3 -11    1.80    1.20
  -1  -3  11    0.60    0.50
   0   3 -11   13.30    1.60
   0   3 -11   14.60    1.20
   0   3 -11   16.10    2.60
   0  -3  11   13.90    1.20
  -1   3 -11    7.00    1.10
  -1   3 -11   10.30    2.30
  -1   3 -11    9.30    1.40
  -1   3 -11    8.20    1.00
   1  -3  11    6.90    0.90
   1  -3  11    7.30    1.00
  -2   3 -11    1.80    0.70
  -2   3 -11    2.60    1.40
  -2   3 -11    1.60    0.70
  -2   3 -11    1.10    0.80
   2  -3  11    1.30    0.60
   2  -3  11    2.50    0.70
  -3   3 -11    2.10    0.80
  -3   3 -11    2.90    1.50
  -3   3 -11    2.40    1.00
  -3   3 -11    3.70    0.80
   3  -3  11    3.10    0.70
   3  -3  11    2.30    0.70
  -4   3 -11   55.79    3.70
  -4   3 -11   55.19    3.20
  -4   3 -11   64.09    2.90
  -4   3 -11   59.59    5.00
  -4   3 -11   56.29    4.00
   4  -3  11   57.49    3.00
  -5   3 -11   10.20    1.60
  -5   3 -11   14.50    1.70
  -5   3 -11   13.00    2.20
  -5   3 -11   12.80    2.10
  -5   3 -11   13.10    1.30
  -6   3 -11    8.40    1.70
  -6   3 -11    6.90    1.90
  -6   3 -11    6.30    1.80
  -6   3 -11    9.00    1.20
  -7   3 -11    0.70    1.50
  -7   3 -11    0.10    0.80
  -7   3 -11    0.80    1.20
  -7   3 -11   -0.10    1.40
  -8   3 -11    7.20    2.30
  -8   3 -11    7.30    1.80
  -8   3 -11    9.00    1.40
  -8   3 -11    9.30    2.30
  -9   3 -11    9.50    1.40
  -9   3 -11   10.40    1.80
  -9   3 -11   11.00    2.20
  -9   3 -11    8.60    2.20
 -10   3 -11   38.10    3.50
 -10   3 -11   41.50    2.90
 -11   3 -11    6.00    1.10
 -10  -2  11   -0.10    0.80
  -9  -2  11    3.90    1.20
  -8  -2  11    3.10    1.20
  -7  -2  11    3.20    1.20
  -6  -2  11   48.60    3.20
  -6  -2  11   45.30    2.90
   5   2 -11   46.80    2.80
  -5  -2  11   49.00    3.00
  -5  -2  11   46.00    2.80
   4   2 -11   25.00    1.90
  -4  -2  11   23.60    2.00
   3   2 -11   25.40    1.80
  -3  -2  11   23.70    1.80
   2   2 -11   48.90    3.90
  -2  -2  11   44.90    2.50
   1   2 -11   36.30    3.50
   1   2 -11   34.50    1.90
  -1  -2  11   36.20    2.10
   0   2 -11    8.30    1.20
   0   2 -11    6.70    0.90
   0   2 -11    5.40    1.10
   0   2 -11    6.80    1.80
   0  -2  11    7.90    1.00
   0  -2  11    6.10    0.90
  -1   2 -11   27.50    2.20
  -1   2 -11   27.40    1.90
  -1   2 -11   29.40    3.20
  -1   2 -11   28.60    1.70
   1  -2  11   25.60    1.70
   1  -2  11   28.50    1.70
  -2   2 -11   31.10    1.90
  -2   2 -11   31.70    2.10
  -2   2 -11   33.30    3.50
  -2   2 -11   29.80    2.50
   2  -2  11   33.70    1.90
   2  -2  11   35.10    2.00
  -3   2 -11   16.90    1.40
  -3   2 -11   18.00    2.00
  -3   2 -11   17.90    1.60
  -3   2 -11   16.40    2.80
   3  -2  11   19.00    1.50
   3  -2  11   19.10    1.50
  -4   2 -11    9.30    1.00
  -4   2 -11    8.20    1.70
  -4   2 -11    8.80    1.80
   4  -2  11    8.10    1.10
  -5   2 -11    4.00    1.50
  -5   2 -11    5.10    1.40
  -5   2 -11    5.30    1.30
  -5   2 -11    4.20    1.50
  -5   2 -11    3.60    0.80
  -6   2 -11    1.30    1.20
  -6   2 -11    2.30    0.80
  -6   2 -11    1.20    1.60
  -6   2 -11    1.10    1.40
  -7   2 -11    1.10    1.30
  -7   2 -11    2.80    1.80
  -7   2 -11    0.90    1.60
  -7   2 -11    2.20    1.00
  -8   2 -11   37.90    3.20
  -8   2 -11   35.10    3.80
  -8   2 -11   35.90    3.80
  -8   2 -11   35.90    2.40
  -9   2 -11   37.40    3.60
  -9   2 -11   39.30    3.10
  -9   2 -11   38.40    3.70
 -10   2 -11    6.10    1.30
 -10   2 -11    7.80    1.80
 -10  -1  11   23.60    2.10
  -9  -1  11    4.20    1.30
  -8  -1  11    4.50    1.30
  -7  -1  11    7.20    1.50
  -6  -1  11    1.30    1.00
   5   1 -11   -0.20    0.70
  -5  -1  11    0.40    0.80
  -5  -1  11    0.20    0.80
   4   1 -11   13.70    1.50
  -4  -1  11   18.50    1.70
   3   1 -11   98.79    4.30
   3   1 -11   95.19    5.80
  -3  -1  11   97.99    4.40
   2   1 -11    4.10    1.50
   2   1 -11    3.50    0.70
  -2  -1  11    4.10    0.90
   1   1 -11  175.78    6.80
   1   1 -11  170.68    7.10
   1   1 -11  183.48    9.00
  -1  -1  11  164.38    7.00
  -1  -1  11  169.38    7.20
  -1  -1  11  186.38    7.10
   0   1 -11   30.50    2.20
   0   1 -11   30.40    2.00
   0   1 -11   31.70    3.30
   0   1 -11   30.40    1.80
   0  -1  11   28.10    1.80
   0  -1  11   32.30    1.90
  -1   1 -11   38.20    2.00
  -1   1 -11   35.50    3.50
  -1   1 -11   34.90    2.10
  -1   1 -11   36.30    2.60
   1  -1  11   35.60    2.00
   1  -1  11   34.10    2.00
  -2   1 -11    7.40    1.30
  -2   1 -11    6.50    1.90
  -2   1 -11    7.50    1.10
  -2   1 -11    8.40    0.90
   2  -1  11    7.10    0.90
   2  -1  11    9.00    1.10
  -3   1 -11   29.00    2.50
  -3   1 -11   24.80    1.80
  -3   1 -11   26.80    1.60
  -3   1 -11   26.60    3.20
   3  -1  11   28.70    1.90
   3  -1  11   23.30    1.60
  -4   1 -11    4.20    1.50
  -4   1 -11    2.60    0.70
  -4   1 -11    0.40    1.20
   4  -1  11    1.10    0.70
  -5   1 -11    1.60    1.40
  -5   1 -11    1.70    1.20
  -5   1 -11    0.90    0.60
  -5   1 -11   -0.20    1.00
  -5   1 -11    0.10    1.30
  -6   1 -11   13.50    1.90
  -6   1 -11   10.50    2.20
  -6   1 -11   14.70    2.40
  -6   1 -11   12.50    1.30
  -7   1 -11    1.50    0.90
  -7   1 -11    1.50    1.60
  -7   1 -11    0.00    1.20
  -7   1 -11    3.60    1.90
  -8   1 -11   15.60    2.10
  -8   1 -11   22.00    2.90
  -8   1 -11   17.10    1.80
  -8   1 -11   17.60    2.70
  -9   1 -11   15.20    2.00
  -9   1 -11   19.70    2.50
 -10   1 -11   28.20    2.70
 -10   1 -11   32.00    2.30
 -11   0  11   39.60    2.40
 -10   0  11   38.50    2.70
  -9   0  11   19.60    2.20
  -8   0  11   13.40    1.80
  -7   0  11    5.00    1.40
  -6   0  11    2.30    1.20
  -6   0  11    2.50    1.10
   5   0 -11    8.30    1.30
  -5   0  11   13.40    1.60
  -5   0  11   11.60    1.50
   4   0 -11    7.40    1.10
  -4   0  11    7.00    1.20
   3   0 -11   61.99    4.40
   3   0 -11   59.69    2.80
   3   0 -11   59.49    3.00
  -3   0  11   62.69    3.10
   2   0 -11  166.28    6.60
   2   0 -11  166.38    8.60
   2   0 -11  172.38    7.00
  -2   0  11  166.48    6.90
  -2   0  11  170.98    6.90
  -2   0  11  169.58    7.10
   1   0 -11  228.98    9.40
   1   0 -11  249.18    9.10
   1   0 -11  260.07   11.50
  -1   0  11  241.68    9.40
  -1   0  11  236.28    9.70
  -1   0  11  231.78    9.30
   0   0 -11    4.90    0.90
   0   0 -11    4.70    1.10
   0   0 -11    4.70    1.60
   0   0 -11    5.00    0.70
   0   0  11    6.00    0.90
   0   0  11    5.20    1.00
   0   0  11    5.00    0.80
  -1   0 -11   33.10    1.70
  -1   0 -11   34.60    2.00
  -1   0 -11   29.90    2.40
  -1   0 -11   30.20    3.30
   1   0  11   32.80    1.90
   1   0  11   30.30    1.90
  -2   0 -11   20.20    1.30
  -2   0 -11   19.40    1.50
  -2   0 -11   22.10    3.00
  -2   0 -11   19.60    2.00
   2   0  11   19.00    1.40
   2   0  11   21.80    1.60
  -3   0 -11  111.39    5.80
  -3   0 -11  111.59    4.80
  -3   0 -11  110.89    4.40
  -3   0 -11  106.49    6.80
   3   0  11  111.39    4.90
   3   0  11  111.89    4.60
  -4   0 -11    0.30    1.10
  -4   0 -11    0.80    1.10
  -4   0 -11    1.10    0.60
   4   0  11    1.70    0.80
  -5   0 -11    9.30    1.70
  -5   0 -11    7.90    0.90
  -5   0 -11    7.90    1.90
  -6   0 -11   11.30    1.10
  -6   0 -11   12.50    1.90
  -6   0 -11   13.00    2.40
  -6   0 -11   12.90    2.30
  -7   0 -11    0.30    1.30
  -7   0 -11    0.60    1.50
  -7   0 -11    0.70    0.90
  -7   0 -11    1.70    1.70
  -8   0 -11   -1.30    1.20
  -8   0 -11    0.90    0.80
  -8   0 -11    1.90    1.70
  -9   0 -11    0.60    1.40
  -9   0 -11    3.10    1.20
 -10   0 -11    6.10    1.10
 -11   1  11   74.79    3.70
 -10   1  11   31.50    2.60
  -9   1  11    3.00    1.30
  -8   1  11   68.99    4.10
  -7   1  11  108.99    5.40
   6  -1 -11  100.69    4.90
  -6   1  11  105.69    5.10
  -6   1  11  102.89    5.00
   5  -1 -11    4.10    0.90
  -5   1  11    3.30    1.10
   4  -1 -11   89.59    4.10
  -4   1  11   79.49    4.10
   3  -1 -11    5.10    1.60
   3  -1 -11    7.60    0.90
   3  -1 -11    5.80    1.00
  -3   1  11    6.90    1.30
  -3   1  11    5.20    1.00
  -3   1  11    6.70    1.20
   2  -1 -11  178.98    6.60
   2  -1 -11  164.38    8.70
   2  -1 -11  168.38    6.90
  -2   1  11  165.18    7.20
  -2   1  11  161.38    6.80
  -2   1  11  176.28    7.00
   1  -1 -11   17.90    1.40
   1  -1 -11   16.00    1.20
   1  -1 -11   13.10    2.40
  -1   1  11   14.70    1.30
  -1   1  11   16.10    1.40
  -1   1  11   14.70    1.60
   0  -1 -11    6.20    1.80
   0  -1 -11    6.60    0.90
   0  -1 -11    5.70    0.80
   0   1  11    6.80    1.00
   0   1  11    7.00    0.90
   0   1  11    6.00    1.10
  -1  -1 -11    3.60    1.10
  -1  -1 -11    4.80    0.80
  -1  -1 -11    3.80    0.60
  -1  -1 -11    3.70    1.60
   1   1  11    4.30    0.70
   1   1  11    3.90    1.00
   1   1  11    4.80    0.90
  -2  -1 -11  187.38    7.00
  -2  -1 -11  186.98    9.70
  -2  -1 -11  182.88    7.30
  -2  -1 -11  175.28    8.10
   2   1  11  189.98    7.20
   2   1  11  185.98    7.50
  -3  -1 -11  271.27   11.50
  -3  -1 -11  265.27   10.00
   3   1  11  271.27   10.60
  -4  -1 -11   14.70    2.30
  -4  -1 -11   15.40    1.90
   4   1  11   14.10    1.50
  -5  -1 -11    1.50    1.40
  -5  -1 -11    2.50    1.20
  -6  -1 -11    7.80    1.70
  -6  -1 -11   10.80    2.10
  -7  -1 -11    6.90    1.60
  -7  -1 -11    6.30    2.30
  -8  -1 -11  109.79    5.40
  -8  -1 -11  112.99    6.00
  -9  -1 -11   20.50    2.10
 -11   2  11    0.50    1.10
 -10   2  11    2.30    1.20
  -9   2  11   10.10    1.70
  -8   2  11   25.00    2.50
  -7   2  11    2.80    1.30
   6  -2 -11    1.90    0.80
   6  -2 -11    2.20    0.90
  -6   2  11    1.90    1.00
  -6   2  11    1.40    1.00
   5  -2 -11    1.10    0.80
  -5   2  11    2.00    1.00
   4  -2 -11    9.20    1.00
   4  -2 -11    9.00    1.30
  -4   2  11    8.10    1.30
   3  -2 -11   35.40    3.50
   3  -2 -11   33.00    2.20
   3  -2 -11   37.70    1.90
   3  -2 -11   34.20    2.20
  -3   2  11   34.30    2.40
  -3   2  11   31.30    2.10
  -3   2  11   34.50    2.30
   2  -2 -11   12.00    1.30
   2  -2 -11   13.50    2.40
   2  -2 -11   12.80    1.30
   2  -2 -11   14.30    1.20
  -2   2  11   11.70    1.20
  -2   2  11   12.20    1.60
  -2   2  11   11.30    1.30
   1  -2 -11    0.80    0.50
   1  -2 -11    1.30    1.20
   1  -2 -11    0.40    0.50
  -1   2  11    0.90    0.80
  -1   2  11    0.70    0.50
  -1   2  11    0.80    0.60
   0  -2 -11    6.30    1.90
   0  -2 -11    7.50    1.00
   0  -2 -11    9.10    0.90
   0   2  11    9.30    1.20
   0   2  11    7.90    1.30
   0   2  11    8.30    1.00
  -1  -2 -11    1.70    1.30
  -1  -2 -11    1.40    0.50
  -1  -2 -11    1.60    0.60
   1   2  11    2.10    0.90
   1   2  11    2.20    0.60
   1   2  11    2.70    0.80
  -2  -2 -11   24.40    2.50
   2   2  11   23.90    1.80
   2   2  11   22.00    2.00
  -3  -2 -11   13.10    2.10
  -3  -2 -11   14.80    1.80
   3   2  11   15.10    1.50
  -4  -2 -11   15.30    2.30
  -4  -2 -11   17.50    2.00
  -5  -2 -11    5.40    1.70
  -5  -2 -11    9.90    1.70
  -6  -2 -11    6.90    1.60
  -7  -2 -11    0.70    1.30
  -8  -2 -11   -0.20    1.10
 -11   3  11    0.00    1.00
 -10   3  11    4.10    1.30
  -9   3  11    5.40    1.40
   7  -3 -11    7.80    1.40
  -7   3  11   11.70    1.80
   6  -3 -11    3.40    1.00
   6  -3 -11    5.60    1.10
  -6   3  11    3.70    1.10
  -6   3  11    2.20    1.20
   5  -3 -11    8.90    1.30
  -5   3  11    7.60    1.40
   4  -3 -11  258.17   10.70
   4  -3 -11  268.17   10.30
   4  -3 -11  263.47    9.80
   4  -3 -11  242.28   12.40
  -4   3  11  263.97   10.30
  -4   3  11  250.77   10.60
   3  -3 -11  460.85   19.80
   3  -3 -11  464.95   17.60
   3  -3 -11  459.85   17.60
   3  -3 -11  491.45   17.20
  -3   3  11  443.06   17.40
  -3   3  11  457.25   18.00
  -3   3  11  482.95   17.60
   2  -3 -11   28.50    3.30
   2  -3 -11   26.30    1.90
   2  -3 -11   28.90    1.70
   2  -3 -11   27.40    2.00
  -2   3  11   27.90    2.00
  -2   3  11   27.10    2.30
  -2   3  11   28.20    1.80
   1  -3 -11    8.60    2.10
   1  -3 -11    8.10    1.10
   1  -3 -11   10.40    1.00
  -1   3  11    9.20    1.20
  -1   3  11    8.60    1.40
  -1   3  11   10.00    1.10
   0  -3 -11   49.20    6.70
   0  -3 -11   43.30    3.30
   0  -3 -11   45.60    2.40
   0  -3 -11   47.20    2.20
   0   3  11   51.19    2.70
   0   3  11   48.60    2.40
  -1  -3 -11   42.00    2.00
  -1  -3 -11   44.40    3.20
   1   3  11   45.00    2.50
  -2  -3 -11  206.48   14.60
  -2  -3 -11  194.18    8.80
   2   3  11  190.38    7.90
  -3  -3 -11  147.59    7.10
   3   3  11  138.99    6.10
  -4  -3 -11   10.80    2.00
 -12   4  11    4.30    0.90
 -11   4  11   -1.70    0.80
 -10   4  11    6.50    1.40
  -9   4  11    6.70    1.40
  -8   4  11    1.40    1.10
   7  -4 -11   18.60    1.90
  -7   4  11   20.10    2.20
   6  -4 -11    4.00    1.10
   6  -4 -11    2.70    1.30
  -6   4  11    3.30    1.10
   5  -4 -11    1.20    0.80
   5  -4 -11   -0.80    1.00
   5  -4 -11    1.10    0.70
  -5   4  11   -0.80    0.80
  -5   4  11    0.20    0.80
   4  -4 -11    0.20    0.50
   4  -4 -11    1.30    0.90
   4  -4 -11   -0.10    0.60
   4  -4 -11    0.20    0.70
  -4   4  11    0.40    0.70
  -4   4  11    0.10    0.70
   3  -4 -11    1.20    1.10
   3  -4 -11    1.70    0.70
   3  -4 -11    1.10    0.60
   3  -4 -11    2.60    0.90
  -3   4  11    1.40    0.70
  -3   4  11    0.80    0.70
   2  -4 -11    0.30    0.60
   2  -4 -11    0.00    0.70
   2  -4 -11    1.50    1.20
   2  -4 -11    0.20    0.50
  -2   4  11    0.20    0.50
  -2   4  11    0.10    0.70
   1  -4 -11    0.00    0.40
   1  -4 -11    0.30    1.00
  -1   4  11    0.80    0.70
   0  -4 -11    0.30    0.50
   0  -4 -11    1.60    1.10
   0   4  11    0.60    0.70
  -1  -4 -11   10.50    2.60
  -1  -4 -11   11.60    1.80
   1   4  11    9.20    1.30
  -2  -4 -11   15.70    2.20
  -2  -4 -11   12.70    2.90
  -3  -4 -11   -0.40    1.20
 -12   5  11    6.20    1.50
 -11   5  11    2.00    1.00
 -10   5  11    1.20    1.10
  -9   5  11    8.10    1.50
  -8   5  11   30.20    2.50
   7  -5 -11   11.30    1.60
  -7   5  11   22.40    4.10
  -7   5  11   14.90    1.80
   6  -5 -11   73.49    4.80
   6  -5 -11   82.09    4.10
   5  -5 -11    5.00    1.10
   5  -5 -11    5.50    1.00
  -5   5  11    5.80    1.30
   3  -5 -11   68.69    3.70
   3  -5 -11   67.99    4.20
   3  -5 -11   69.09    3.10
  -3   5  11   63.09    3.50
   2  -5 -11   42.70    2.90
   2  -5 -11   47.00    2.30
   2  -5 -11   48.00    5.20
   2  -5 -11   47.00    3.50
  -2   5  11   47.80    2.70
   1  -5 -11    2.30    1.30
   1  -5 -11    1.10    1.70
   1  -5 -11    1.70    0.60
  -1   5  11    0.80    0.70
   0  -5 -11    1.90    1.10
   0  -5 -11    1.20    1.70
   0  -5 -11    2.10    0.60
  -1  -5 -11    1.90    1.60
  -1  -5 -11    1.10    1.20
  -2  -5 -11    2.80    2.00
  -2  -5 -11    4.20    1.50
 -11   6  11    1.60    0.90
 -10   6  11   43.80    2.80
   8  -6 -11   40.40    2.50
  -8   6  11   50.59    6.10
   7  -6 -11   -0.40    1.00
  -7   6  11    1.30    3.20
   6  -6 -11   18.70    2.60
   6  -6 -11   17.80    2.10
   5  -6 -11   28.10    3.20
   5  -6 -11   34.50    2.20
   5  -6 -11   30.90    2.60
   4  -6 -11    6.20    1.50
   4  -6 -11    4.60    0.90
   4  -6 -11    4.40    1.60
  -4   6  11    4.90    1.20
   3  -6 -11   38.90    3.30
   3  -6 -11   36.10    5.40
   3  -6 -11   39.10    2.20
   3  -6 -11   36.00    2.80
   2  -6 -11    0.50    1.10
   2  -6 -11   -0.80    1.70
   2  -6 -11    0.80    0.60
   2  -6 -11   -0.90    0.80
   1  -6 -11   19.80    1.40
   1  -6 -11   17.60    3.70
   1  -6 -11   17.20    2.40
   0  -6 -11   44.00    5.00
   0  -6 -11   47.60    3.60
   0  -6 -11   45.00    2.20
  -1  -6 -11    1.60    1.70
  -1  -6 -11    1.90    1.30
  -2  -6 -11    2.70    2.00
  -9   7  11   35.20    5.50
   8  -7 -11   81.09    4.00
  -8   7  11   89.29    8.70
   7  -7 -11   12.70    1.80
  -7   7  11   17.20    4.20
   6  -7 -11   90.99    4.70
   6  -7 -11   91.09    5.70
   4  -7 -11    4.50    1.80
   4  -7 -11    3.30    2.80
   4  -7 -11    3.70    0.90
   3  -7 -11   19.60    4.00
   3  -7 -11   18.40    2.50
   3  -7 -11   16.40    1.60
   2  -7 -11    3.80    2.20
   2  -7 -11    5.50    1.60
   2  -7 -11    4.60    0.90
   1  -7 -11   39.90    5.00
   1  -7 -11   42.40    3.40
   1  -7 -11   43.50    2.20
   0  -7 -11   23.20    1.50
   0  -7 -11   26.20    4.40
   0  -7 -11   24.00    2.80
  -1  -7 -11   56.89    4.70
  -1  -7 -11   61.79    6.30
  -2  -7 -11   44.90    5.50
  -9   8  11    4.50    3.40
   8  -8 -11   58.19    3.30
  -8   8  11   65.19    7.50
   7  -8 -11   14.40    1.90
  -7   8  11   11.00    3.90
   6  -8 -11   13.70    1.90
   6  -8 -11   10.20    2.50
   5  -8 -11    2.70    2.40
   5  -8 -11    3.10    1.00
   5  -8 -11    2.50    1.30
   5  -8 -11    5.50    2.20
   4  -8 -11   46.10    2.60
   4  -8 -11   39.90    6.00
   4  -8 -11   46.50    4.00
   3  -8 -11   -0.20    0.80
   3  -8 -11    1.00    1.60
   3  -8 -11    1.10    2.10
   2  -8 -11   10.60    2.10
   2  -8 -11    7.90    2.90
   2  -8 -11    9.90    1.20
   1  -8 -11   14.50    1.30
   1  -8 -11   11.40    3.10
   1  -8 -11   12.60    2.20
   0  -8 -11   10.80    3.00
   0  -8 -11   13.90    2.20
   0  -8 -11   11.90    1.20
  -1  -8 -11  131.29    9.20
  -2  -8 -11   38.70    5.60
 -10   9  11   15.30    2.30
  -9   9  11   22.80    3.70
   8  -9 -11    0.00    1.00
  -8   9  11    1.20    3.50
   7  -9 -11   13.10    1.80
  -7   9  11   18.30    4.10
   6  -9 -11   72.79    4.20
  -6   9  11   56.29    6.30
   5  -9 -11   48.10    6.30
   5  -9 -11   40.00    2.70
   5  -9 -11   48.50    4.60
   5  -9 -11   47.90    3.60
   4  -9 -11    1.90    2.50
   4  -9 -11    3.00    2.00
   4  -9 -11    0.40    0.90
   3  -9 -11    4.60    1.10
   3  -9 -11    5.30    2.80
   3  -9 -11    6.10    2.10
   2  -9 -11    0.30    2.10
   2  -9 -11    0.50    0.80
   2  -9 -11    0.90    1.70
   1  -9 -11   18.00    1.60
   1  -9 -11   18.00    3.70
   1  -9 -11   23.80    3.10
   0  -9 -11   -0.60    0.70
   0  -9 -11   -0.70    2.10
  -1  -9 -11    2.10    2.30
 -10  10  11   -2.00    1.30
  -9  10  11   -0.30    2.30
   8 -10 -11    0.60    1.00
  -8  10  11    1.50    2.90
   7 -10 -11   38.40    2.90
  -7  10  11   29.30    4.40
   6 -10 -11   22.80    4.40
   6 -10 -11   26.30    2.70
  -6  10  11   22.90    4.00
   5 -10 -11   10.50    3.40
   5 -10 -11   11.00    1.80
   5 -10 -11   11.00    1.50
  -5  10  11    6.70    3.10
   4 -10 -11   19.60    1.80
   4 -10 -11   19.40    2.90
   4 -10 -11   20.20    4.20
   3 -10 -11    1.80    2.50
   3 -10 -11    0.50    1.00
   3 -10 -11    2.60    2.00
   2 -10 -11   10.40    1.40
   2 -10 -11   12.20    2.40
   2 -10 -11   12.50    3.50
   1 -10 -11   45.10    6.10
   0 -10 -11   61.19    6.90
  -1 -10 -11    6.20    3.00
  -9  11  11   -4.20    1.60
   8 -11 -11    1.00    0.90
  -8  11  11    1.10    2.40
   7 -11 -11   14.30    1.80
  -7  11  11    8.80    2.90
   6 -11 -11   10.30    1.70
   6 -11 -11    6.90    2.90
  -6  11  11    6.50    2.90
   5 -11 -11    5.60    2.90
   5 -11 -11    2.60    1.40
  -5  11  11    2.40    2.60
   4 -11 -11    2.80    2.70
  -4  11  11   -1.90    2.30
   3 -11 -11    0.30    2.50
   2 -11 -11    4.20    2.80
   1 -11 -11    2.90    2.70
   0 -11 -11   -0.10    2.60
   8 -12 -11    2.70    0.90
  -8  12  11    0.40    1.60
   7 -12 -11    2.00    1.20
  -7  12  11    1.60    2.00
   6 -12 -11    2.70    2.80
   6 -12 -11    4.10    1.40
  -6  12  11    3.50    2.20
   5 -12 -11   15.30    1.80
   5 -12 -11   16.00    3.70
  -5  12  11   11.10    2.60
   4 -12 -11    4.40    3.00
   4 -12 -11    6.40    1.60
   3 -12 -11    4.40    3.00
   2 -12 -11    0.60    2.50
   1 -12 -11    8.30    3.10
  -3  14 -12    8.10    2.00
  -4  14 -12    5.60    2.00
  -5  14 -12    6.50    2.00
   0  13 -12    6.50    1.70
  -1  13 -12    1.40    1.60
   1 -13  12    2.80    1.00
  -2  13 -12    4.10    2.10
   2 -13  12    7.00    1.40
  -3  13 -12   -1.90    1.60
   3 -13  12    1.00    1.00
  -4  13 -12    0.00    1.90
   4 -13  12    1.10    1.00
  -5  13 -12    0.10    2.00
   5 -13  12    1.40    0.90
  -6  13 -12    4.70    2.40
   6 -13  12    4.40    1.10
   7 -13  12    2.10    1.30
   1  12 -12   13.40    2.60
  -1 -12  12    2.40    1.10
   0  12 -12   16.60    3.10
   0 -12  12   18.90    2.20
  -1  12 -12   29.80    4.50
   1 -12  12   31.40    2.70
  -2  12 -12   83.99    7.00
   2 -12  12   85.79    4.60
  -3  12 -12    0.80    2.00
   3 -12  12    4.90    1.40
  -4  12 -12   -1.80    1.80
   4 -12  12    1.20    1.10
  -5  12 -12    8.20    2.80
   5 -12  12   11.10    1.80
  -6  12 -12   13.40    3.00
   6 -12  12   12.20    1.80
   7 -12  12   43.10    2.80
   8 -12  12    3.60    1.00
  -3 -11  12    3.60    1.00
  -2 -11  12    0.40    1.10
   1  11 -12    2.60    2.00
  -1 -11  12    2.30    1.30
   0  11 -12   26.10    4.80
   0 -11  12   26.90    2.80
  -1  11 -12   13.90    3.40
   1 -11  12   20.80    2.40
  -2  11 -12    6.00    2.90
   2 -11  12   10.90    1.80
  -3  11 -12    9.60    3.20
   3 -11  12   13.70    2.00
  -4  11 -12   11.90    3.30
   4 -11  12   13.70    2.00
  -5  11 -12   -1.20    2.00
   5 -11  12    0.60    1.10
  -6  11 -12    5.10    2.50
   6 -11  12    3.40    1.30
   7 -11  12   16.40    2.00
   8 -11  12    5.20    1.30
  -9  11 -12    2.80    1.20
   9 -11  12    0.10    0.80
  -4 -10  12   30.90    2.60
  -3 -10  12   84.49    3.60
  -3 -10  12   82.29    4.60
  -2 -10  12    2.50    0.80
  -2 -10  12    2.50    1.40
   1  10 -12    6.10    2.70
  -1 -10  12    5.90    1.40
  -1 -10  12    4.10    1.70
   0  10 -12   -0.40    2.20
   0 -10  12   -0.30    1.30
  -1  10 -12   25.30    5.30
   1 -10  12   29.30    2.90
  -2  10 -12   18.80    4.00
   2 -10  12   24.80    2.60
  -3  10 -12   29.20    5.60
   3 -10  12   41.10    3.20
  -4  10 -12   17.10    3.70
   4 -10  12   17.80    2.20
  -5  10 -12   22.30    4.10
   5 -10  12   28.70    2.60
   6 -10  12   28.90    2.70
   7 -10  12   38.40    2.90
  -8  10 -12    2.00    1.40
   8 -10  12    2.10    1.10
  -9  10 -12    1.90    1.40
   9 -10  12    2.50    1.00
 -10  10 -12    1.60    1.10
  10 -10  12    3.70    1.00
  -5  -9  12    1.80    1.20
  -4  -9  12    0.90    1.20
  -4  -9  12    0.80    0.80
  -3  -9  12   54.39    3.90
  -3  -9  12   53.49    2.90
   2   9 -12   46.60    5.20
  -2  -9  12   38.00    2.60
  -2  -9  12   38.60    3.50
   1   9 -12   26.10    5.00
  -1  -9  12   23.00    2.00
  -1  -9  12   15.80    2.40
   0   9 -12   18.60    4.00
   0  -9  12   18.80    2.50
  -1   9 -12   35.30    5.60
   1  -9  12   33.90    3.10
  -2   9 -12   -1.40    2.00
   2  -9  12    0.30    1.10
  -3   9 -12   46.20    6.10
   3  -9  12   59.59    3.70
  -4   9 -12    2.50    2.20
   4  -9  12    2.60    1.20
  -5   9 -12   18.20    3.70
   5  -9  12   16.70    2.20
   6  -9  12   47.40    3.30
  -7   9 -12    7.60    2.60
   7  -9  12   10.10    1.70
  -8   9 -12   44.60    3.80
   8  -9  12   39.20    3.00
  -9   9 -12    4.10    1.60
   9  -9  12    7.60    1.40
 -10   9 -12    0.80    1.30
  10  -9  12    1.50    0.90
  -6  -8  12   -0.90    1.00
  -5  -8  12    5.80    1.60
  -5  -8  12    6.60    1.00
  -4  -8  12   11.50    2.20
  -4  -8  12   12.20    1.50
  -3  -8  12   45.50    2.80
  -3  -8  12   40.70    3.60
   2   8 -12   26.60    4.60
  -2  -8  12    8.60    1.40
  -2  -8  12    7.80    1.90
   1   8 -12   28.70    5.20
  -1  -8  12   25.10    2.00
  -1  -8  12   17.00    2.40
   0   8 -12    1.10    2.50
   0  -8  12    0.60    1.20
  -1   8 -12   18.70    3.80
   1  -8  12   21.60    2.50
  -2   8 -12    6.10    2.60
   2  -8  12    7.60    1.50
  -3   8 -12    6.80    2.50
   3  -8  12    7.50    1.50
  -4   8 -12   -0.20    1.70
   4  -8  12    0.70    1.00
  -5   8 -12    9.40    2.80
   5  -8  12    6.70    1.50
  -6   8 -12   47.70    4.00
   6  -8  12   46.80    3.40
  -7   8 -12    6.00    2.00
   7  -8  12    7.10    1.60
  -8   8 -12   23.00    3.00
   8  -8  12   20.00    2.30
  -9   8 -12   -1.30    1.40
   9  -8  12   -1.20    0.90
 -10   8 -12    6.80    1.70
  10  -8  12    7.50    1.40
  -7  -7  12    1.50    1.20
  -6  -7  12   17.10    2.30
  -6  -7  12   20.80    1.90
  -5  -7  12    4.10    1.60
  -5  -7  12    4.80    1.10
  -4  -7  12   44.40    3.80
  -4  -7  12   45.30    2.90
  -3  -7  12   25.30    2.20
  -3  -7  12   18.50    2.60
   1   7 -12   14.00    3.60
  -1  -7  12    6.70    1.60
  -1  -7  12   13.60    1.60
   0   7 -12  113.69    8.20
   0  -7  12   97.89    5.40
  -1   7 -12   88.49    7.30
   1  -7  12   77.69    4.40
  -2   7 -12   42.30    5.20
   2  -7  12   38.90    2.90
  -3   7 -12   11.40    2.90
   3  -7  12   11.50    1.70
  -4   7 -12   21.50    4.30
   4  -7  12   20.70    2.30
  -5   7 -12   52.89    5.80
  -5   7 -12   52.49    4.20
   5  -7  12   53.89    3.50
  -6   7 -12   99.69    6.00
   6  -7  12  101.39    5.20
  -7   7 -12    1.40    1.70
   7  -7  12    0.90    1.10
  -8   7 -12    0.60    1.60
   8  -7  12    1.60    1.20
  -9   7 -12    1.80    1.60
  -9   7 -12    5.60    1.40
   9  -7  12    3.50    1.30
 -10   7 -12    1.50    1.10
 -10   7 -12    1.70    1.60
  10  -7  12    1.90    1.00
  -7  -6  12    0.10    1.10
  -6  -6  12   32.30    2.30
  -6  -6  12   24.20    2.90
  -5  -6  12    3.80    1.10
  -5  -6  12    3.40    1.60
  -4  -6  12   21.00    2.70
  -4  -6  12   22.00    2.30
  -3  -6  12    0.30    1.20
  -3  -6  12    2.10    0.90
   1   6 -12   36.30    4.70
   0   6 -12   20.10    4.00
   0  -6  12    8.80    1.50
  -1   6 -12    5.60    2.30
   1  -6  12    4.50    1.20
  -2   6 -12    2.90    1.70
   2  -6  12    0.80    0.90
  -3   6 -12   18.10    3.70
   3  -6  12   17.30    2.00
  -4   6 -12    4.00    1.50
  -4   6 -12    2.70    1.80
  -4   6 -12    2.50    0.90
   4  -6  12    1.10    1.00
  -5   6 -12   22.70    2.90
  -5   6 -12   20.70    1.90
   5  -6  12   22.40    2.30
  -6   6 -12    0.80    1.00
  -6   6 -12    1.00    1.20
  -6   6 -12    3.70    1.80
   6  -6  12    2.10    1.20
  -7   6 -12    6.80    1.60
  -7   6 -12    8.80    1.40
  -7   6 -12    9.90    2.30
  -7   6 -12    9.70    2.30
  -8   6 -12    0.00    1.70
  -8   6 -12   -0.50    1.50
  -8   6 -12   -1.20    1.20
  -8   6 -12    0.60    0.90
  -9   6 -12    1.00    1.20
  -9   6 -12   -0.20    1.40
  -9   6 -12    2.20    1.80
 -10   6 -12    0.30    1.30
 -10   6 -12   -0.40    1.10
 -11   6 -12    0.40    0.80
  -7  -5  12    0.90    1.30
  -6  -5  12    9.60    1.50
  -6  -5  12    6.30    1.80
  -5  -5  12  119.69    6.30
  -5  -5  12  114.89    5.30
  -4  -5  12  225.28    9.00
  -4  -5  12  224.18   10.00
  -3  -5  12    5.10    1.10
  -3  -5  12    3.70    1.40
   0  -5  12  181.68    7.80
   1  -5  12  365.16   14.30
  -2   5 -12   92.89    4.10
   2  -5  12   88.69    4.50
  -3   5 -12   75.89    3.90
  -3   5 -12   59.99    5.70
  -3   5 -12   54.89    3.10
   3  -5  12   56.69    3.50
  -4   5 -12  135.89    6.00
  -4   5 -12  141.69    5.80
  -4   5 -12  133.79    8.60
  -4   5 -12  139.49    6.90
   4  -5  12  120.89    5.70
   4  -5  12  135.59    6.20
  -5   5 -12  152.08    6.20
  -5   5 -12  137.89    6.40
  -5   5 -12  141.99    7.30
  -5   5 -12  141.49    7.40
  -6   5 -12   15.90    2.60
  -6   5 -12   11.40    2.30
  -6   5 -12   11.80    1.80
  -6   5 -12   14.10    1.60
  -7   5 -12    3.70    1.40
  -7   5 -12    5.10    2.10
  -7   5 -12    3.20    1.80
  -7   5 -12    2.60    1.10
  -8   5 -12    4.50    1.40
  -8   5 -12    2.60    1.70
  -8   5 -12    3.90    2.00
  -8   5 -12    3.90    1.10
  -9   5 -12   16.40    2.60
  -9   5 -12   18.60    2.10
  -9   5 -12   15.80    2.70
 -10   5 -12   73.39    4.50
 -10   5 -12   74.89    3.90
 -10   5 -12   71.19    4.50
 -11   5 -12    4.80    1.00
  -6  -4  12   10.20    2.00
  -6  -4  12   10.20    1.50
  -5  -4  12    8.30    1.30
  -5  -4  12    7.50    1.80
  -4  -4  12   -1.30    0.90
  -4  -4  12    0.20    1.00
  -4  -4  12    2.90    0.90
  -3  -4  12    0.60    0.80
  -3  -4  12    0.70    1.10
  -2  -4  12   19.50    2.00
  -1  -4  12    8.70    1.50
  -1   4 -12   22.70    1.60
   1  -4  12   21.50    1.60
  -2   4 -12   20.80    1.60
  -2   4 -12   16.00    2.10
   2  -4  12   20.10    1.90
   2  -4  12   20.70    2.30
   2  -4  12   19.10    1.50
  -3   4 -12    6.60    1.10
  -3   4 -12    7.10    1.30
  -3   4 -12    8.00    1.60
   3  -4  12    7.90    1.40
   3  -4  12    6.70    1.10
  -4   4 -12    2.60    1.40
  -4   4 -12    1.60    0.80
  -4   4 -12    1.70    1.70
  -4   4 -12   -0.10    1.20
   4  -4  12    1.40    0.70
  -5   4 -12    0.90    1.40
  -5   4 -12    3.80    1.00
  -5   4 -12    2.80    1.30
  -5   4 -12    3.50    1.60
  -6   4 -12   18.30    2.00
  -6   4 -12   14.00    2.50
  -6   4 -12   15.80    1.70
  -6   4 -12   16.20    2.60
  -7   4 -12    0.60    1.60
  -7   4 -12    2.30    1.40
  -7   4 -12    3.00    1.80
  -7   4 -12    1.80    1.00
  -8   4 -12    0.80    1.00
  -8   4 -12   -0.60    1.30
  -8   4 -12    1.10    1.80
  -8   4 -12   -0.30    1.70
  -9   4 -12    2.70    1.70
  -9   4 -12    3.40    2.00
  -9   4 -12    1.20    1.30
 -10   4 -12   12.00    2.20
 -10   4 -12   13.60    1.70
 -10   4 -12   10.40    1.90
  -8  -3  12    1.30    1.00
  -7  -3  12    0.80    1.00
  -6  -3  12    1.50    1.10
  -5  -3  12   51.79    3.10
  -5  -3  12   52.09    3.30
  -4  -3  12    2.00    0.90
  -4  -3  12    1.50    0.90
  -3  -3  12   15.90    1.80
  -2  -3  12    1.40    0.80
   1   3 -12   19.50    3.10
  -1  -3  12   17.80    1.50
   0   3 -12   92.09    4.00
   0   3 -12   90.59    6.10
   0  -3  12   92.19    4.10
  -1   3 -12   32.00    2.40
  -1   3 -12   34.20    3.70
  -1   3 -12   28.40    1.90
  -1   3 -12   28.50    2.20
   1  -3  12   26.60    2.00
   1  -3  12   30.20    1.90
  -2   3 -12   76.09    3.40
  -2   3 -12   70.59    3.70
  -2   3 -12   67.49    4.00
   2  -3  12   71.39    3.40
   2  -3  12   65.59    3.40
  -3   3 -12    2.40    1.30
  -3   3 -12    2.20    1.30
  -3   3 -12    3.80    0.90
  -3   3 -12    4.60    1.30
   3  -3  12    4.10    0.90
  -4   3 -12   58.19    3.60
  -4   3 -12   64.39    3.20
  -4   3 -12   63.19    4.20
  -4   3 -12   68.49    4.40
   4  -3  12   62.19    3.20
  -5   3 -12   10.20    2.10
  -5   3 -12   16.60    2.50
  -5   3 -12   11.40    1.40
  -5   3 -12   14.20    1.90
  -6   3 -12    7.90    1.60
  -6   3 -12    8.90    2.10
  -6   3 -12    6.70    2.00
  -6   3 -12    7.40    1.20
  -7   3 -12   37.00    3.20
  -7   3 -12   48.70    2.70
  -7   3 -12   43.80    4.20
  -7   3 -12   36.30    3.80
  -8   3 -12   27.70    2.30
  -8   3 -12   28.60    3.50
  -8   3 -12   33.50    3.10
  -8   3 -12   34.50    3.60
  -9   3 -12   59.39    4.50
  -9   3 -12   64.59    4.50
  -9   3 -12   73.09    4.00
 -10   3 -12    0.80    1.50
 -10   3 -12    1.60    1.10
 -10  -2  12    1.90    0.80
  -9  -2  12   -0.60    0.90
  -8  -2  12    4.50    1.20
  -7  -2  12   16.10    1.90
  -6  -2  12    9.30    1.60
  -5  -2  12    4.20    1.20
  -4  -2  12    2.70    1.00
  -4  -2  12    2.50    1.00
  -3  -2  12    2.80    0.90
   2   2 -12   35.10    3.60
  -2  -2  12   34.90    2.20
   1   2 -12    9.40    1.10
   1   2 -12   10.80    2.40
  -1  -2  12   11.30    1.20
   0   2 -12    1.30    0.80
   0   2 -12    2.20    1.40
   0   2 -12    2.10    0.80
   0   2 -12    2.00    0.70
   0  -2  12    3.20    0.80
   0  -2  12    3.10    0.80
  -1   2 -12   18.70    1.70
  -1   2 -12   19.70    2.00
  -1   2 -12   23.30    3.10
  -1   2 -12   21.20    1.60
   1  -2  12   24.90    1.70
   1  -2  12   21.20    1.60
  -2   2 -12    1.70    0.90
  -2   2 -12    0.00    1.20
  -2   2 -12    1.10    0.70
  -2   2 -12    0.60    0.60
   2  -2  12    1.50    0.60
   2  -2  12    0.70    0.60
  -3   2 -12   14.30    1.40
  -3   2 -12   11.70    1.90
   3  -2  12   13.50    1.50
  -4   2 -12   23.00    2.20
  -4   2 -12   21.00    2.80
  -4   2 -12   22.60    1.70
  -4   2 -12   23.20    2.60
   4  -2  12   21.00    1.70
  -5   2 -12   26.40    1.90
  -5   2 -12   21.00    2.80
  -5   2 -12   26.20    2.90
  -5   2 -12   22.30    2.30
  -6   2 -12    6.90    1.90
  -6   2 -12    7.00    1.10
  -6   2 -12    6.90    1.60
  -6   2 -12    8.60    2.10
  -7   2 -12   14.60    2.50
  -7   2 -12   17.20    2.70
  -7   2 -12   15.00    1.60
  -7   2 -12   15.60    2.20
  -8   2 -12   32.60    2.30
  -8   2 -12   32.40    3.50
  -8   2 -12   29.30    3.60
  -8   2 -12   38.30    3.10
  -9   2 -12   81.99    5.00
  -9   2 -12   75.79    4.80
  -9   2 -12   81.89    4.30
 -10   2 -12   14.90    1.70
 -10   2 -12   14.20    2.10
 -10  -1  12   15.80    1.60
  -9  -1  12    0.60    1.10
  -8  -1  12    9.40    1.60
  -7  -1  12   12.50    1.80
  -6  -1  12   24.30    2.40
   5   1 -12    1.00    0.80
  -5  -1  12    1.40    0.90
  -5  -1  12    1.70    1.00
   4   1 -12   34.10    2.30
  -4  -1  12   32.00    2.30
  -4  -1  12   32.60    2.30
   3   1 -12   85.89    5.70
  -3  -1  12   87.09    4.10
   2   1 -12   64.19    3.00
   2   1 -12   64.99    4.80
  -2  -1  12   64.89    3.30
   1   1 -12  135.29    7.50
   1   1 -12  122.09    5.50
   1   1 -12  122.49    5.10
  -1  -1  12  133.49    5.40
  -1  -1  12  121.29    5.60
  -1  -1  12  123.59    5.40
   0   1 -12   69.39    5.20
   0   1 -12   71.19    3.50
   0   1 -12   70.49    3.20
   0  -1  12   74.69    3.50
   0  -1  12   68.19    3.40
  -1   1 -12    6.10    1.00
  -1   1 -12    5.60    1.90
  -1   1 -12    4.90    1.20
  -1   1 -12    5.70    0.90
   1  -1  12    6.30    1.00
   1  -1  12    6.40    1.00
  -2   1 -12    1.30    0.60
  -2   1 -12    1.30    1.90
  -2   1 -12    0.60    1.10
  -2   1 -12    0.60    0.60
   2  -1  12    1.10    0.70
   2  -1  12    0.50    0.50
  -3   1 -12    2.60    1.30
  -3   1 -12    2.20    0.70
   3  -1  12    1.70    0.80
  -4   1 -12    4.50    0.90
  -4   1 -12    2.50    1.20
  -4   1 -12    6.30    1.70
   4  -1  12    3.00    0.90
  -5   1 -12   18.60    2.60
  -5   1 -12   17.40    1.60
  -5   1 -12   19.30    2.10
  -5   1 -12   20.80    2.60
  -6   1 -12    0.50    0.80
  -6   1 -12   -1.80    1.10
  -6   1 -12   -0.30    1.40
  -6   1 -12    2.80    1.50
  -7   1 -12   -0.30    1.50
  -7   1 -12   -0.10    0.90
  -7   1 -12    1.60    1.60
  -7   1 -12   -0.50    1.20
  -8   1 -12    3.50    1.40
  -8   1 -12    2.40    0.90
  -8   1 -12    2.50    1.60
  -8   1 -12    2.80    1.70
  -9   1 -12    4.30    1.40
  -9   1 -12    5.60    1.70
 -10   1 -12    1.60    0.90
 -11   0  12   32.90    2.00
 -10   0  12   29.10    2.30
  -9   0  12    8.50    1.50
  -8   0  12   14.10    1.80
  -7   0  12   40.00    3.00
  -6   0  12    4.50    1.30
   5   0 -12    5.80    1.10
   5   0 -12    9.90    1.20
  -5   0  12    5.70    1.30
  -5   0  12    3.80    1.20
   4   0 -12   12.60    1.50
  -4   0  12   12.90    1.90
  -4   0  12   15.10    1.70
   3   0 -12   71.89    5.10
   3   0 -12   68.09    3.40
  -3   0  12   75.69    3.60
   2   0 -12  200.68    9.90
   2   0 -12  182.88    7.90
   2   0 -12  201.38    7.60
  -2   0  12  186.38    7.80
  -2   0  12  200.08    7.90
   1   0 -12  120.49    5.20
   1   0 -12  109.39    6.90
   1   0 -12  122.59    4.90
  -1   0  12  117.09    5.40
  -1   0  12  115.59    5.10
  -1   0  12  122.99    5.20
   0   0 -12   54.99    2.60
   0   0 -12   52.09    2.80
   0   0 -12   49.00    4.30
   0   0 -12   50.29    3.20
   0   0  12   53.09    2.70
   0   0  12   52.49    2.80
   0   0  12   50.19    3.10
  -1   0 -12    3.90    1.50
  -1   0 -12    4.50    0.80
  -1   0 -12    3.50    0.70
  -1   0 -12    4.70    1.20
   1   0  12    3.10    0.80
   1   0  12    4.90    0.80
  -2   0 -12   22.20    2.50
  -2   0 -12   24.80    1.50
  -2   0 -12   22.00    2.40
   2   0  12   20.90    1.80
  -3   0 -12   82.49    4.30
  -3   0 -12   87.19    3.70
  -3   0 -12   88.59    5.00
   3   0  12   81.79    4.10
  -4   0 -12   31.30    2.60
  -4   0 -12   30.50    1.80
  -4   0 -12   27.70    3.00
   4   0  12   27.80    2.20
  -5   0 -12   29.90    1.90
  -5   0 -12   29.50    2.60
  -5   0 -12   33.00    3.30
  -6   0 -12   77.19    5.30
  -6   0 -12   78.29    3.60
  -6   0 -12   84.19    4.50
  -7   0 -12    0.60    0.80
  -7   0 -12    1.60    1.60
  -7   0 -12    0.60    1.50
  -7   0 -12    2.00    1.40
  -8   0 -12   37.80    2.90
  -8   0 -12   36.30    3.30
  -9   0 -12    2.40    1.50
  -9   0 -12    2.60    1.20
 -11   1  12   20.50    1.70
 -10   1  12    1.80    1.10
  -9   1  12    2.50    1.30
  -8   1  12   11.50    1.90
  -7   1  12   94.59    4.90
  -6   1  12   50.19    3.20
   5  -1 -12   13.60    1.60
  -5   1  12   11.90    1.60
  -5   1  12   14.40    1.70
   4  -1 -12   24.80    2.00
  -4   1  12   22.80    2.00
   3  -1 -12   60.49    4.70
   3  -1 -12   60.59    2.90
  -3   1  12   65.49    3.30
   2  -1 -12    3.90    0.90
   2  -1 -12    4.10    0.70
   2  -1 -12    4.20    1.70
  -2   1  12    3.90    0.80
  -2   1  12    5.00    1.10
  -2   1  12    3.10    0.90
   1  -1 -12   17.90    2.80
   1  -1 -12   18.00    1.60
   1  -1 -12   19.50    1.40
  -1   1  12   18.60    1.50
  -1   1  12   19.80    1.60
  -1   1  12   16.60    1.80
   0  -1 -12    5.20    0.80
   0  -1 -12    3.80    1.70
   0  -1 -12    5.80    0.90
   0   1  12    4.80    0.80
   0   1  12    4.70    1.10
   0   1  12    7.80    1.20
  -1  -1 -12   87.39    3.70
  -1  -1 -12   87.99    4.80
  -1  -1 -12   85.59    3.90
   1   1  12   88.19    3.90
   1   1  12   82.99    4.00
  -2  -1 -12    8.30    1.70
  -2  -1 -12    8.60    0.90
   2   1  12   10.20    1.30
  -3  -1 -12    2.40    0.70
  -3  -1 -12    3.00    1.90
  -3  -1 -12    3.00    1.40
  -3  -1 -12    3.30    1.20
   3   1  12    3.00    0.90
  -4  -1 -12   -0.10    1.30
  -4  -1 -12    2.60    0.70
  -4  -1 -12    1.10    1.30
  -5  -1 -12   47.20    3.90
  -5  -1 -12   48.20    3.20
  -5  -1 -12   40.10    2.60
  -6  -1 -12   22.00    2.80
  -6  -1 -12   25.90    2.60
  -7  -1 -12    0.60    1.20
  -8  -1 -12    0.30    1.20
  -9  -1 -12    1.30    1.00
 -11   2  12    1.50    1.00
 -10   2  12    4.00    1.30
  -9   2  12   11.90    1.80
  -8   2  12    1.80    1.30
  -7   2  12   47.20    3.30
   6  -2 -12   69.19    3.40
  -6   2  12   66.29    3.80
   5  -2 -12    7.90    1.30
  -5   2  12    5.30    1.30
  -5   2  12    5.10    1.20
   4  -2 -12   41.60    2.60
   4  -2 -12   39.40    2.20
  -4   2  12   40.50    2.60
   3  -2 -12    4.70    1.00
   3  -2 -12    4.90    1.10
   3  -2 -12    6.80    0.90
  -3   2  12    5.60    1.30
  -3   2  12    5.70    1.10
  -3   2  12    5.40    1.10
   2  -2 -12   20.20    2.30
   2  -2 -12   19.40    1.50
   2  -2 -12   19.70    1.70
  -2   2  12   18.90    1.60
  -2   2  12   20.50    1.80
  -2   2  12   20.10    2.00
   1  -2 -12    5.20    1.30
   1  -2 -12    6.00    0.90
   1  -2 -12    6.00    1.00
  -1   2  12    5.30    0.90
  -1   2  12    6.90    1.10
   0  -2 -12    5.80    0.80
   0  -2 -12    4.70    0.80
   0  -2 -12    5.80    1.40
   0   2  12    5.00    1.30
   0   2  12    6.80    1.10
  -1  -2 -12    2.00    0.60
  -1  -2 -12    2.10    1.20
  -2  -2 -12  161.68    7.00
  -2  -2 -12  166.78    9.80
  -2  -2 -12  160.48    6.30
  -2  -2 -12  158.78    7.70
   2   2  12  164.48    6.80
  -3  -2 -12  293.87   11.70
  -3  -2 -12  288.37   16.10
  -3  -2 -12  304.57   12.60
   3   2  12  278.47   13.00
  -4  -2 -12    1.30    1.50
  -4  -2 -12    0.60    1.20
  -5  -2 -12    4.60    1.50
  -6  -2 -12   21.60    2.30
  -7  -2 -12   88.29    4.50
 -11   3  12    2.90    1.10
 -10   3  12    0.30    1.10
  -9   3  12    8.60    1.60
  -8   3  12   39.20    3.00
   7  -3 -12    1.30    1.00
  -7   3  12    1.90    1.20
   6  -3 -12   11.70    1.50
  -6   3  12   10.20    1.60
   5  -3 -12    0.50    0.70
  -5   3  12   -0.20    0.80
  -5   3  12    1.10    0.90
   4  -3 -12    5.90    1.30
   4  -3 -12    4.70    0.90
   4  -3 -12    4.90    1.00
  -4   3  12    5.70    1.20
  -4   3  12    4.30    1.10
   3  -3 -12    4.20    1.00
   3  -3 -12    5.80    0.90
   3  -3 -12    6.50    1.40
  -3   3  12    7.60    1.20
   2  -3 -12    4.30    1.40
   2  -3 -12    5.00    0.80
  -2   3  12    3.70    1.00
   1  -3 -12    4.30    0.80
   1  -3 -12    5.50    1.50
  -1   3  12    4.80    1.00
   0  -3 -12    5.60    1.50
   0  -3 -12    3.30    0.70
   0   3  12    4.40    1.00
  -1  -3 -12   -0.40    1.10
  -1  -3 -12    1.10    1.60
  -1  -3 -12    0.30    0.50
  -1  -3 -12    0.20    1.20
   1   3  12    0.50    0.70
  -2  -3 -12    0.30    1.10
  -2  -3 -12    0.20    1.20
  -2  -3 -12    1.70    1.70
   2   3  12    0.50    0.80
  -3  -3 -12   31.10    2.80
  -3  -3 -12   26.50    3.10
  -4  -3 -12   28.20    3.10
 -11   4  12    1.70    1.00
 -10   4  12    6.60    1.40
  -9   4  12   11.50    1.70
  -8   4  12    2.00    1.10
   7  -4 -12   41.50    2.60
  -7   4  12   43.30    3.00
   6  -4 -12   21.70    2.10
  -6   4  12   22.00    2.20
   5  -4 -12    6.90    1.70
   5  -4 -12   10.70    1.50
  -5   4  12    8.10    1.30
   4  -4 -12   59.09    3.80
   4  -4 -12   57.29    3.30
   4  -4 -12   56.49    2.80
  -4   4  12   55.69    3.20
  -4   4  12   55.59    3.10
   3  -4 -12   75.89    3.40
   3  -4 -12   70.89    4.40
   3  -4 -12   71.99    3.80
  -3   4  12   73.39    3.80
   2  -4 -12   34.00    3.10
   2  -4 -12   34.90    5.00
   2  -4 -12   38.20    2.10
  -2   4  12   37.40    2.40
   1  -4 -12   37.10    5.00
   1  -4 -12   37.80    2.00
   1  -4 -12   37.90    3.20
  -1   4  12   38.60    2.40
   0  -4 -12   74.89    3.20
   0  -4 -12   73.59    6.40
   0  -4 -12   74.79    4.50
   0   4  12   74.99    3.70
  -1  -4 -12    9.60    1.90
  -1  -4 -12    9.50    2.60
  -1  -4 -12   10.00    1.00
   1   4  12   10.60    1.40
  -2  -4 -12   55.99    4.00
  -2  -4 -12   57.39    5.90
  -3  -4 -12   22.20    2.70
 -11   5  12    1.90    0.90
 -10   5  12   15.40    1.70
  -9   5  12    5.20    1.30
  -8   5  12    0.10    1.00
   7  -5 -12    3.50    1.20
  -7   5  12    9.80    5.00
  -7   5  12    6.40    1.40
   6  -5 -12   -1.30    1.30
   6  -5 -12    0.70    0.90
  -6   5  12    0.20    1.00
   5  -5 -12   12.50    2.20
   5  -5 -12   14.80    1.50
   4  -5 -12    0.70    0.60
   4  -5 -12    1.20    1.10
   4  -5 -12    1.00    1.40
   3  -5 -12    3.10    1.10
   3  -5 -12    6.10    2.60
   3  -5 -12    5.50    1.70
   3  -5 -12    6.00    0.90
  -3   5  12    3.60    1.00
   2  -5 -12   -0.80    1.60
   2  -5 -12   -0.80    1.10
   2  -5 -12    0.30    0.60
  -2   5  12   -0.10    0.80
   1  -5 -12    1.90    1.90
   1  -5 -12    2.70    0.70
   1  -5 -12    3.30    1.40
  -1   5  12    2.50    1.50
   0  -5 -12   11.50    2.00
   0  -5 -12   13.80    1.20
   0  -5 -12   10.40    2.80
  -1  -5 -12    1.80    1.80
  -1  -5 -12    0.10    1.20
  -1  -5 -12    1.50    0.50
  -2  -5 -12    1.20    1.30
  -2  -5 -12    0.90    1.80
  -3  -5 -12    2.50    1.50
   8  -6 -12   62.49    3.10
   7  -6 -12   59.89    3.60
  -7   6  12   76.39    7.40
   6  -6 -12    1.00    1.10
   6  -6 -12   -1.20    1.40
   5  -6 -12   19.80    1.80
   5  -6 -12   17.40    2.20
   5  -6 -12   17.60    2.60
   4  -6 -12   97.79    5.60
   4  -6 -12   94.39    8.40
   4  -6 -12  103.19    4.40
   3  -6 -12   24.10    1.80
   3  -6 -12   18.30    2.50
   3  -6 -12   24.50    4.60
   2  -6 -12   55.09    2.70
   2  -6 -12   48.40    3.70
   2  -6 -12   53.19    6.20
   1  -6 -12   42.70    2.20
   1  -6 -12   41.90    3.50
   1  -6 -12   40.20    5.40
   0  -6 -12    1.60    1.30
   0  -6 -12    2.10    1.90
   0  -6 -12    2.60    0.70
  -1  -6 -12    2.00    1.80
  -1  -6 -12    5.30    1.70
  -2  -6 -12    5.30    2.40
  -2  -6 -12    5.60    1.70
   8  -7 -12   57.69    3.10
  -8   7  12   59.99    8.00
   7  -7 -12    1.10    1.20
  -7   7  12    6.40    3.80
   6  -7 -12    0.40    1.10
   6  -7 -12   -0.10    1.70
   5  -7 -12   18.10    2.90
   5  -7 -12   25.30    4.50
   5  -7 -12   17.70    2.10
   5  -7 -12   18.50    1.80
   4  -7 -12    0.80    0.80
   4  -7 -12    1.60    1.70
   4  -7 -12   -0.50    2.10
   3  -7 -12   26.70    5.20
   3  -7 -12   31.00    2.00
   3  -7 -12   27.20    3.00
   2  -7 -12   39.50    3.50
   2  -7 -12   41.40    5.50
   2  -7 -12   40.40    2.30
   1  -7 -12    2.40    1.40
   1  -7 -12    1.40    1.80
   1  -7 -12    1.80    0.70
   0  -7 -12   26.90    3.00
   0  -7 -12   32.60    4.80
   0  -7 -12   29.30    1.80
  -1  -7 -12  102.59    8.00
  -1  -7 -12  102.19    5.60
  -2  -7 -12   29.40    5.00
  -9   8  12   14.20    3.30
   8  -8 -12   49.20    2.90
  -8   8  12   53.89    6.90
   7  -8 -12   20.80    2.40
  -7   8  12   25.50    4.70
   6  -8 -12    1.40    1.30
   6  -8 -12    2.80    2.10
   5  -8 -12   40.60    3.20
   5  -8 -12   42.30    2.70
   5  -8 -12   48.90    6.00
   5  -8 -12   46.60    4.40
   4  -8 -12   17.00    1.60
   4  -8 -12   11.80    2.40
   4  -8 -12   14.80    3.70
   3  -8 -12    2.30    1.70
   3  -8 -12    2.80    1.00
   3  -8 -12    2.00    2.30
   2  -8 -12    1.30    2.20
   2  -8 -12    3.00    0.90
   2  -8 -12    4.00    1.80
   1  -8 -12   34.40    3.30
   1  -8 -12   33.10    2.10
   1  -8 -12   37.70    5.30
   0  -8 -12   29.30    3.20
   0  -8 -12   33.70    5.10
   0  -8 -12   30.20    1.90
  -1  -8 -12   16.70    3.50
  -9   9  12   20.20    3.20
   8  -9 -12   78.79    3.80
  -8   9  12   88.89    7.40
   7  -9 -12  100.59    4.90
  -7   9  12  112.19    8.10
   6  -9 -12    1.10    1.30
  -6   9  12   -2.10    3.10
   5  -9 -12    9.60    1.40
   5  -9 -12    9.30    1.80
   5  -9 -12    9.20    3.00
   5  -9 -12   11.70    2.60
   4  -9 -12    1.70    1.00
   4  -9 -12    1.00    2.20
   4  -9 -12    6.10    2.20
   3  -9 -12    2.10    2.30
   3  -9 -12    2.10    1.00
   3  -9 -12    4.20    2.00
   2  -9 -12    5.50    1.00
   2  -9 -12    4.80    1.90
   2  -9 -12    4.90    2.60
   1  -9 -12    8.00    2.00
   1  -9 -12    8.60    1.10
   1  -9 -12    5.80    2.70
   0  -9 -12    6.10    2.80
  -1  -9 -12   29.50    5.30
  -9  10  12    3.70    2.00
   8 -10 -12    2.20    0.90
  -8  10  12   -1.40    2.70
   7 -10 -12    0.60    1.20
  -7  10  12    2.80    3.20
   6 -10 -12   31.50    2.80
   6 -10 -12   30.00    5.90
  -6  10  12   25.60    4.00
   5 -10 -12    7.70    1.60
   5 -10 -12    5.30    2.80
  -5  10  12    0.00    2.70
   4 -10 -12   12.20    3.40
   4 -10 -12   12.20    2.60
   3 -10 -12   15.30    3.60
   3 -10 -12   17.10    2.70
   2 -10 -12    0.50    1.80
   2 -10 -12    2.70    2.50
   1 -10 -12   17.40    3.80
   0 -10 -12    1.40    2.50
  -1 -10 -12    2.60    2.80
   8 -11 -12    0.90    0.80
  -8  11  12   -1.70    2.00
   7 -11 -12    1.00    1.10
  -7  11  12    4.60    2.60
   6 -11 -12    1.50    1.30
   6 -11 -12    0.40    2.10
  -6  11  12   -0.60    2.40
   5 -11 -12    3.60    1.40
   5 -11 -12    4.20    2.60
  -5  11  12    2.90    2.60
   4 -11 -12   28.40    5.40
   4 -11 -12   21.90    2.70
  -4  11  12   18.30    3.20
   3 -11 -12    6.70    2.90
   2 -11 -12    3.70    2.70
   1 -11 -12   12.20    3.20
   0 -11 -12   39.40    5.50
   7 -12 -12    1.00    1.10
   6 -12 -12    7.90    3.80
   6 -12 -12    9.90    1.50
  -6  12  12   11.40    2.30
   5 -12 -12    0.90    1.20
   5 -12 -12    0.80    2.40
  -5  12  12   -0.70    2.50
   4 -12 -12    1.70    1.30
   4 -12 -12    1.70    2.50
   3 -12 -12    2.70    2.60
  -1  13 -13   16.50    2.90
  -2  13 -13    1.00    1.50
   2 -13  13    1.00    0.90
  -3  13 -13   15.20    2.90
   3 -13  13   17.30    1.90
  -4  13 -13    3.80    2.00
   4 -13  13    3.00    1.00
  -5  13 -13    2.20    1.80
   5 -13  13    2.40    1.00
   6 -13  13    6.30    1.20
  -1 -12  13    7.10    1.40
   0  12 -13    6.90    2.10
   0 -12  13    4.50    1.30
  -1  12 -13    1.80    1.90
   1 -12  13    3.00    1.20
  -2  12 -13    3.70    2.20
   2 -12  13    4.00    1.40
  -3  12 -13   -1.60    1.60
   3 -12  13    0.90    1.00
  -4  12 -13    4.70    2.50
   4 -12  13    6.40    1.40
  -5  12 -13   -0.80    1.80
   5 -12  13    0.80    1.00
   6 -12  13    2.00    1.10
   7 -12  13    2.50    1.00
  -2 -11  13   27.80    2.40
   1  11 -13    4.10    1.90
  -1 -11  13    2.30    1.30
   0  11 -13    3.80    2.20
   0 -11  13    3.30    1.50
  -1  11 -13    0.80    1.90
   1 -11  13    3.10    1.30
  -2  11 -13   49.80    5.80
   2 -11  13   56.99    3.60
  -3  11 -13   26.10    4.70
   3 -11  13   27.60    2.70
  -4  11 -13   54.59    6.00
   4 -11  13   60.99    3.80
  -5  11 -13   12.20    3.20
   5 -11  13   16.20    2.00
   6 -11  13   12.70    1.80
   7 -11  13   29.80    2.40
   8 -11  13    0.70    0.90
  -4 -10  13    0.30    1.20
  -3 -10  13    2.00    1.20
  -2 -10  13    3.00    1.40
   1  10 -13    6.10    2.60
  -1 -10  13    4.70    1.60
   0  10 -13  107.59    8.00
   0 -10  13   96.79    5.50
  -1  10 -13   -0.40    2.10
   1 -10  13    0.50    1.20
  -2  10 -13   32.00    5.40
   2 -10  13   40.50    3.20
  -3  10 -13   13.90    3.40
   3 -10  13   20.50    2.50
  -4  10 -13   11.70    3.10
   4 -10  13   15.50    2.00
  -5  10 -13    0.10    1.90
   5 -10  13   -0.30    0.90
   6 -10  13    8.50    1.70
   7 -10  13   28.20    2.50
  -8  10 -13   33.30    3.70
   8 -10  13   29.70    2.50
  -9  10 -13    2.50    1.20
   9 -10  13    1.60    0.90
  -5  -9  13    2.80    1.30
  -4  -9  13   19.70    2.30
  -3  -9  13   94.09    5.20
   2   9 -13   12.00    2.90
  -2  -9  13   10.10    2.00
   1   9 -13    2.50    2.50
  -1  -9  13    0.80    1.30
   0   9 -13   10.50    3.40
   0  -9  13    9.60    1.90
  -1   9 -13    6.50    3.00
   1  -9  13    8.60    1.80
  -2   9 -13   62.39    6.80
   2  -9  13   62.99    4.20
  -3   9 -13    8.20    2.90
   3  -9  13   11.50    1.80
  -4   9 -13   19.40    3.80
   4  -9  13   20.90    2.40
  -5   9 -13    2.90    2.20
   5  -9  13    4.00    1.40
   6  -9  13    8.80    1.70
   7  -9  13   49.80    3.30
  -8   9 -13   10.00    2.00
   8  -9  13    8.60    1.60
  -9   9 -13    3.30    1.40
   9  -9  13    1.70    1.00
 -10   9 -13    0.80    1.10
  10  -9  13    1.40    0.80
  -5  -8  13   11.00    1.80
  -4  -8  13   22.80    2.70
  -3  -8  13   85.69    5.00
   2   8 -13   21.50    4.50
  -2  -8  13   15.60    2.40
   1   8 -13    9.90    3.40
  -1  -8  13   10.00    1.90
   0   8 -13   11.50    3.60
   0  -8  13    8.10    1.70
  -1   8 -13    1.00    2.30
   1  -8  13    2.90    1.50
  -2   8 -13   81.59    7.30
   2  -8  13   76.59    4.40
  -3   8 -13   17.40    3.60
   3  -8  13   16.10    2.10
  -4   8 -13   79.59    7.20
   4  -8  13   81.39    4.60
  -5   8 -13    1.90    2.00
   5  -8  13    1.60    1.20
   6  -8  13   14.60    2.00
  -7   8 -13    1.80    1.60
   7  -8  13    1.20    1.10
  -8   8 -13    1.60    1.60
   8  -8  13    2.50    1.20
  -9   8 -13    1.10    1.40
   9  -8  13    1.20    1.10
 -10   8 -13   18.70    2.30
  10  -8  13   18.80    1.80
  -6  -7  13    2.50    1.20
  -5  -7  13    9.30    1.80
  -4  -7  13   18.70    1.80
  -4  -7  13   14.60    2.30
  -3  -7  13   24.30    2.90
   2   7 -13    4.30    2.80
  -2  -7  13    0.20    1.30
   1   7 -13    2.30    3.00
  -1  -7  13    2.80    1.40
   0   7 -13   49.60    6.20
   0  -7  13   41.90    3.20
  -1   7 -13   -0.30    2.00
   1  -7  13    0.10    1.00
  -2   7 -13    1.00    1.80
   2  -7  13    2.00    1.10
  -3   7 -13    4.10    2.20
   3  -7  13    2.90    1.30
  -4   7 -13    9.40    2.80
   4  -7  13   11.50    1.80
  -5   7 -13    2.10    1.60
  -5   7 -13    1.80    1.90
   5  -7  13    2.90    1.20
  -6   7 -13    0.90    1.50
   6  -7  13    2.10    1.20
  -7   7 -13    0.10    1.50
   7  -7  13    1.30    1.20
  -8   7 -13   -0.50    1.40
   8  -7  13    0.40    1.10
  -9   7 -13    0.30    1.50
  -9   7 -13    0.70    1.20
   9  -7  13    1.10    1.10
 -10   7 -13    2.80    1.40
  10  -7  13    2.60    1.00
  -7  -6  13    2.70    1.20
  -6  -6  13    7.90    1.80
  -5  -6  13   33.10    2.60
  -5  -6  13   25.50    2.90
  -4  -6  13   33.90    2.40
  -4  -6  13   35.30    3.30
  -3  -6  13   24.30    2.80
   2   6 -13   46.90    5.10
  -2  -6  13   13.70    2.10
   1   6 -13    5.10    3.10
  -1  -6  13    2.70    1.20
   0   6 -13  213.18   12.10
   0  -6  13  200.48    8.90
  -1   6 -13   51.79    5.80
   1  -6  13   53.89    3.40
  -2   6 -13   20.20    4.00
   2  -6  13   16.20    2.00
  -3   6 -13  127.99    8.70
   3  -6  13  124.29    5.90
  -4   6 -13   80.79    6.80
  -4   6 -13   80.69    4.10
  -4   6 -13   80.69    5.00
   4  -6  13   84.79    4.50
  -5   6 -13  412.06   16.80
  -5   6 -13  408.16   15.60
  -5   6 -13  407.06   15.90
   5  -6  13  413.46   16.20
  -6   6 -13   39.80    2.70
  -6   6 -13   35.90    3.80
  -6   6 -13   37.60    3.00
   6  -6  13   44.80    3.10
  -7   6 -13   13.00    1.80
  -7   6 -13   13.30    1.60
  -7   6 -13   11.60    2.40
   7  -6  13   14.60    2.10
  -8   6 -13   11.60    1.50
  -8   6 -13   18.00    2.00
  -8   6 -13   13.50    2.40
   8  -6  13   19.10    2.20
  -9   6 -13   17.80    1.90
  -9   6 -13   17.90    2.50
   9  -6  13   17.90    2.00
 -10   6 -13   29.50    2.20
 -10   6 -13   28.10    2.70
  10  -6  13   28.60    2.20
  -6  -5  13   12.20    2.10
  -5  -5  13    2.90    1.40
  -5  -5  13    6.30    1.80
  -4  -5  13   10.60    2.00
  -3  -5  13   12.90    2.00
   1   5 -13   37.70    5.00
  -1  -5  13   33.10    2.70
   0   5 -13    1.00    1.90
   0  -5  13    0.30    0.80
  -1   5 -13    1.30    1.80
   1  -5  13    1.00    0.90
  -2   5 -13    6.60    1.30
  -2   5 -13    5.00    2.20
   2  -5  13    5.30    1.20
  -3   5 -13    5.90    1.10
  -3   5 -13    9.90    1.70
  -3   5 -13    6.10    1.30
  -3   5 -13    5.50    2.20
   3  -5  13    5.00    1.20
  -4   5 -13    2.00    0.90
  -4   5 -13    3.30    1.60
  -4   5 -13    2.20    1.90
  -4   5 -13    1.40    1.10
   4  -5  13    3.00    1.10
  -5   5 -13    2.40    1.00
  -5   5 -13    0.50    1.50
  -5   5 -13    1.20    1.20
   5  -5  13    2.70    1.10
  -6   5 -13    1.40    1.60
  -6   5 -13    2.80    1.00
  -6   5 -13    1.20    1.60
  -6   5 -13    3.30    1.30
  -7   5 -13   16.40    2.70
  -7   5 -13   20.10    2.20
  -7   5 -13   12.50    2.40
  -7   5 -13   14.90    1.70
  -8   5 -13    2.60    1.40
  -8   5 -13    0.50    1.00
  -8   5 -13    1.60    1.80
  -8   5 -13    0.80    1.70
  -9   5 -13    1.60    1.20
  -9   5 -13    2.50    1.70
  -9   5 -13    2.60    1.60
 -10   5 -13    0.50    1.30
 -10   5 -13    1.10    1.00
  10  -5  13    0.80    0.90
  -5  -4  13   12.10    1.70
  -4  -4  13   10.10    1.50
  -3  -4  13   23.30    2.90
  -3  -4  13   19.50    2.00
   1   4 -13   57.59    3.30
   1   4 -13   73.69    5.80
  -1  -4  13   56.69    3.60
   0   4 -13  290.77   14.20
   0  -4  13  271.97   11.20
  -1   4 -13  404.26   15.00
  -1   4 -13  397.86   18.30
   1  -4  13  397.96   15.50
  -2   4 -13    9.50    1.50
  -2   4 -13    6.40    2.20
  -2   4 -13    8.50    1.20
   2  -4  13   10.70    1.50
   2  -4  13   10.00    1.20
  -3   4 -13    3.30    1.40
  -3   4 -13    0.00    1.00
  -3   4 -13    0.30    0.70
  -3   4 -13    1.90    1.80
   3  -4  13    0.90    0.90
   3  -4  13    1.90    0.80
  -4   4 -13   23.90    4.20
  -4   4 -13   23.00    1.90
  -4   4 -13   23.10    2.30
  -4   4 -13   24.90    3.00
   4  -4  13   20.50    2.10
  -5   4 -13    2.60    1.60
  -5   4 -13    2.80    1.60
  -5   4 -13    3.50    1.10
  -5   4 -13    1.90    1.30
  -6   4 -13    1.00    1.70
  -6   4 -13    1.10    1.80
  -6   4 -13    1.00    1.20
  -6   4 -13    3.50    1.10
  -7   4 -13    4.10    1.50
  -7   4 -13    1.50    1.00
  -7   4 -13    1.50    1.70
  -7   4 -13    1.60    1.80
  -8   4 -13    1.80    1.00
  -8   4 -13    3.60    1.90
  -8   4 -13    1.40    1.60
  -8   4 -13    3.10    1.40
  -9   4 -13   21.20    2.20
  -9   4 -13   22.30    2.90
  -9   4 -13   22.70    2.80
 -10   4 -13   10.00    1.80
 -10   4 -13    9.60    1.40
 -10   4 -13   12.60    2.00
  -8  -3  13    0.70    1.00
  -6  -3  13   -0.40    0.90
  -5  -3  13    2.20    1.10
  -4  -3  13   12.70    1.70
  -3  -3  13    3.00    1.00
   2   3 -13  205.68    8.90
  -1  -3  13    0.00    0.60
   0   3 -13    1.90    0.70
   0  -3  13    1.20    0.70
  -1   3 -13   91.79    4.10
   1  -3  13   90.09    4.20
  -2   3 -13    5.40    1.40
  -2   3 -13    4.20    0.90
  -2   3 -13    4.10    2.20
   2  -3  13    5.00    1.00
   2  -3  13    4.20    1.10
  -3   3 -13    6.60    1.70
  -3   3 -13    6.00    1.10
  -3   3 -13    7.10    1.40
  -3   3 -13    8.50    2.40
   3  -3  13    6.00    1.20
   3  -3  13    5.80    1.10
  -4   3 -13    3.20    1.50
  -4   3 -13    3.30    1.00
  -4   3 -13    2.70    1.30
  -4   3 -13    1.50    1.50
  -4   3 -13    3.30    2.00
  -5   3 -13    1.10    1.50
  -5   3 -13    1.40    1.30
  -5   3 -13    0.20    0.80
  -5   3 -13   -0.90    1.40
  -6   3 -13   71.79    5.10
  -6   3 -13   68.89    3.60
  -6   3 -13   72.39    4.20
  -6   3 -13   71.99    4.90
  -7   3 -13    0.80    1.00
  -7   3 -13    0.20    1.60
  -7   3 -13    1.00    1.60
  -7   3 -13    1.00    1.50
  -8   3 -13    2.80    1.00
  -8   3 -13    3.80    1.50
  -8   3 -13    3.80    2.00
  -8   3 -13    1.20    1.70
  -9   3 -13    8.50    2.10
  -9   3 -13    7.50    1.90
  -9   3 -13    7.90    1.60
 -10   3 -13    9.30    1.80
 -10   3 -13    6.80    1.20
  -9  -2  13    0.50    0.90
  -8  -2  13   -0.10    0.90
  -7  -2  13   18.20    1.90
  -6  -2  13  140.49    6.40
  -5  -2  13   46.10    3.00
  -4  -2  13   12.70    1.60
  -3  -2  13   34.60    2.30
  -3  -2  13   27.30    2.10
   2   2 -13   43.60    3.50
  -2  -2  13   45.70    2.60
   1   2 -13    6.20    0.90
  -1  -2  13    4.40    1.00
   0   2 -13   38.40    2.70
   0   2 -13   34.40    2.10
   0   2 -13   34.00    2.40
   0  -2  13   40.70    2.30
   0  -2  13   37.10    2.30
  -1   2 -13    3.00    0.80
  -1   2 -13    3.00    0.90
   1  -2  13    2.50    1.00
   1  -2  13    3.40    0.90
  -2   2 -13   48.80    2.60
  -2   2 -13   44.90    4.30
  -2   2 -13   43.50    3.50
   2  -2  13   47.70    2.60
  -3   2 -13   38.90    2.90
  -3   2 -13   39.90    2.40
  -3   2 -13   38.40    3.40
  -3   2 -13   38.30    4.80
   3  -2  13   38.70    2.40
  -4   2 -13    9.40    2.00
  -4   2 -13   13.50    2.50
  -4   2 -13   14.00    1.40
  -4   2 -13   16.00    1.90
  -5   2 -13    0.90    1.50
  -5   2 -13   -0.30    0.80
  -5   2 -13   -0.60    1.30
  -5   2 -13    1.90    1.50
  -6   2 -13   14.50    2.50
  -6   2 -13   13.80    1.50
  -6   2 -13   17.60    2.30
  -6   2 -13   13.80    2.50
  -7   2 -13   85.69    5.50
  -7   2 -13   86.79    4.10
  -7   2 -13   88.29    4.80
  -7   2 -13   90.19    5.70
  -8   2 -13   74.39    4.30
  -8   2 -13   71.69    4.90
  -8   2 -13   78.99    4.90
  -9   2 -13   31.00    2.90
  -9   2 -13   28.90    3.00
  -9   2 -13   35.70    2.60
 -10   2 -13   -0.80    0.70
 -10  -1  13    3.40    1.00
  -9  -1  13    5.60    1.30
  -8  -1  13   14.90    1.80
  -7  -1  13    7.80    1.60
  -6  -1  13    2.40    1.20
  -5  -1  13    1.60    1.00
  -4  -1  13   17.70    1.80
  -4  -1  13   18.80    1.90
  -3  -1  13   16.20    1.70
  -3  -1  13   16.00    1.70
   2   1 -13    5.10    0.90
  -2  -1  13    5.10    1.00
   1   1 -13  116.89    5.70
   1   1 -13  124.29    5.00
  -1  -1  13  107.39    5.50
  -1  -1  13  128.59    5.30
   0   1 -13   24.20    1.70
   0   1 -13   17.40    1.70
   0  -1  13   18.70    1.60
   0  -1  13   18.40    1.60
  -1   1 -13    0.90    0.70
  -1   1 -13    1.40    1.30
   1  -1  13    1.70    0.70
  -2   1 -13   -0.20    1.80
  -2   1 -13    0.00    0.70
  -2   1 -13    0.50    1.20
  -2   1 -13    0.80    1.00
   2  -1  13    0.30    0.70
  -3   1 -13    6.60    1.00
  -3   1 -13    6.90    2.50
  -3   1 -13    9.70    1.60
  -3   1 -13    6.60    1.70
   3  -1  13    7.10    1.20
  -4   1 -13    1.10    0.70
  -4   1 -13    1.60    1.20
  -4   1 -13    1.50    1.40
  -5   1 -13    2.10    1.30
  -5   1 -13    2.70    1.60
  -5   1 -13    2.30    0.80
  -6   1 -13   12.10    2.00
  -6   1 -13   13.30    2.50
  -6   1 -13   13.00    2.40
  -6   1 -13   11.50    1.30
  -7   1 -13    3.90    1.80
  -7   1 -13    4.00    1.50
  -7   1 -13    2.90    1.70
  -7   1 -13    3.50    0.90
  -8   1 -13    8.80    1.90
  -8   1 -13    9.40    2.20
  -8   1 -13    7.60    1.60
  -9   1 -13    6.30    1.60
  -9   1 -13    8.20    1.30
 -10   0  13    2.00    1.00
  -9   0  13    1.90    1.10
  -8   0  13    1.60    1.10
  -7   0  13   58.69    3.60
  -6   0  13   53.19    3.40
   5   0 -13   36.70    2.20
  -5   0  13   32.00    2.60
  -4   0  13    3.40    1.10
  -4   0  13    4.20    1.10
  -3   0  13  145.79    6.30
   2   0 -13   81.39    3.60
  -2   0  13   76.79    3.90
   1   0 -13   59.59    3.40
   1   0 -13   85.69    4.00
   1   0 -13   68.19    3.20
  -1   0  13   64.39    3.40
  -1   0  13   73.19    3.50
   0   0 -13    4.20    1.30
   0   0 -13    1.90    0.80
   0   0 -13    3.00    0.80
   0   0  13    1.90    0.70
  -1   0 -13    7.40    1.70
  -1   0 -13    7.00    1.00
   1   0  13    8.80    1.30
  -2   0 -13   20.50    4.00
  -2   0 -13   23.60    2.70
  -2   0 -13   23.90    1.70
  -2   0 -13   21.50    2.20
   2   0  13   22.80    1.90
  -3   0 -13   43.40    3.70
  -3   0 -13   43.20    2.30
  -3   0 -13   42.30    3.00
  -3   0 -13   42.30    5.10
   3   0  13   39.70    2.70
  -4   0 -13    0.50    0.70
  -4   0 -13   -0.10    1.10
  -4   0 -13    0.40    1.40
  -5   0 -13   39.30    3.80
  -5   0 -13   40.20    3.20
  -5   0 -13   39.00    2.30
  -6   0 -13   14.40    1.40
  -6   0 -13   11.90    2.30
  -6   0 -13   15.80    2.10
  -7   0 -13    1.50    0.80
  -7   0 -13    0.00    1.40
  -7   0 -13    1.80    1.40
  -8   0 -13    9.50    1.60
  -9   0 -13    1.80    1.00
 -10   1  13   -0.80    0.90
  -9   1  13    0.60    1.10
  -8   1  13   10.60    1.70
  -7   1  13    3.80    1.40
  -6   1  13   76.69    4.20
  -5   1  13    4.40    1.20
  -4   1  13   12.30    1.60
  -4   1  13   18.90    1.90
   3  -1 -13   -0.70    0.80
   3  -1 -13   -0.30    0.50
  -3   1  13    0.50    0.70
   2  -1 -13   32.60    2.20
   2  -1 -13   17.80    1.80
   2  -1 -13   17.80    1.50
  -2   1  13   19.30    1.80
   1  -1 -13   41.90    3.20
   1  -1 -13   43.20    2.30
  -1   1  13   41.60    2.60
   0  -1 -13   39.00    3.30
   0  -1 -13   45.30    2.30
   0   1  13   45.10    2.60
  -1  -1 -13   50.49    3.10
  -1  -1 -13   56.29    2.70
  -1  -1 -13   54.29    5.40
  -1  -1 -13   53.79    3.80
   1   1  13   53.09    3.00
  -2  -1 -13   35.90    4.80
  -2  -1 -13   44.80    2.80
  -2  -1 -13   37.90    2.10
  -2  -1 -13   37.70    3.30
   2   1  13   32.30    2.30
  -3  -1 -13   58.89    4.20
  -3  -1 -13   54.09    5.80
  -3  -1 -13   57.79    2.80
  -3  -1 -13   59.19    3.60
  -4  -1 -13    1.50    1.20
  -4  -1 -13    2.20    1.50
  -4  -1 -13    0.80    0.70
  -5  -1 -13   20.30    2.30
  -5  -1 -13   23.10    1.70
  -5  -1 -13   17.70    2.60
  -6  -1 -13   20.90    1.60
  -6  -1 -13   19.30    2.20
  -6  -1 -13   17.60    2.60
  -7  -1 -13   15.40    2.00
  -8  -1 -13   25.30    2.20
 -11   2  13    0.20    0.80
 -10   2  13    0.10    1.00
  -9   2  13    0.70    1.10
  -8   2  13   25.70    2.60
  -7   2  13    5.30    1.40
   6  -2 -13   47.80    2.80
  -6   2  13   51.79    3.20
  -5   2  13    0.50    0.90
   4  -2 -13    0.80    0.70
  -4   2  13    0.60    0.80
  -4   2  13    0.30    0.80
   3  -2 -13   43.50    3.00
   3  -2 -13   41.00    2.20
   3  -2 -13   37.30    2.60
  -3   2  13   38.40    2.60
   2  -2 -13    4.60    1.40
   2  -2 -13    4.80    0.90
   2  -2 -13    4.40    1.50
  -2   2  13    5.40    1.10
   1  -2 -13    0.30    1.10
   1  -2 -13    1.20    1.70
   1  -2 -13    0.60    0.60
  -1   2  13    0.90    0.80
   0  -2 -13    8.10    1.00
   0  -2 -13    6.50    2.30
   0  -2 -13    9.10    1.80
   0  -2 -13    7.50    1.30
   0   2  13    7.60    1.20
  -1  -2 -13    2.60    1.90
  -1  -2 -13    2.60    1.10
  -1  -2 -13    3.10    0.80
  -1  -2 -13    3.90    1.50
   1   2  13    2.20    0.80
  -2  -2 -13    3.20    1.40
  -2  -2 -13    3.80    2.10
  -2  -2 -13    4.10    0.70
  -2  -2 -13    2.40    1.30
  -3  -2 -13    1.50    1.90
  -3  -2 -13    1.70    1.20
  -3  -2 -13    1.30    1.30
  -3  -2 -13    1.40    0.70
  -4  -2 -13    0.10    1.30
  -4  -2 -13    1.70    1.30
  -5  -2 -13    0.80    1.50
  -5  -2 -13    1.40    1.30
  -6  -2 -13    4.20    1.40
  -7  -2 -13    1.30    1.20
 -11   3  13   13.90    1.40
 -10   3  13   -0.50    0.90
  -9   3  13   21.90    2.20
  -8   3  13    3.90    1.30
  -7   3  13  204.88    8.70
   6  -3 -13  104.39    4.90
  -6   3  13  106.59    5.10
  -5   3  13   39.30    2.70
   3  -3 -13   17.80    1.50
   3  -3 -13   19.10    2.40
   3  -3 -13   20.40    2.00
  -3   3  13   16.50    1.80
   2  -3 -13  145.69    7.00
   2  -3 -13  146.39    5.80
   2  -3 -13  139.39    6.20
   2  -3 -13  138.79    9.40
  -2   3  13  144.49    6.30
   1  -3 -13   37.80    5.10
   1  -3 -13   35.10    2.50
   1  -3 -13   36.60    3.10
   1  -3 -13   36.10    2.00
  -1   3  13   37.00    2.40
   0  -3 -13   22.40    1.60
   0  -3 -13   24.60    4.30
   0  -3 -13   21.80    2.00
   0  -3 -13   24.00    2.80
   0   3  13   25.80    2.00
  -1  -3 -13    6.50    0.90
  -1  -3 -13    4.60    2.20
  -1  -3 -13    7.30    1.40
  -1  -3 -13    7.30    1.70
  -2  -3 -13   44.80    3.60
  -2  -3 -13   47.00    5.40
  -2  -3 -13   42.10    2.20
  -2  -3 -13   40.00    2.90
  -3  -3 -13   97.79    5.60
  -3  -3 -13   94.79    7.90
  -3  -3 -13   95.59    4.90
  -4  -3 -13   37.40    3.50
  -4  -3 -13   39.50    3.80
  -5  -3 -13   13.10    2.10
 -11   4  13    3.70    1.00
 -10   4  13    0.30    0.90
  -9   4  13   22.70    2.20
  -8   4  13   18.50    2.00
   7  -4 -13    3.30    1.10
  -7   4  13    3.90    1.30
   6  -4 -13    2.90    1.10
  -6   4  13    3.60    1.20
   5  -4 -13    0.50    1.30
  -5   4  13    0.30    0.90
   4  -4 -13    2.50    0.80
   4  -4 -13    3.30    1.30
  -4   4  13    4.60    1.10
   3  -4 -13    7.90    1.00
   3  -4 -13    9.60    3.60
   3  -4 -13    9.60    1.90
  -3   4  13    8.50    1.30
   2  -4 -13   23.30    4.20
   2  -4 -13   23.40    1.70
   2  -4 -13   21.00    2.70
  -2   4  13   22.80    2.20
   1  -4 -13   10.40    2.90
   1  -4 -13   12.90    1.30
   1  -4 -13   10.40    2.00
   0  -4 -13    1.90    0.70
   0  -4 -13    3.10    1.40
   0  -4 -13    1.40    1.80
  -1  -4 -13   21.40    1.50
  -1  -4 -13   23.20    4.30
  -1  -4 -13   21.70    2.80
  -2  -4 -13   35.60    3.30
  -2  -4 -13   34.10    5.00
  -3  -4 -13    0.10    1.30
  -4  -4 -13    0.80    1.40
 -11   5  13    0.50    0.70
 -10   5  13    3.50    1.10
  -9   5  13    9.20    1.50
  -8   5  13    1.90    1.10
   7  -5 -13   79.59    3.90
  -7   5  13   72.59    4.00
   6  -5 -13   18.10    2.60
   6  -5 -13   18.10    2.10
  -6   5  13   19.10    2.00
   5  -5 -13    2.50    1.50
   5  -5 -13    1.60    0.80
   4  -5 -13   16.20    2.30
   4  -5 -13   21.30    1.80
   4  -5 -13   25.50    5.40
   3  -5 -13   70.99    3.30
   3  -5 -13   69.89    7.10
   3  -5 -13   67.79    4.40
   2  -5 -13   42.60    3.60
   2  -5 -13   34.40    5.60
   2  -5 -13   42.80    2.30
   1  -5 -13   12.80    3.20
   1  -5 -13   16.00    1.40
   1  -5 -13   13.90    2.20
   0  -5 -13  149.19    7.50
   0  -5 -13  149.79    6.00
   0  -5 -13  153.68    9.90
  -1  -5 -13   31.70    1.80
  -1  -5 -13   32.60    5.00
  -1  -5 -13   32.00    3.20
  -2  -5 -13   53.79    5.80
  -2  -5 -13   57.09    4.10
  -3  -5 -13   31.50    3.20
   8  -6 -13   -1.50    0.80
   7  -6 -13   20.10    2.30
  -7   6  13   29.80    4.80
   6  -6 -13   -2.10    1.50
   6  -6 -13   -0.10    1.00
   5  -6 -13    3.70    1.30
   5  -6 -13    4.70    1.00
   5  -6 -13    5.50    1.90
   5  -6 -13   12.60    3.60
   4  -6 -13   14.40    2.40
   4  -6 -13   15.90    3.90
   4  -6 -13   13.50    1.40
   3  -6 -13    0.80    0.70
   3  -6 -13    1.00    2.30
   3  -6 -13    1.00    1.40
   2  -6 -13    8.80    3.10
   2  -6 -13    8.80    1.10
   2  -6 -13   11.70    2.10
   1  -6 -13   -0.40    0.60
   1  -6 -13    0.60    1.90
   1  -6 -13    0.50    1.30
   0  -6 -13   10.90    2.10
   0  -6 -13   10.90    1.10
   0  -6 -13    7.90    2.60
  -1  -6 -13    1.40    0.60
  -1  -6 -13    2.70    2.00
  -1  -6 -13   -0.50    1.30
  -2  -6 -13   30.30    4.90
  -2  -6 -13   24.10    3.00
   8  -7 -13   58.39    3.00
  -8   7  13   58.79    6.90
   7  -7 -13    1.10    1.10
  -7   7  13    6.50    3.90
   6  -7 -13    4.10    2.00
   6  -7 -13    2.80    1.30
   5  -7 -13    0.20    1.90
   5  -7 -13    3.40    2.00
   5  -7 -13    0.50    0.80
   5  -7 -13    1.80    1.20
   4  -7 -13   47.20    4.10
   4  -7 -13   41.90    2.60
   4  -7 -13   43.70    5.80
   3  -7 -13  100.89    5.70
   3  -7 -13   93.19    8.00
   3  -7 -13   96.29    4.30
   2  -7 -13   48.10    2.50
   2  -7 -13   46.30    3.70
   2  -7 -13   40.30    5.60
   1  -7 -13   10.00    1.10
   1  -7 -13    6.20    1.80
   1  -7 -13    5.50    2.30
   0  -7 -13   34.40    3.30
   0  -7 -13   33.50    1.90
   0  -7 -13   32.60    4.90
  -1  -7 -13   51.79    2.50
  -1  -7 -13   56.39    6.00
  -1  -7 -13   52.79    3.80
  -2  -7 -13    6.30    2.50
  -9   8  13   40.10    4.30
   8  -8 -13   43.70    2.50
  -8   8  13   47.50    6.20
   7  -8 -13    1.40    1.20
  -7   8  13    5.90    3.80
   6  -8 -13    0.80    1.30
   6  -8 -13    0.20    1.90
   5  -8 -13   14.90    3.50
   5  -8 -13   14.70    1.60
   5  -8 -13   19.10    2.90
   5  -8 -13   16.70    2.00
   4  -8 -13    4.50    1.00
   4  -8 -13    4.20    2.50
   4  -8 -13    6.10    2.20
   3  -8 -13   20.40    1.90
   3  -8 -13   18.20    3.80
   3  -8 -13   21.50    2.80
   2  -8 -13   11.80    1.30
   2  -8 -13   10.70    2.20
   2  -8 -13    8.30    3.00
   1  -8 -13   22.10    2.80
   1  -8 -13   23.00    1.80
   1  -8 -13   25.70    4.70
   0  -8 -13   20.40    2.60
   0  -8 -13   24.10    4.50
  -1  -8 -13   25.70    4.80
  -9   9  13   23.90    2.80
   8  -9 -13   15.00    1.50
  -8   9  13   15.40    3.60
   7  -9 -13    1.20    1.10
  -7   9  13    5.90    3.60
   6  -9 -13    0.00    1.20
  -6   9  13   -0.20    2.90
   5  -9 -13    5.90    1.60
   5  -9 -13    4.80    2.40
   5  -9 -13    8.40    2.30
   4  -9 -13    5.80    2.10
   4  -9 -13    2.60    1.20
   4  -9 -13    3.80    2.40
   3  -9 -13   11.00    2.40
   3  -9 -13   10.80    1.60
   3  -9 -13    9.10    3.00
   2  -9 -13    0.00    1.70
   2  -9 -13   -0.60    1.80
   1  -9 -13    3.90    1.90
   1  -9 -13    4.30    2.50
   0  -9 -13    9.40    3.00
  -1  -9 -13    2.30    2.40
   8 -10 -13   57.49    2.70
  -8  10  13   53.39    4.60
   7 -10 -13    2.60    1.20
  -7  10  13    3.60    3.00
   6 -10 -13    2.00    1.20
  -6  10  13   -1.50    2.70
   5 -10 -13    1.30    2.20
   5 -10 -13    3.10    1.30
  -5  10  13    0.20    2.50
   4 -10 -13   35.00    5.40
  -4  10  13   32.80    3.90
   3 -10 -13   39.80    5.60
   3 -10 -13   45.00    4.00
   2 -10 -13   11.50    3.20
   2 -10 -13   14.30    2.40
   1 -10 -13    1.70    2.30
   0 -10 -13    5.90    2.80
   7 -11 -13    0.70    1.00
  -7  11  13   -1.40    2.10
   6 -11 -13   28.80    2.40
  -6  11  13   20.50    3.10
   5 -11 -13    2.50    1.30
   5 -11 -13    2.80    2.30
  -5  11  13    2.40    2.40
   4 -11 -13    0.30    1.20
   4 -11 -13    0.70    2.20
  -4  11  13    0.90    2.20
   3 -11 -13    0.90    2.30
   2 -11 -13    3.30    2.40
   1 -11 -13    4.20    2.50
  -2  13 -14    8.60    1.90
  -3  13 -14    0.60    1.30
  -4  13 -14   -0.20    1.40
  -5  13 -14    0.40    1.40
   0  12 -14   13.20    2.80
   0 -12  14   15.10    1.70
  -1  12 -14    2.80    1.80
   1 -12  14    5.40    1.30
  -2  12 -14    7.60    2.40
   2 -12  14    9.70    1.60
  -3  12 -14   46.50    4.70
   3 -12  14   41.90    2.90
  -4  12 -14   10.80    2.80
   4 -12  14   14.40    1.80
  -5  12 -14    0.80    1.90
   5 -12  14    2.00    1.00
   6 -12  14    7.40    1.40
   7 -12  14   17.90    1.80
   1  11 -14    0.60    1.40
  -1 -11  14    0.50    1.00
   0  11 -14    1.90    1.90
   0 -11  14    4.10    1.50
  -1  11 -14    7.80    2.50
   1 -11  14    7.10    1.60
  -2  11 -14   -1.00    1.70
   2 -11  14   -0.10    1.10
  -3  11 -14   11.60    3.00
   3 -11  14   15.50    2.00
  -4  11 -14    4.80    2.40
   4 -11  14    5.00    1.40
  -5  11 -14   -0.80    1.90
   5 -11  14   -0.80    1.00
   6 -11  14    0.10    0.90
   7 -11  14    2.10    1.00
   8 -11  14    1.70    0.90
  -3 -10  14   12.50    1.70
  -2 -10  14    5.20    1.40
   1  10 -14   40.60    4.70
  -1 -10  14   40.00    3.20
   0  10 -14    2.00    2.20
   0 -10  14    1.50    1.40
  -1  10 -14   68.19    6.50
   1 -10  14   70.69    4.20
  -2  10 -14   73.49    6.80
   2 -10  14   79.79    4.50
  -3  10 -14   30.50    4.90
   3 -10  14   34.50    3.00
  -4  10 -14    4.70    2.50
   4 -10  14    7.00    1.50
  -5  10 -14    8.10    2.70
   5 -10  14    9.70    1.70
   6 -10  14   49.30    3.20
   7 -10  14   51.39    3.20
   8 -10  14    3.40    1.10
   9 -10  14    1.60    0.90
  -4  -9  14   12.10    1.70
  -3  -9  14    3.70    1.40
   2   9 -14    1.80    1.90
  -2  -9  14    2.40    1.40
   1   9 -14   16.00    3.40
  -1  -9  14   15.10    2.10
   0   9 -14   14.40    3.50
   0  -9  14   12.60    2.10
  -1   9 -14   28.00    5.10
   1  -9  14   29.30    2.80
  -2   9 -14   77.59    7.20
   2  -9  14   90.59    5.00
  -3   9 -14    1.20    2.00
   3  -9  14    2.60    1.30
  -4   9 -14    0.40    1.90
   4  -9  14    0.80    1.10
  -5   9 -14    0.20    1.90
   5  -9  14    0.80    1.10
   6  -9  14   55.49    3.60
   7  -9  14   33.90    2.70
  -8   9 -14   -0.10    1.30
   8  -9  14    1.60    1.00
  -9   9 -14    0.80    1.20
   9  -9  14    1.30    0.80
  -5  -8  14   11.10    1.60
  -4  -8  14   40.70    3.10
  -3  -8  14   30.40    2.90
   2   8 -14    1.00    2.10
  -2  -8  14   -0.20    1.20
   1   8 -14    5.00    2.80
  -1  -8  14    3.70    1.50
   0   8 -14    1.30    2.50
   0  -8  14    3.40    1.30
  -1   8 -14   15.70    3.60
   1  -8  14   11.20    2.00
  -2   8 -14   51.29    6.10
   2  -8  14   58.79    3.70
  -3   8 -14   38.50    5.30
   3  -8  14   37.50    3.00
  -4   8 -14    1.00    1.90
   4  -8  14    3.30    1.30
  -5   8 -14    0.90    1.90
   5  -8  14    0.30    1.10
   6  -8  14   10.30    1.80
  -7   8 -14    2.30    1.50
   7  -8  14    1.80    1.10
  -8   8 -14   -0.80    1.40
   8  -8  14    0.80    1.00
  -9   8 -14    3.10    1.40
   9  -8  14    4.60    1.20
  -6  -7  14    6.10    1.40
  -5  -7  14    4.80    1.40
  -4  -7  14   10.00    1.90
  -3  -7  14   41.40    3.30
   2   7 -14   -0.70    2.30
  -2  -7  14    0.80    1.20
   1   7 -14    0.90    2.60
  -1  -7  14    0.30    1.10
   0   7 -14   54.29    6.70
   0  -7  14   45.10    3.40
  -1   7 -14   21.00    4.00
   1  -7  14   26.30    2.50
  -2   7 -14   46.00    5.70
   2  -7  14   50.69    3.40
  -3   7 -14    4.40    2.30
   3  -7  14    8.60    1.70
  -4   7 -14   -0.10    1.70
   4  -7  14    1.10    1.10
  -5   7 -14    5.80    2.50
   5  -7  14    6.60    1.50
  -6   7 -14   13.10    2.30
   6  -7  14   12.40    1.90
  -7   7 -14    5.40    1.90
   7  -7  14    5.10    1.40
  -8   7 -14    1.50    1.60
   8  -7  14    1.90    1.20
  -9   7 -14    4.10    1.60
   9  -7  14    4.40    1.20
  -6  -6  14    9.90    1.80
  -5  -6  14   18.90    2.30
  -4  -6  14   13.30    2.20
  -3  -6  14    1.80    1.30
   2   6 -14   27.70    4.80
  -2  -6  14   20.70    2.40
   1   6 -14   19.40    4.30
  -1  -6  14    9.70    1.70
   0   6 -14    1.90    2.40
   0  -6  14    2.60    1.30
  -1   6 -14   34.40    5.30
   1  -6  14   34.60    2.70
  -2   6 -14    0.20    1.60
   2  -6  14    0.60    0.90
  -3   6 -14   10.20    2.90
   3  -6  14   10.50    1.70
  -4   6 -14    2.60    1.60
  -4   6 -14    2.60    2.10
  -4   6 -14    0.70    1.60
   4  -6  14    2.10    1.20
  -5   6 -14   13.70    1.90
  -5   6 -14   13.30    2.50
  -5   6 -14   13.80    1.60
   5  -6  14   12.50    1.90
  -6   6 -14    1.20    1.30
  -6   6 -14    2.30    1.70
  -6   6 -14    1.20    0.90
   6  -6  14    3.20    1.20
  -7   6 -14   15.40    1.70
  -7   6 -14   13.30    2.50
  -7   6 -14   19.10    2.10
   7  -6  14   17.40    2.10
  -8   6 -14    1.40    1.20
  -8   6 -14    0.90    1.60
   8  -6  14    4.10    1.30
  -9   6 -14    3.20    1.50
  -9   6 -14    5.40    1.30
   9  -6  14    6.40    1.30
 -10   6 -14   -1.60    0.80
  10  -6  14    0.50    1.00
  -4  -5  14   57.69    3.90
  -3  -5  14    0.10    1.10
   2   5 -14   17.50    4.20
  -2  -5  14    9.40    1.80
   1   5 -14   66.49    6.70
  -1  -5  14   61.69    3.80
   0   5 -14  181.98   10.90
   0  -5  14  180.68    7.90
  -1   5 -14   62.19    6.10
  -1   5 -14   57.89    3.30
   1  -5  14   58.99    3.50
  -2   5 -14  123.89    5.60
  -2   5 -14  124.19    8.50
   2  -5  14  123.69    5.90
  -3   5 -14  157.78   10.00
  -3   5 -14  159.48    7.00
  -3   5 -14  159.08    6.70
  -3   5 -14  166.58    7.80
   3  -5  14  164.58    7.20
  -4   5 -14   14.50    1.60
  -4   5 -14   15.40    2.60
  -4   5 -14   13.50    3.00
  -4   5 -14   15.80    2.00
   4  -5  14   17.20    2.10
  -5   5 -14   45.60    2.90
  -5   5 -14   45.20    4.20
  -5   5 -14   45.10    3.20
   5  -5  14   48.40    3.20
  -6   5 -14    7.10    2.20
  -6   5 -14    7.60    1.40
  -6   5 -14    7.30    1.60
   6  -5  14    6.20    1.50
  -7   5 -14    2.50    1.00
  -7   5 -14    2.20    1.30
  -7   5 -14    2.40    1.70
   7  -5  14    3.00    1.30
  -8   5 -14   53.49    3.30
  -8   5 -14   48.80    4.00
   8  -5  14   47.80    3.20
  -9   5 -14    7.40    1.40
  -9   5 -14    7.10    1.70
   9  -5  14    6.00    1.30
 -10   5 -14   31.30    2.10
  -6  -4  14   17.70    2.80
  -5  -4  14    6.60    1.30
  -4  -4  14    0.60    0.90
  -3  -4  14    0.00    0.80
   2   4 -14   15.50    3.60
  -2  -4  14    9.10    1.40
   1   4 -14   19.40    2.00
   1   4 -14   22.90    4.40
   0   4 -14   18.60    1.90
   0   4 -14   18.30    3.50
   0  -4  14   15.10    1.80
  -1   4 -14    2.30    1.00
  -1   4 -14    1.20    0.80
  -1   4 -14    0.90    1.70
   1  -4  14    0.70    0.90
  -2   4 -14   -0.10    1.60
  -2   4 -14    1.30    1.10
  -2   4 -14    0.10    0.70
   2  -4  14   -0.50    0.60
   2  -4  14    0.30    0.90
  -3   4 -14   11.00    1.70
  -3   4 -14    9.50    2.70
  -3   4 -14   11.00    1.40
  -3   4 -14   10.90    2.10
   3  -4  14   11.20    1.60
  -4   4 -14   18.60    3.60
  -4   4 -14   20.80    2.80
  -4   4 -14   19.80    2.20
  -4   4 -14   21.10    2.00
   4  -4  14   22.40    2.20
  -5   4 -14    2.00    1.30
  -5   4 -14    0.90    1.50
  -5   4 -14    2.70    1.00
   5  -4  14    0.90    1.00
  -6   4 -14   12.50    1.60
  -6   4 -14   15.30    2.70
  -6   4 -14   14.50    2.00
  -7   4 -14    1.70    1.70
  -7   4 -14    3.10    1.40
  -7   4 -14    2.10    1.80
  -7   4 -14    0.40    1.00
  -8   4 -14   -0.60    1.50
  -8   4 -14   -0.20    1.40
  -8   4 -14    0.20    1.20
  -9   4 -14   -0.10    1.30
  -9   4 -14    0.50    1.10
   9  -4  14   -0.20    0.80
 -10   4 -14    5.90    1.10
  -8  -3  14    0.60    0.80
  -7  -3  14    1.90    0.90
  -6  -3  14   10.50    1.60
  -5  -3  14  113.09    5.30
  -4  -3  14    1.80    1.00
  -3  -3  14   19.30    1.90
   2   3 -14   42.10    4.50
   1   3 -14   27.70    2.30
   1   3 -14   26.90    4.90
  -1  -3  14   26.40    2.10
   0   3 -14  298.07   11.30
   0   3 -14  301.07   11.60
   0   3 -14  302.87   14.90
   0  -3  14  281.37   11.50
  -1   3 -14    1.90    1.10
  -1   3 -14    2.90    1.80
  -1   3 -14    1.90    0.80
   1  -3  14    2.30    0.80
  -2   3 -14   28.00    2.00
  -2   3 -14   31.90    2.50
  -2   3 -14   28.40    3.00
  -2   3 -14   27.50    4.40
   2  -3  14   27.40    2.00
  -3   3 -14    0.60    1.70
  -3   3 -14    0.80    0.80
  -3   3 -14    3.40    1.30
  -3   3 -14    0.80    1.40
   3  -3  14    1.30    1.00
  -4   3 -14   85.29    7.20
  -4   3 -14   91.69    4.20
  -4   3 -14   84.79    5.40
  -4   3 -14   89.49    4.70
   4  -3  14   86.39    4.50
  -5   3 -14  137.99    7.20
  -5   3 -14  143.49    6.10
  -5   3 -14  148.09    7.60
  -5   3 -14  136.19    6.60
  -6   3 -14   19.10    2.70
  -6   3 -14   18.90    2.30
  -6   3 -14   16.70    2.70
  -6   3 -14   17.10    1.80
  -7   3 -14   15.30    2.50
  -7   3 -14   11.80    1.50
  -7   3 -14   13.40    2.00
  -7   3 -14   13.90    2.50
  -8   3 -14    1.90    1.60
  -8   3 -14    3.00    1.70
  -8   3 -14    1.60    1.30
  -9   3 -14   44.30    3.30
  -9   3 -14   45.20    2.90
  -9   3 -14   46.20    3.40
  -9  -2  14   -0.30    0.70
  -8  -2  14    4.00    1.10
  -7  -2  14    9.60    1.50
  -6  -2  14   14.50    1.90
  -5  -2  14    0.80    1.00
  -4  -2  14    2.80    1.10
   2   2 -14   19.30    1.90
  -2  -2  14   18.50    1.70
   1   2 -14    0.10    0.50
   1   2 -14   -0.40    1.70
   1   2 -14    0.10    0.90
  -1  -2  14    0.30    0.70
   0   2 -14   37.40    2.20
   0   2 -14   39.20    2.60
   0   2 -14   34.40    4.90
   0  -2  14   33.60    2.30
  -1   2 -14    4.80    1.30
  -1   2 -14    5.70    1.50
  -1   2 -14    4.00    2.00
  -1   2 -14    4.60    0.90
   1  -2  14    3.30    0.90
  -2   2 -14   -0.40    1.30
  -2   2 -14    1.10    1.00
  -2   2 -14    1.50    1.60
  -2   2 -14    0.40    0.80
   2  -2  14    0.00    0.70
  -3   2 -14    1.70    1.80
  -3   2 -14    0.60    0.80
  -3   2 -14   -2.00    1.00
  -4   2 -14    5.40    1.80
  -4   2 -14    2.70    1.00
  -4   2 -14    2.00    1.30
  -4   2 -14    2.20    2.60
  -5   2 -14   45.10    4.00
  -5   2 -14   38.70    3.20
  -5   2 -14   39.60    2.50
  -6   2 -14   94.89    5.80
  -6   2 -14  102.49    4.60
  -6   2 -14  103.69    5.30
  -6   2 -14  102.49    6.10
  -7   2 -14   14.60    2.50
  -7   2 -14   20.20    1.80
  -7   2 -14   21.40    2.40
  -7   2 -14   19.20    2.80
  -8   2 -14   -0.60    1.20
  -8   2 -14    1.30    1.50
  -8   2 -14    1.00    1.30
  -9   2 -14   21.00    2.00
  -9   2 -14   19.00    2.40
  -9   2 -14   22.90    2.40
  -9  -1  14    0.40    0.90
  -8  -1  14    2.70    1.10
  -7  -1  14    3.40    1.20
  -6  -1  14   17.20    2.10
  -5  -1  14  132.49    6.00
  -4  -1  14    1.00    0.90
   2   1 -14   46.60    3.10
   2   1 -14   67.39    5.60
  -2  -1  14   44.90    2.90
   1   1 -14   67.19    6.10
   1   1 -14   65.59    3.20
   1   1 -14   66.09    3.60
  -1  -1  14   64.19    3.40
   0   1 -14   11.50    2.80
   0   1 -14   21.00    2.30
   0   1 -14   18.20    1.60
   0   1 -14   13.40    1.70
   0  -1  14   14.20    1.50
  -1   1 -14    0.00    1.00
  -1   1 -14    0.90    1.60
  -1   1 -14    1.50    1.40
  -1   1 -14   -0.80    0.70
   1  -1  14    0.50    0.70
  -2   1 -14   14.60    3.10
  -2   1 -14   17.90    2.00
  -2   1 -14   21.80    2.80
  -2   1 -14   15.80    1.60
   2  -1  14   14.30    1.80
  -3   1 -14    1.70    0.90
  -3   1 -14    2.80    1.50
  -3   1 -14    0.90    1.30
  -3   1 -14    2.20    2.00
  -4   1 -14   16.10    1.50
  -4   1 -14   15.10    2.50
  -4   1 -14   14.10    1.90
  -5   1 -14    0.00    0.80
  -5   1 -14    0.90    1.30
  -5   1 -14    1.20    1.60
  -6   1 -14    1.00    1.30
  -6   1 -14   -0.70    0.80
  -6   1 -14   -0.10    1.50
  -7   1 -14   11.80    2.20
  -7   1 -14   15.40    2.00
  -8   1 -14    4.60    1.60
  -8   1 -14    7.10    1.40
  -9   1 -14    0.50    0.90
 -10   0  14    0.10    0.70
  -9   0  14    0.80    1.00
  -8   0  14    2.60    1.20
  -7   0  14    8.10    1.60
  -6   0  14   45.60    3.20
   5   0 -14   23.90    1.80
  -5   0  14   19.70    2.10
  -4   0  14   54.49    3.20
   2   0 -14    3.00    1.10
   2   0 -14    2.30    2.40
   2   0 -14    3.60    0.80
  -2   0  14    3.10    1.00
   1   0 -14   18.30    1.60
   1   0 -14   17.50    3.50
   1   0 -14   27.30    2.30
   1   0 -14   18.60    1.90
  -1   0  14   18.50    1.70
   0   0 -14   34.80    2.10
   0   0 -14   32.60    3.10
   0   0 -14   32.90    4.90
   0   0 -14   31.30    2.40
   0   0  14   30.00    2.10
  -1   0 -14   82.89    4.30
  -1   0 -14   85.19    3.80
  -1   0 -14   87.79    5.00
  -1   0 -14   82.49    6.80
   1   0  14   82.29    4.10
  -2   0 -14    9.40    2.70
  -2   0 -14    9.00    1.50
  -2   0 -14   11.60    2.10
  -2   0 -14   10.00    1.20
  -3   0 -14   21.40    2.80
  -3   0 -14   22.60    4.50
  -3   0 -14   21.90    2.30
  -3   0 -14   22.30    1.80
  -4   0 -14    5.80    1.90
  -4   0 -14    4.00    0.90
  -4   0 -14    2.90    1.40
  -5   0 -14    1.30    0.80
  -5   0 -14    1.50    1.60
  -5   0 -14    0.80    1.20
  -6   0 -14    8.80    1.70
  -6   0 -14    7.30    1.10
  -6   0 -14    5.40    2.00
  -7   0 -14    0.60    1.20
  -7   0 -14    0.80    1.30
  -8   0 -14   19.80    2.00
 -10   1  14    2.70    1.00
  -9   1  14   -0.90    0.90
  -8   1  14   11.40    1.70
  -7   1  14   13.30    1.90
  -6   1  14   99.09    5.00
  -5   1  14    2.20    1.10
  -4   1  14    0.10    0.90
   2  -1 -14   27.70    1.90
   2  -1 -14   35.60    2.60
   2  -1 -14   25.80    2.20
   2  -1 -14   28.50    4.80
  -2   1  14   21.50    2.10
   1  -1 -14   38.20    3.20
   1  -1 -14   38.60    5.10
   1  -1 -14   40.80    2.70
   1  -1 -14   46.90    2.40
  -1   1  14   39.70    2.60
   0  -1 -14    6.50    2.40
   0  -1 -14    7.40    1.40
   0  -1 -14    7.10    1.00
   0  -1 -14    7.40    1.80
   0   1  14    7.10    1.20
  -1  -1 -14    1.20    0.70
  -1  -1 -14    0.80    1.20
  -1  -1 -14   -0.60    0.90
  -1  -1 -14    1.00    1.60
  -2  -1 -14   32.10    2.60
  -2  -1 -14   32.40    4.90
  -2  -1 -14   30.70    3.20
  -2  -1 -14   31.20    2.00
  -3  -1 -14    2.00    1.20
  -3  -1 -14    0.00    1.20
  -3  -1 -14    2.10    0.80
  -3  -1 -14    0.30    1.80
  -4  -1 -14   26.00    3.30
  -4  -1 -14   27.60    1.90
  -4  -1 -14   26.00    2.60
  -5  -1 -14   -0.50    0.70
  -5  -1 -14    0.70    1.40
  -5  -1 -14   -0.50    1.20
  -6  -1 -14    1.40    1.50
  -6  -1 -14    1.50    1.20
  -7  -1 -14    0.30    1.20
  -8  -1 -14    6.50    1.20
 -10   2  14    4.20    1.10
  -9   2  14    0.80    1.00
  -8   2  14    1.00    1.10
  -7   2  14   16.70    2.10
   6  -2 -14   80.29    3.80
  -6   2  14   74.19    4.20
  -5   2  14   12.00    1.70
  -4   2  14   16.30    1.80
   3  -2 -14   11.00    1.30
   3  -2 -14   12.10    2.00
   3  -2 -14   25.40    4.90
   2  -2 -14    4.70    2.80
   2  -2 -14    3.20    0.80
   2  -2 -14    2.60    1.40
   2  -2 -14    4.60    1.30
   1  -2 -14  145.39    7.10
   1  -2 -14  154.58    6.00
   1  -2 -14  147.29    9.80
   1  -2 -14  143.09    6.40
  -1   2  14  144.29    6.80
   0  -2 -14   27.80    1.80
   0  -2 -14   29.40    2.30
   0  -2 -14   25.70    4.50
   0  -2 -14   24.20    2.70
  -1  -2 -14    2.00    1.30
  -1  -2 -14    2.20    0.80
  -1  -2 -14    0.20    0.90
  -1  -2 -14    1.90    1.90
  -2  -2 -14    9.30    2.00
  -2  -2 -14    8.10    1.10
  -2  -2 -14    6.80    1.40
  -2  -2 -14    6.50    2.60
  -3  -2 -14  120.49    5.90
  -3  -2 -14  123.29    5.10
  -3  -2 -14  126.69    6.70
  -3  -2 -14  122.59    8.80
  -4  -2 -14  110.69    4.70
  -4  -2 -14  111.69    5.50
  -4  -2 -14  111.59    6.20
  -5  -2 -14    4.60    1.60
  -5  -2 -14    4.70    1.50
  -6  -2 -14   22.00    2.60
  -6  -2 -14   23.50    2.30
 -10   3  14   -0.30    0.80
  -9   3  14    3.40    1.20
  -8   3  14   13.70    1.80
  -7   3  14   22.00    2.30
   6  -3 -14    0.30    0.90
  -6   3  14    0.30    1.00
  -5   3  14    1.40    1.00
   3  -3 -14   12.30    2.10
   3  -3 -14   15.30    4.20
   3  -3 -14   14.10    1.40
  -3   3  14   14.90    1.70
   2  -3 -14   14.20    1.70
   2  -3 -14   11.80    1.30
   2  -3 -14    9.20    1.90
   2  -3 -14   13.50    3.60
   1  -3 -14    1.30    1.30
   1  -3 -14    2.70    1.00
   1  -3 -14    1.20    0.70
   1  -3 -14    0.60    1.90
   0  -3 -14    0.10    0.60
   0  -3 -14   -0.10    0.90
   0  -3 -14   -0.50    1.20
   0  -3 -14   -0.40    1.60
  -1  -3 -14   25.20    1.80
  -1  -3 -14   24.30    4.50
  -1  -3 -14   24.70    2.30
  -1  -3 -14   25.20    2.90
  -2  -3 -14   15.90    3.40
  -2  -3 -14   18.30    1.50
  -2  -3 -14   20.00    2.20
  -2  -3 -14   22.60    2.80
  -3  -3 -14    5.00    2.40
  -3  -3 -14    6.30    1.80
  -3  -3 -14    5.90    0.90
  -3  -3 -14    7.30    1.60
  -4  -3 -14    6.50    1.80
  -4  -3 -14    4.20    1.70
  -5  -3 -14    1.10    1.30
 -10   4  14    2.20    1.00
  -9   4  14    0.80    0.90
  -8   4  14    7.80    1.40
   7  -4 -14   74.19    3.60
  -7   4  14   69.09    4.00
   6  -4 -14   65.79    3.60
  -6   4  14   63.49    3.70
   5  -4 -14   -1.50    1.20
  -5   4  14    0.60    0.90
   4  -4 -14    6.60    1.10
   4  -4 -14    6.90    3.30
   4  -4 -14    7.40    1.70
  -4   4  14    6.60    1.20
   3  -4 -14   61.19    4.10
   3  -4 -14   62.79    3.00
   3  -4 -14   57.29    6.70
  -3   4  14   54.99    3.30
   2  -4 -14  390.76   18.70
   2  -4 -14  370.06   14.30
   2  -4 -14  387.36   15.70
   1  -4 -14   71.69    7.00
   1  -4 -14   83.69    5.10
   1  -4 -14   82.59    3.70
   0  -4 -14    4.70    0.90
   0  -4 -14    5.00    1.60
   0  -4 -14    4.00    2.30
  -1  -4 -14   11.40    3.10
  -1  -4 -14   14.70    2.30
  -1  -4 -14   14.90    1.30
  -2  -4 -14   36.70    3.40
  -2  -4 -14   36.30    5.20
  -2  -4 -14   37.50    2.00
  -3  -4 -14  128.19    6.60
  -4  -4 -14    6.30    1.70
 -10   5  14    1.50    0.80
  -9   5  14   19.90    1.80
  -8   5  14    1.20    1.00
   7  -5 -14    1.90    1.00
  -7   5  14    2.40    1.00
   6  -5 -14    4.10    1.30
  -6   5  14    7.20    1.40
   5  -5 -14   -0.80    1.40
   5  -5 -14   -0.30    1.00
   4  -5 -14   16.90    4.30
   4  -5 -14   13.80    1.50
   4  -5 -14   17.30    2.50
   3  -5 -14   -0.10    2.50
   3  -5 -14   -0.70    0.70
   3  -5 -14   -0.20    1.20
   2  -5 -14    0.30    2.20
   2  -5 -14    0.20    1.30
   2  -5 -14   -0.20    0.70
   1  -5 -14   -0.70    1.30
   1  -5 -14    0.50    0.70
   1  -5 -14    0.60    2.00
   0  -5 -14   31.70    4.90
   0  -5 -14   30.60    3.20
   0  -5 -14   26.50    1.80
  -1  -5 -14    8.20    2.70
  -1  -5 -14   10.40    2.10
  -1  -5 -14   12.00    1.20
  -2  -5 -14    8.70    2.00
  -2  -5 -14    8.20    2.50
  -3  -5 -14   21.40    2.70
   7  -6 -14   50.29    3.20
  -7   6  14   73.19    7.20
   6  -6 -14    2.00    1.20
   6  -6 -14    1.50    1.70
   5  -6 -14    4.50    1.00
   5  -6 -14    5.30    2.40
   5  -6 -14    3.30    1.30
   5  -6 -14    4.90    1.90
   4  -6 -14   16.10    1.60
   4  -6 -14   18.10    3.80
   4  -6 -14   14.80    2.40
   3  -6 -14    0.80    2.20
   3  -6 -14    2.10    0.90
   3  -6 -14    3.50    1.70
   2  -6 -14    4.50    2.60
   2  -6 -14    7.10    1.20
   2  -6 -14    6.10    1.80
   1  -6 -14    2.60    2.10
   1  -6 -14    2.30    1.50
   1  -6 -14    3.20    0.80
   0  -6 -14    3.20    1.50
   0  -6 -14    4.90    2.40
   0  -6 -14    5.10    0.90
  -1  -6 -14    6.40    2.50
  -1  -6 -14    4.50    1.60
  -1  -6 -14    4.90    0.80
  -2  -6 -14   45.10    5.30
  -2  -6 -14   41.20    3.30
   8  -7 -14    0.10    0.70
  -8   7  14   -2.50    3.30
   7  -7 -14    9.40    1.40
  -7   7  14   19.70    4.40
   6  -7 -14    0.30    1.10
   6  -7 -14   -1.40    1.60
   5  -7 -14    2.30    1.20
   5  -7 -14    1.00    1.80
   5  -7 -14    0.30    0.70
   5  -7 -14    1.30    1.80
   4  -7 -14    6.20    1.20
   4  -7 -14    5.70    2.50
   4  -7 -14    8.20    2.10
   3  -7 -14   15.40    1.50
   3  -7 -14   16.40    2.50
   3  -7 -14   12.40    3.20
   2  -7 -14   47.80    5.70
   2  -7 -14   53.09    4.00
   2  -7 -14   49.90    2.70
   1  -7 -14   14.50    3.40
   1  -7 -14   17.70    1.50
   1  -7 -14   22.40    2.80
   0  -7 -14    1.40    1.30
   0  -7 -14    2.20    0.70
   0  -7 -14    2.30    2.00
  -1  -7 -14    1.80    1.90
  -1  -7 -14    1.40    1.20
  -2  -7 -14    6.90    2.50
   8  -8 -14   19.80    1.50
  -8   8  14   21.60    3.80
   7  -8 -14    3.20    1.10
  -7   8  14   10.20    3.90
   6  -8 -14    8.60    1.60
  -6   8  14   10.10    3.70
   5  -8 -14   22.70    4.40
   5  -8 -14   27.00    3.20
   5  -8 -14   20.60    2.50
   4  -8 -14    9.80    1.20
   4  -8 -14   13.80    2.60
   3  -8 -14   28.90    4.90
   3  -8 -14   31.50    2.10
   3  -8 -14   33.30    3.50
   2  -8 -14    7.90    1.10
   2  -8 -14    8.50    2.00
   2  -8 -14    5.20    2.50
   1  -8 -14   29.10    4.70
   1  -8 -14   27.70    3.10
   0  -8 -14    3.90    2.20
   0  -8 -14    3.50    1.60
  -1  -8 -14   15.80    3.40
   8  -9 -14    4.50    0.80
  -8   9  14    2.60    2.60
   7  -9 -14    6.30    1.30
  -7   9  14    9.30    3.50
   6  -9 -14    2.40    1.10
  -6   9  14    4.20    3.00
   5  -9 -14    5.10    1.40
   5  -9 -14    4.50    2.00
   5  -9 -14    3.80    2.30
   4  -9 -14   20.00    2.80
   4  -9 -14   21.00    4.30
   4  -9 -14   20.00    2.30
   3  -9 -14   47.10    5.60
   3  -9 -14   46.70    4.00
   2  -9 -14    0.50    1.80
   2  -9 -14    1.10    1.80
   1  -9 -14    2.50    2.30
   1  -9 -14    2.60    1.70
   0  -9 -14    8.40    2.70
  -1  -9 -14    5.70    2.50
   7 -10 -14    8.30    1.30
  -7  10  14    7.10    2.80
   6 -10 -14    2.20    1.10
  -6  10  14    1.80    2.70
   5 -10 -14   10.70    2.90
   5 -10 -14   13.00    1.60
  -5  10  14   15.60    3.00
   4 -10 -14   13.10    1.60
   4 -10 -14   10.80    2.90
  -4  10  14    7.30    2.60
   3 -10 -14    2.60    2.20
  -3  10  14   -4.50    1.80
   2 -10 -14    1.80    2.20
   1 -10 -14    0.40    2.10
   0 -10 -14    9.30    2.70
   6 -11 -14    2.10    1.10
   5 -11 -14   32.90    2.40
   5 -11 -14   32.70    4.60
   4 -11 -14   12.90    2.80
   4 -11 -14   12.80    1.50
   3 -11 -14    8.90    2.60
  -1  12 -15   -0.40    1.20
   1 -12  15    1.40    1.00
  -2  12 -15   -0.60    1.30
   2 -12  15    0.30    0.80
  -3  12 -15   -1.20    1.20
   3 -12  15    0.90    0.80
  -4  12 -15   -0.30    1.50
   4 -12  15   -0.30    0.80
  -5  12 -15   -0.60    1.60
   5 -12  15    0.10    0.70
   6 -12  15   -0.30    1.00
   1  11 -15   14.00    2.50
  -1 -11  15   10.60    1.50
   0  11 -15    1.00    1.50
   0 -11  15    1.60    1.10
  -1  11 -15   17.10    3.50
   1 -11  15   16.30    2.10
  -2  11 -15   74.29    6.00
   2 -11  15   76.79    4.10
  -3  11 -15  101.29    7.00
   3 -11  15  106.19    5.10
  -4  11 -15   -0.70    1.80
   4 -11  15    1.10    1.10
  -5  11 -15    1.00    1.90
   5 -11  15    1.30    1.00
   6 -11  15    1.00    0.90
   7 -11  15   45.30    2.60
  -2 -10  15    1.30    1.00
   1  10 -15    1.10    1.70
  -1 -10  15    0.40    1.00
   0  10 -15    0.60    1.70
   0 -10  15    0.00    1.10
  -1  10 -15    0.60    1.70
   1 -10  15    0.80    1.20
  -2  10 -15   15.10    3.20
   2 -10  15   17.60    2.20
  -3  10 -15   10.60    2.80
   3 -10  15   14.50    1.90
  -4  10 -15   11.30    3.00
   4 -10  15   14.00    2.00
  -5  10 -15    0.80    2.00
   5 -10  15    0.80    1.00
   6 -10  15    7.00    1.40
   7 -10  15    5.20    1.20
   8 -10  15   16.30    1.60
  -2  -9  15    2.00    1.30
   1   9 -15    0.20    1.80
  -1  -9  15   -0.90    1.10
   0   9 -15   16.00    3.40
   0  -9  15   20.20    2.30
  -1   9 -15   22.60    4.50
   1  -9  15   26.40    2.60
  -2   9 -15   44.60    5.40
   2  -9  15   51.39    3.50
  -3   9 -15    8.70    2.80
   3  -9  15   12.30    1.90
  -4   9 -15    5.00    2.40
   4  -9  15    5.50    1.40
  -5   9 -15    2.50    2.10
   5  -9  15    3.10    1.30
   6  -9  15   26.40    2.40
   7  -9  15   13.00    1.80
  -8   9 -15   -0.20    1.00
   8  -9  15   -0.50    0.80
  -4  -8  15    0.00    1.00
  -3  -8  15    2.10    1.30
   2   8 -15    1.30    2.00
  -2  -8  15    0.40    1.20
   1   8 -15    1.30    2.20
  -1  -8  15    1.40    1.30
   0   8 -15    3.10    2.30
   0  -8  15    3.30    1.40
  -1   8 -15   25.30    4.90
   1  -8  15   26.60    2.70
  -2   8 -15   17.20    3.50
   2  -8  15   25.50    2.50
  -3   8 -15   -0.40    1.70
   3  -8  15    1.30    1.10
  -4   8 -15   -0.20    1.80
   4  -8  15    0.10    1.10
  -5   8 -15    7.30    2.60
   5  -8  15    6.50    1.50
   6  -8  15   15.90    2.00
  -7   8 -15   30.70    3.00
   7  -8  15   31.00    2.50
  -8   8 -15   17.90    2.40
   8  -8  15   19.40    1.90
  -9   8 -15    8.90    1.60
   9  -8  15   15.00    1.60
  -5  -7  15    5.90    1.30
  -4  -7  15   16.60    2.10
  -3  -7  15    6.40    1.60
   2   7 -15    0.70    2.10
  -2  -7  15    1.10    1.20
   1   7 -15    3.90    2.60
  -1  -7  15    3.90    1.40
   0   7 -15    8.10    3.10
   0  -7  15   10.20    1.80
  -1   7 -15   17.40    3.70
   1  -7  15   20.40    2.40
  -2   7 -15    4.50    2.30
   2  -7  15    5.40    1.40
  -3   7 -15    1.30    1.90
   3  -7  15    1.10    1.10
  -4   7 -15    1.40    2.00
   4  -7  15    1.60    1.20
  -5   7 -15    2.30    2.10
   5  -7  15    2.40    1.20
  -6   7 -15    2.70    1.60
   6  -7  15    1.70    1.10
  -7   7 -15    3.80    1.70
   7  -7  15    4.20    1.30
  -8   7 -15    6.50    1.80
   8  -7  15    8.80    1.50
  -9   7 -15   -1.10    1.10
   9  -7  15    0.10    0.70
  -4  -6  15   67.79    4.20
  -3  -6  15   48.30    3.40
   2   6 -15   32.30    5.40
  -2  -6  15   30.60    2.80
   1   6 -15   14.10    3.80
  -1  -6  15   12.80    2.00
   0   6 -15    0.80    2.20
   0  -6  15    1.00    1.10
  -1   6 -15  227.28   12.80
   1  -6  15  233.88    9.80
  -2   6 -15  359.86   17.40
   2  -6  15  352.06   14.20
  -3   6 -15   25.20    4.60
   3  -6  15   25.90    2.50
  -4   6 -15    1.60    2.00
  -4   6 -15    3.40    1.20
   4  -6  15    1.20    1.10
  -5   6 -15    1.80    1.60
  -5   6 -15   -0.70    1.90
  -5   6 -15    2.30    1.20
   5  -6  15    2.40    1.20
  -6   6 -15    8.40    2.00
  -6   6 -15   11.30    1.70
  -6   6 -15    7.50    1.30
   6  -6  15   11.50    1.80
  -7   6 -15   54.09    3.30
  -7   6 -15   54.79    4.10
   7  -6  15   55.89    3.50
  -8   6 -15    5.00    1.30
  -8   6 -15    6.70    1.80
   8  -6  15    8.60    1.50
  -9   6 -15    3.30    1.00
  -9   6 -15    1.50    1.30
   9  -6  15    1.50    0.90
   2   5 -15   17.50    4.10
  -2  -5  15   12.50    1.90
   1   5 -15   52.99    6.30
  -1  -5  15   44.60    3.20
   0   5 -15   18.10    1.90
   0   5 -15   18.10    3.90
   0  -5  15   18.80    2.30
  -1   5 -15   10.10    2.90
  -1   5 -15   13.20    1.70
   1  -5  15   13.80    1.90
  -2   5 -15    3.60    1.20
  -2   5 -15    1.80    2.00
   2  -5  15    3.70    1.20
  -3   5 -15    4.50    1.00
  -3   5 -15    2.40    2.00
  -3   5 -15    3.20    1.30
   3  -5  15    3.00    1.20
  -4   5 -15    6.50    1.20
  -4   5 -15    4.40    2.20
  -4   5 -15    8.10    2.00
  -4   5 -15    9.50    1.70
   4  -5  15    4.60    1.30
  -5   5 -15    3.90    1.10
  -5   5 -15    5.30    1.90
  -5   5 -15    5.30    1.50
   5  -5  15    4.10    1.40
  -6   5 -15    7.00    2.00
  -6   5 -15    8.70    1.30
  -6   5 -15    7.10    1.60
   6  -5  15    8.50    1.60
  -7   5 -15   12.50    1.80
  -7   5 -15   13.20    2.30
   7  -5  15   16.60    2.00
  -8   5 -15   -0.40    1.10
  -8   5 -15   -1.00    1.30
   8  -5  15    0.80    0.90
  -9   5 -15   -0.30    0.90
  -9   5 -15    0.10    1.10
   9  -5  15   -0.60    0.70
  -5  -4  15    7.80    1.30
  -4  -4  15   40.60    2.70
  -3  -4  15  119.49    5.40
   2   4 -15   39.90    5.90
  -2  -4  15   36.70    2.50
   1   4 -15  120.59    8.90
   1   4 -15  124.29    5.60
   0   4 -15   15.60    1.80
   0   4 -15   17.30    3.70
  -1   4 -15   21.80    2.20
  -1   4 -15   23.50    4.50
  -2   4 -15    2.60    2.00
  -2   4 -15    3.20    0.90
  -2   4 -15    3.80    1.30
   2  -4  15    2.50    1.10
  -3   4 -15   40.40    5.30
  -3   4 -15   43.40    2.70
  -3   4 -15   44.90    3.80
  -3   4 -15   45.70    3.10
   3  -4  15   44.50    3.00
  -4   4 -15    1.70    0.90
  -4   4 -15    0.60    1.50
  -4   4 -15    3.40    2.20
  -4   4 -15    3.60    1.30
   4  -4  15    1.40    1.10
  -5   4 -15   42.20    4.00
  -5   4 -15   45.50    2.70
  -5   4 -15   40.10    3.20
   5  -4  15   41.40    3.00
  -6   4 -15    6.80    1.70
  -6   4 -15    7.00    2.10
  -6   4 -15    6.60    1.30
   6  -4  15    8.60    1.60
  -7   4 -15   12.90    2.30
  -7   4 -15   12.80    1.90
   7  -4  15   12.30    1.70
  -8   4 -15    7.40    1.50
  -8   4 -15    7.60    1.90
   8  -4  15    8.40    1.40
  -9   4 -15    0.50    0.90
  -9   4 -15    0.70    1.20
   9  -4  15    0.70    0.70
  -7  -3  15    2.40    1.00
  -6  -3  15    7.20    1.30
  -5  -3  15   20.50    2.10
  -4  -3  15   47.60    3.00
  -3  -3  15   43.80    2.80
   2   3 -15    2.60    2.70
  -2  -3  15    0.20    0.90
   1   3 -15    0.20    1.00
   1   3 -15    1.00    2.10
   0   3 -15    4.60    1.20
   0   3 -15    2.80    2.10
  -1   3 -15    1.70    1.10
  -1   3 -15    1.00    0.80
  -1   3 -15    0.80    1.90
  -2   3 -15    3.60    1.80
  -2   3 -15    2.00    1.20
  -2   3 -15    3.40    2.10
  -2   3 -15    4.20    1.00
  -3   3 -15    1.60    0.90
  -3   3 -15    3.40    1.70
  -3   3 -15    2.20    1.30
  -3   3 -15    2.00    2.00
  -4   3 -15    7.50    1.60
  -4   3 -15    6.30    1.20
  -4   3 -15    4.70    2.40
  -4   3 -15    5.60    1.90
   4  -3  15    7.30    2.10
  -5   3 -15    0.20    1.60
  -5   3 -15    0.10    1.30
  -5   3 -15   -0.10    0.90
   5  -3  15   -0.60    0.90
  -6   3 -15   24.90    2.60
  -6   3 -15   27.70    3.30
  -6   3 -15   25.50    2.10
   6  -3  15   26.50    2.30
  -7   3 -15   14.30    2.50
  -7   3 -15   13.90    1.90
   7  -3  15   16.10    1.90
  -8   3 -15   -0.60    1.20
  -8   3 -15    0.10    1.10
   8  -3  15   -0.50    0.80
  -9   3 -15    1.00    1.00
  -9  -2  15   22.20    1.60
  -8  -2  15    1.00    0.90
  -7  -2  15    4.30    1.10
  -6  -2  15   -0.50    1.00
  -5  -2  15   11.00    1.70
  -4  -2  15    5.40    1.30
  -3  -2  15    1.30    0.90
   2   2 -15   42.10    2.90
   2   2 -15   48.50    6.00
   1   2 -15   51.69    3.30
   1   2 -15   57.89    6.30
   0   2 -15  168.78    6.80
   0   2 -15  165.28   10.20
   0   2 -15  160.48    7.10
  -1   2 -15    0.70    0.80
  -1   2 -15    0.60    1.30
  -1   2 -15    2.60    1.90
  -1   2 -15    2.10    1.10
  -2   2 -15   30.90    2.70
  -2   2 -15   24.20    4.40
  -2   2 -15   28.70    3.30
  -2   2 -15   26.20    2.00
  -3   2 -15   10.20    1.70
  -3   2 -15    8.40    2.10
  -3   2 -15   10.10    2.90
  -3   2 -15    7.90    1.30
  -4   2 -15  126.49    8.90
  -4   2 -15  127.29    6.00
  -4   2 -15  123.49    6.90
  -4   2 -15  119.89    5.40
  -5   2 -15  185.88    9.10
  -5   2 -15  184.18    7.50
  -5   2 -15  181.48    8.10
  -6   2 -15   67.59    4.10
  -6   2 -15   69.79    4.90
  -6   2 -15   67.29    3.40
  -7   2 -15   12.70    1.90
  -7   2 -15   12.30    2.20
  -8   2 -15    0.50    1.20
  -8   2 -15    0.10    1.10
  -9   2 -15    2.90    0.90
  -9  -1  15    4.20    1.00
  -8  -1  15    0.00    0.80
  -7  -1  15    2.80    1.10
  -6  -1  15    1.30    1.10
  -5  -1  15    1.80    1.10
  -4  -1  15    1.30    1.00
  -3  -1  15   37.10    2.60
   2   1 -15   12.40    1.70
   2   1 -15   18.40    4.20
   1   1 -15   25.00    1.80
   1   1 -15   26.20    5.10
   1   1 -15   24.70    2.40
   0   1 -15  116.79    8.40
   0   1 -15  114.59    5.30
   0   1 -15  109.09    5.80
   0   1 -15  107.49    4.80
  -1   1 -15   25.10    4.50
  -1   1 -15   23.20    2.90
  -1   1 -15   23.60    2.40
  -1   1 -15   25.70    2.00
  -2   1 -15   61.49    6.30
  -2   1 -15   62.49    4.50
  -2   1 -15   64.29    3.70
  -2   1 -15   64.79    3.20
  -3   1 -15   -0.80    1.60
  -3   1 -15   -0.50    1.20
  -3   1 -15    0.70    1.60
  -3   1 -15    0.10    0.80
  -4   1 -15    6.00    1.60
  -4   1 -15    4.80    1.90
  -4   1 -15    7.90    1.20
  -5   1 -15   16.70    2.20
  -5   1 -15   20.10    1.80
  -5   1 -15   16.40    2.60
  -6   1 -15   34.20    3.50
  -6   1 -15   32.70    2.90
  -6   1 -15   32.90    2.20
  -7   1 -15    2.40    1.20
  -7   1 -15    1.90    1.50
  -8   1 -15    0.70    1.00
  -8   1 -15    0.70    1.10
  -9   0  15    0.50    0.90
  -8   0  15   -0.10    0.90
  -7   0  15   18.00    2.00
  -6   0  15  104.19    5.20
   5   0 -15   75.79    3.60
  -5   0  15   74.29    4.10
  -4   0  15    5.20    1.30
   3   0 -15    5.90    2.80
  -3   0  15    2.30    1.10
   2   0 -15   24.00    4.70
   2   0 -15   18.30    1.70
   2   0 -15   20.50    2.10
   1   0 -15   61.69    4.20
   1   0 -15   65.69    3.70
   1   0 -15   71.29    3.30
   1   0 -15   67.59    6.80
   0   0 -15   89.89    5.30
   0   0 -15   90.19    7.70
   0   0 -15  113.79    4.40
   0   0 -15   90.69    4.70
  -1   0 -15    1.20    0.90
  -1   0 -15    3.20    2.00
  -1   0 -15    1.20    1.40
  -1   0 -15    2.30    1.20
  -2   0 -15   21.40    1.80
  -2   0 -15   22.30    2.80
  -2   0 -15   22.40    4.50
  -2   0 -15   21.60    2.20
  -3   0 -15   16.80    1.70
  -3   0 -15   19.10    2.20
  -3   0 -15   12.60    3.20
  -3   0 -15   17.00    2.60
  -4   0 -15    7.70    2.00
  -4   0 -15    6.00    1.50
  -4   0 -15    7.40    1.10
  -5   0 -15    1.30    1.60
  -5   0 -15    2.20    0.90
  -5   0 -15    2.10    1.40
  -6   0 -15    5.70    1.50
  -6   0 -15    6.30    1.80
  -7   0 -15    2.40    1.30
  -7   0 -15    1.80    1.20
  -8   0 -15    0.90    0.90
 -10   1  15    5.20    1.00
  -9   1  15    1.60    0.90
  -8   1  15    5.20    1.30
  -7   1  15    0.60    1.20
   5  -1 -15   19.10    1.80
  -5   1  15   21.10    2.20
  -4   1  15    2.20    1.10
   3  -1 -15    7.30    1.00
   3  -1 -15   13.40    3.90
  -3   1  15    6.90    1.40
   2  -1 -15   16.20    2.20
   2  -1 -15   15.70    1.60
   2  -1 -15   13.40    1.80
   2  -1 -15   17.80    4.10
   1  -1 -15  180.38   11.00
   1  -1 -15  172.48    7.00
   1  -1 -15  169.78    7.40
   1  -1 -15  170.48    8.10
   0  -1 -15   77.69    4.80
   0  -1 -15   77.79    3.60
   0  -1 -15   78.59    4.10
   0  -1 -15   77.59    6.80
  -1  -1 -15   22.90    4.50
  -1  -1 -15   27.80    1.90
  -1  -1 -15   23.90    2.90
  -1  -1 -15   25.90    2.40
  -2  -1 -15   52.79    2.70
  -2  -1 -15   49.30    3.30
  -2  -1 -15   51.09    5.90
  -2  -1 -15   48.20    4.00
  -3  -1 -15   26.10    2.50
  -3  -1 -15   24.30    3.00
  -3  -1 -15   27.90    5.10
  -3  -1 -15   25.00    1.90
  -4  -1 -15   31.90    3.30
  -4  -1 -15   25.60    1.90
  -4  -1 -15   26.90    2.70
  -5  -1 -15   29.70    2.70
  -5  -1 -15   26.80    1.80
  -5  -1 -15   24.60    3.00
  -6  -1 -15   11.90    2.00
  -6  -1 -15    9.00    1.60
  -7  -1 -15    0.60    0.90
 -10   2  15   13.60    1.40
  -9   2  15   -0.30    0.90
  -8   2  15   12.80    1.70
  -7   2  15   20.10    2.30
   6  -2 -15    8.90    1.30
  -6   2  15    8.60    1.60
  -5   2  15   35.20    2.70
   4  -2 -15   56.19    5.10
   3  -2 -15   26.70    1.90
   3  -2 -15   28.00    5.60
   3  -2 -15   23.10    2.70
  -3   2  15   26.60    2.30
   2  -2 -15    8.60    1.80
   2  -2 -15   10.20    1.20
   2  -2 -15    7.90    1.40
   2  -2 -15   11.60    3.60
   1  -2 -15   29.10    2.90
   1  -2 -15   29.80    5.20
   1  -2 -15   26.10    2.00
   1  -2 -15   29.80    2.40
   0  -2 -15    1.20    0.70
   0  -2 -15    0.70    1.90
   0  -2 -15    1.80    1.40
   0  -2 -15    0.20    1.00
  -1  -2 -15    0.60    0.70
  -1  -2 -15    0.50    1.10
  -1  -2 -15    2.50    2.10
  -1  -2 -15    2.50    1.50
  -2  -2 -15   23.70    3.00
  -2  -2 -15   25.10    1.80
  -2  -2 -15   19.80    3.90
  -2  -2 -15   21.70    2.20
  -3  -2 -15   23.20    2.90
  -3  -2 -15   25.10    2.40
  -3  -2 -15   25.40    1.80
  -3  -2 -15   18.90    3.80
  -4  -2 -15    2.00    0.80
  -4  -2 -15    1.40    1.50
  -4  -2 -15    3.80    1.30
  -5  -2 -15    1.40    1.40
  -5  -2 -15    1.30    1.20
  -6  -2 -15    3.20    1.20
  -6  -2 -15    0.00    1.30
 -10   3  15    2.20    0.80
  -9   3  15    4.80    1.10
  -8   3  15    8.00    1.40
  -7   3  15   54.49    3.40
   6  -3 -15   28.30    2.20
  -6   3  15   26.50    2.40
  -5   3  15    1.70    1.10
   4  -3 -15    2.70    1.30
   4  -3 -15    2.10    2.60
   4  -3 -15    2.30    0.80
  -4   3  15    1.80    1.00
   3  -3 -15    3.80    1.40
   3  -3 -15    3.60    3.10
   3  -3 -15    5.80    1.00
  -3   3  15    5.30    1.30
   2  -3 -15  119.99    6.40
   2  -3 -15  128.39    9.60
   2  -3 -15  119.19    5.60
   2  -3 -15  125.39    5.20
   1  -3 -15   59.89    4.30
   1  -3 -15   61.19    3.00
   1  -3 -15   64.09    6.80
   1  -3 -15   51.29    3.30
   0  -3 -15   23.40    2.20
   0  -3 -15   28.10    3.10
   0  -3 -15   25.60    1.80
   0  -3 -15   24.00    4.80
  -1  -3 -15   24.20    4.60
  -1  -3 -15   24.40    2.30
  -1  -3 -15   23.80    3.00
  -1  -3 -15   25.80    1.80
  -2  -3 -15   96.29    7.80
  -2  -3 -15   97.39    4.10
  -2  -3 -15   94.39    4.80
  -2  -3 -15   96.59    5.60
  -3  -3 -15   54.29    5.80
  -3  -3 -15   54.59    2.70
  -3  -3 -15   54.49    4.10
  -3  -3 -15   51.39    3.30
  -4  -3 -15   63.69    4.20
  -5  -3 -15   11.30    1.80
 -10   4  15    8.70    1.10
  -9   4  15    1.80    0.90
  -8   4  15   10.70    1.50
   7  -4 -15    0.30    0.80
  -7   4  15    1.10    1.00
   6  -4 -15    0.70    1.00
  -6   4  15    0.90    1.00
  -5   4  15    1.00    1.00
   4  -4 -15   11.40    2.00
   4  -4 -15   11.60    1.30
   4  -4 -15   12.10    3.50
  -4   4  15   10.70    1.50
   3  -4 -15    1.70    1.30
   3  -4 -15    1.40    2.50
   3  -4 -15    1.00    0.80
  -3   4  15    0.80    0.90
   2  -4 -15    5.00    2.60
   2  -4 -15    6.10    1.80
   2  -4 -15    4.80    1.30
   2  -4 -15    6.00    1.00
   1  -4 -15    0.80    1.40
   1  -4 -15    0.00    0.70
   1  -4 -15    1.00    2.20
   0  -4 -15    2.90    1.70
   0  -4 -15    2.80    0.80
   0  -4 -15    3.80    2.20
  -1  -4 -15   -0.20    1.40
  -1  -4 -15    0.10    1.80
  -1  -4 -15    0.30    0.60
  -2  -4 -15   -0.20    1.80
  -2  -4 -15   -0.30    1.40
  -2  -4 -15    0.60    0.60
  -3  -4 -15    2.20    1.50
  -4  -4 -15   -0.60    1.30
 -10   5  15    2.50    0.80
  -9   5  15    1.00    0.80
  -8   5  15   21.60    1.90
   7  -5 -15   35.60    2.30
  -7   5  15   28.90    2.40
   6  -5 -15   15.50    1.80
  -6   5  15   13.00    1.70
   5  -5 -15    0.40    1.00
   5  -5 -15   -0.20    1.40
   4  -5 -15    2.30    2.40
   4  -5 -15    1.00    1.50
   4  -5 -15    2.70    0.90
   3  -5 -15    3.20    0.90
   3  -5 -15    2.10    1.40
   3  -5 -15    2.40    2.50
   2  -5 -15   38.40    3.50
   2  -5 -15   35.90    2.20
   2  -5 -15   35.00    5.80
   1  -5 -15   16.60    1.50
   1  -5 -15   15.70    2.40
   1  -5 -15   13.30    3.40
   0  -5 -15    4.30    1.60
   0  -5 -15    1.40    2.00
   0  -5 -15    1.70    0.80
  -1  -5 -15   27.70    1.80
  -1  -5 -15   31.20    5.00
  -1  -5 -15   29.80    3.20
  -2  -5 -15   44.30    3.50
  -2  -5 -15   47.60    5.30
  -3  -5 -15   39.70    3.20
  -7   6  15    9.80    4.00
   6  -6 -15    0.20    1.10
   6  -6 -15   -1.70    2.10
   5  -6 -15    0.10    1.60
   5  -6 -15    0.60    1.10
   5  -6 -15   -0.90    1.50
   4  -6 -15   32.90    5.30
   4  -6 -15   37.40    2.30
   4  -6 -15   38.20    3.60
   3  -6 -15    2.40    2.20
   3  -6 -15    0.30    0.80
   3  -6 -15    1.10    1.50
   2  -6 -15    0.10    0.80
   2  -6 -15    0.30    2.10
   2  -6 -15    1.60    1.40
   1  -6 -15    0.50    1.90
   1  -6 -15    0.50    1.30
   1  -6 -15    0.30    0.70
   0  -6 -15    0.20    0.60
   0  -6 -15   -0.80    1.20
   0  -6 -15   -0.70    1.70
  -1  -6 -15    0.40    1.80
  -1  -6 -15   -1.30    1.10
  -2  -6 -15    5.30    1.50
  -2  -6 -15    3.60    2.10
   7  -7 -15   32.70    2.30
  -7   7  15   48.90    6.20
   6  -7 -15    2.00    1.20
   6  -7 -15   -2.40    1.50
   5  -7 -15    4.10    2.20
   5  -7 -15    4.80    1.40
   5  -7 -15    6.90    2.10
   4  -7 -15   50.49    4.00
   4  -7 -15   48.10    5.50
   4  -7 -15   48.20    3.20
   4  -7 -15   43.50    2.60
   3  -7 -15   44.80    2.50
   3  -7 -15   48.10    3.90
   3  -7 -15   40.00    5.20
   2  -7 -15   47.70    3.80
   2  -7 -15   46.70    5.50
   2  -7 -15   45.20    2.50
   1  -7 -15    1.10    1.80
   1  -7 -15    1.40    1.40
   0  -7 -15   12.60    2.00
   0  -7 -15    8.30    2.70
  -1  -7 -15   11.80    1.90
  -1  -7 -15   12.60    2.90
  -8   8  15   -1.90    2.30
   7  -8 -15    2.60    1.00
  -7   8  15    8.80    3.60
   6  -8 -15    0.70    1.10
  -6   8  15   -0.50    2.90
   5  -8 -15    2.20    1.90
   5  -8 -15    1.30    1.20
   5  -8 -15    0.70    1.60
   4  -8 -15    8.50    2.20
   4  -8 -15    7.30    1.50
   4  -8 -15    7.00    2.50
   3  -8 -15   47.20    3.90
   3  -8 -15   45.10    5.30
   2  -8 -15   57.79    5.90
   2  -8 -15   50.99    4.00
   1  -8 -15   10.70    2.90
   1  -8 -15   11.60    2.10
   0  -8 -15    1.30    1.90
   0  -8 -15    0.20    1.40
  -1  -8 -15    4.90    2.40
   7  -9 -15    2.70    1.00
  -7   9  15    2.30    2.70
   6  -9 -15    3.10    1.10
  -6   9  15    7.30    3.20
   5  -9 -15   12.40    2.90
   5  -9 -15   19.20    2.20
  -5   9  15   13.60    3.10
   4  -9 -15   14.40    1.80
   4  -9 -15    8.30    2.60
   4  -9 -15   13.10    2.40
   3  -9 -15    5.80    2.30
   3  -9 -15    7.70    2.00
   2  -9 -15    2.30    1.60
   2  -9 -15   -0.40    1.80
   1  -9 -15   -1.20    1.40
   1  -9 -15    1.50    1.90
   0  -9 -15    4.10    2.20
   7 -10 -15    2.40    0.90
   6 -10 -15   10.50    1.40
  -6  10  15   10.00    2.70
   5 -10 -15   11.20    1.50
   5 -10 -15   11.20    2.60
  -5  10  15   11.20    2.80
   4 -10 -15   11.80    2.80
   4 -10 -15   15.40    1.90
  -4  10  15   17.80    2.80
   3 -10 -15    5.80    2.30
  -3  10  15    2.90    2.20
   2 -10 -15    0.70    2.00
  -2  12 -16    4.30    1.60
  -3  12 -16   13.40    2.70
  -4  12 -16   15.70    2.90
   0  11 -16   12.50    2.60
   0 -11  16   13.30    1.60
  -1  11 -16    0.40    1.40
   1 -11  16    0.10    0.80
  -2  11 -16   -0.30    1.40
   2 -11  16    1.20    0.90
  -3  11 -16   -0.20    1.50
   3 -11  16   -0.30    0.90
  -4  11 -16    2.20    1.90
   4 -11  16    2.20    1.00
  -5  11 -16   -0.20    1.50
   5 -11  16    1.20    0.90
   6 -11  16   -0.10    0.80
   1  10 -16    8.40    2.10
   0  10 -16   39.20    4.30
   0 -10  16   36.70    2.70
  -1  10 -16   27.70    4.10
   1 -10  16   28.40    2.40
  -2  10 -16   43.60    4.80
   2 -10  16   41.60    3.00
  -3  10 -16   43.80    5.00
   3 -10  16   47.70    3.10
  -4  10 -16   19.20    4.10
   4 -10  16   25.60    2.40
  -5  10 -16   14.50    3.00
   5 -10  16   15.80    1.90
   6 -10  16    2.30    1.00
   7 -10  16    3.70    1.00
  -3  -9  16    9.40    1.60
  -2  -9  16   -0.30    0.90
   1   9 -16   20.00    3.70
  -1  -9  16   19.60    2.30
   0   9 -16    0.50    1.70
   0  -9  16    0.80    1.10
  -1   9 -16   12.60    2.90
   1  -9  16   13.80    1.90
  -2   9 -16    6.20    2.40
   2  -9  16    9.10    1.70
  -3   9 -16   32.80    4.60
   3  -9  16   34.00    2.90
  -4   9 -16    8.20    2.70
   4  -9  16    7.10    1.50
  -5   9 -16    1.80    2.00
   5  -9  16    1.70    1.10
   6  -9  16    3.10    1.10
   7  -9  16    9.00    1.40
   8  -9  16   11.60    1.50
  -3  -8  16   13.00    1.80
   2   8 -16    3.60    1.90
  -2  -8  16    2.20    1.20
   1   8 -16    0.20    1.90
  -1  -8  16    2.00    1.20
   0   8 -16   10.10    2.90
   0  -8  16    9.60    1.70
  -1   8 -16    1.90    2.00
   1  -8  16    2.10    1.20
  -2   8 -16    2.90    2.20
   2  -8  16    3.40    1.30
  -3   8 -16   11.10    2.90
   3  -8  16   17.40    2.10
  -4   8 -16    1.10    2.00
   4  -8  16    2.50    1.20
  -5   8 -16    4.60    2.30
   5  -8  16    6.30    1.40
   6  -8  16    2.20    1.10
  -7   8 -16    6.60    1.60
   7  -8  16    5.10    1.30
  -8   8 -16   17.60    2.10
   8  -8  16   19.00    1.80
  -4  -7  16    9.30    1.60
  -3  -7  16    3.10    1.30
   2   7 -16   34.00    4.60
  -2  -7  16   31.10    2.80
   1   7 -16    0.30    2.10
  -1  -7  16    1.10    1.10
   0   7 -16   24.90    5.00
   0  -7  16   23.20    2.40
  -1   7 -16    4.20    2.40
   1  -7  16    7.00    1.50
  -2   7 -16    9.50    2.80
   2  -7  16   13.80    1.90
  -3   7 -16    1.70    2.10
   3  -7  16    4.50    1.30
  -4   7 -16    5.50    2.40
   4  -7  16    3.40    1.20
  -5   7 -16   20.30    3.70
   5  -7  16   21.40    2.30
  -6   7 -16    5.60    1.90
   6  -7  16    6.60    1.40
  -7   7 -16    5.90    1.70
   7  -7  16    7.40    1.40
  -8   7 -16    7.30    1.60
   8  -7  16   10.20    1.40
   2   6 -16    1.20    2.10
  -2  -6  16    0.20    1.00
   1   6 -16    1.50    2.50
  -1  -6  16    3.60    1.30
   0   6 -16   10.30    3.10
   0  -6  16    7.00    1.50
  -1   6 -16   62.29    6.40
   1  -6  16   63.69    3.90
  -2   6 -16   25.60    4.60
   2  -6  16   25.40    2.40
  -3   6 -16    1.10    1.20
  -3   6 -16    1.60    2.00
   3  -6  16    3.10    1.20
  -4   6 -16    0.80    2.10
  -4   6 -16    1.40    1.20
   4  -6  16    1.50    1.10
  -5   6 -16    6.60    2.70
  -5   6 -16   11.20    1.60
   5  -6  16    7.40    1.50
  -6   6 -16   13.30    2.20
  -6   6 -16    9.40    1.60
   6  -6  16   12.50    1.70
  -7   6 -16    1.40    1.10
  -7   6 -16    0.80    1.40
   7  -6  16    2.00    1.00
  -8   6 -16    0.20    1.20
  -8   6 -16    0.30    0.90
   8  -6  16    0.30    0.80
   2   5 -16   87.29    7.20
   1   5 -16   47.00    6.10
  -1  -5  16   39.60    2.60
   0   5 -16   81.49    4.20
   0   5 -16   83.69    7.30
  -1   5 -16  459.45   17.00
  -1   5 -16  443.46   20.60
   1  -5  16  435.96   17.30
  -2   5 -16   31.00    4.80
  -2   5 -16   27.30    2.40
   2  -5  16   27.90    2.50
  -3   5 -16    2.50    2.20
  -3   5 -16    5.90    1.50
   3  -5  16    5.30    1.40
  -4   5 -16   13.30    1.90
  -4   5 -16    9.80    2.80
  -4   5 -16   10.10    1.40
  -4   5 -16    9.60    2.80
   4  -5  16   10.40    1.70
  -5   5 -16   10.70    1.80
  -5   5 -16   10.70    2.10
  -5   5 -16   12.20    1.40
   5  -5  16    9.70    1.60
  -6   5 -16   89.19    5.40
  -6   5 -16   90.69    4.60
   6  -5  16   88.09    4.60
  -7   5 -16   45.70    3.70
  -7   5 -16   48.60    3.00
   7  -5  16   44.90    2.90
  -8   5 -16    9.00    1.80
  -8   5 -16    8.10    1.30
   8  -5  16   11.70    1.40
  -9   5 -16    4.00    0.90
  -5  -4  16   11.90    1.50
  -4  -4  16    4.60    1.20
   3   4 -16   13.90    3.20
  -3  -4  16   13.00    1.60
   2   4 -16    2.20    2.50
  -2  -4  16    1.50    0.90
   1   4 -16   -0.30    2.20
  -1  -4  16   -0.50    0.80
   0   4 -16   21.20    2.10
   0   4 -16   23.80    4.90
  -1   4 -16    1.60    1.10
  -1   4 -16   -0.30    1.90
  -2   4 -16    3.30    1.20
  -2   4 -16    1.40    2.00
  -2   4 -16    1.70    0.90
  -3   4 -16    3.50    1.00
  -3   4 -16    1.50    1.90
  -3   4 -16    3.20    1.70
  -3   4 -16    1.80    1.20
  -4   4 -16    0.30    0.90
  -4   4 -16    2.40    2.10
  -4   4 -16    0.10    1.50
  -4   4 -16    1.10    1.30
   4  -4  16    0.20    1.00
  -5   4 -16   15.60    2.50
  -5   4 -16   19.90    2.20
  -5   4 -16   18.40    1.90
   5  -4  16   16.80    2.10
  -6   4 -16    3.90    1.80
  -6   4 -16    3.70    1.40
   6  -4  16    5.70    1.30
  -7   4 -16    5.50    1.50
  -7   4 -16    8.00    1.90
   7  -4  16    7.80    1.40
  -8   4 -16    3.90    1.10
  -8   4 -16    4.60    1.50
   8  -4  16    4.00    1.00
  -7  -3  16    1.50    0.80
  -6  -3  16    9.50    1.40
  -5  -3  16    5.30    1.20
  -4  -3  16   35.90    2.50
   3   3 -16    4.30    2.50
  -3  -3  16    4.60    1.10
   2   3 -16   27.70    5.60
  -2  -3  16   27.50    2.20
   1   3 -16    5.20    1.30
   1   3 -16    3.90    2.60
   0   3 -16    1.40    1.10
   0   3 -16    0.70    2.10
  -1   3 -16   22.70    2.30
  -1   3 -16   24.30    4.50
  -1   3 -16   20.70    1.80
  -2   3 -16  124.99    6.70
  -2   3 -16  124.89    5.50
  -2   3 -16  128.19    5.90
  -2   3 -16  128.19    9.00
  -3   3 -16    3.10    2.10
  -3   3 -16    4.10    1.00
  -3   3 -16    5.10    1.40
  -3   3 -16    4.30    1.80
  -4   3 -16   56.79    6.30
  -4   3 -16   54.09    3.00
  -4   3 -16   56.29    4.40
  -4   3 -16   51.69    3.50
  -5   3 -16   65.99    3.40
  -5   3 -16   61.89    3.90
  -5   3 -16   65.49    4.70
  -6   3 -16   10.70    1.80
  -6   3 -16    6.40    2.00
  -7   3 -16   14.10    1.80
  -7   3 -16   16.60    2.30
  -8   3 -16    2.10    1.00
  -8   3 -16    0.30    1.10
  -8  -2  16    0.30    0.70
  -7  -2  16    0.40    0.90
  -6  -2  16   21.70    2.10
  -5  -2  16    1.10    1.00
  -4  -2  16   -0.20    0.90
   3   2 -16    1.30    2.40
  -3  -2  16    1.10    0.90
   2   2 -16   -0.10    2.50
  -2  -2  16    0.20    1.00
   1   2 -16    1.90    1.10
   1   2 -16   -1.10    1.90
   0   2 -16    0.60    0.70
   0   2 -16    0.40    1.10
   0   2 -16   -0.50    1.70
  -1   2 -16   19.90    2.60
  -1   2 -16   18.80    2.10
  -1   2 -16   16.90    1.70
  -1   2 -16   15.40    3.40
  -2   2 -16   65.29    4.50
  -2   2 -16   68.09    6.70
  -2   2 -16   70.79    3.50
  -2   2 -16   67.69    3.90
  -3   2 -16    1.30    0.90
  -3   2 -16    1.40    1.60
  -3   2 -16    1.00    2.00
  -3   2 -16    0.60    1.30
  -4   2 -16    8.20    2.10
  -4   2 -16   12.00    1.90
  -4   2 -16   10.30    3.00
  -4   2 -16    9.60    1.40
  -5   2 -16   30.60    3.40
  -5   2 -16   23.50    2.00
  -5   2 -16   24.30    2.50
  -6   2 -16   12.10    1.80
  -6   2 -16   10.00    2.10
  -7   2 -16   12.20    1.70
  -7   2 -16   10.20    1.90
  -8   2 -16    2.70    1.00
  -8   2 -16    1.60    1.10
  -9  -1  16   22.90    1.60
  -8  -1  16    3.70    1.00
  -7  -1  16    1.00    1.00
  -6  -1  16   27.10    2.40
  -5  -1  16  110.99    5.20
  -4  -1  16   21.20    2.10
   3   1 -16    0.80    2.60
  -3  -1  16    0.60    1.00
   2   1 -16   11.80    1.80
   2   1 -16   11.70    3.80
   1   1 -16   26.20    2.00
   1   1 -16   28.50    5.40
   1   1 -16   27.10    2.50
   0   1 -16    2.20    2.20
   0   1 -16    3.10    1.50
   0   1 -16    3.30    0.90
   0   1 -16    2.10    1.20
  -1   1 -16   16.10    3.50
  -1   1 -16   23.30    2.30
  -1   1 -16   20.40    1.90
  -1   1 -16   23.70    2.90
  -2   1 -16   26.20    2.50
  -2   1 -16   16.30    3.50
  -2   1 -16   20.40    2.70
  -3   1 -16    9.50    2.90
  -3   1 -16    9.20    2.10
  -3   1 -16   10.60    1.40
  -3   1 -16   11.60    1.90
  -4   1 -16   62.89    9.90
  -4   1 -16   74.79    4.10
  -4   1 -16   73.89    3.60
  -4   1 -16   70.59    4.90
  -5   1 -16   45.00    3.30
  -5   1 -16   45.10    2.60
  -5   1 -16   50.89    4.00
  -6   1 -16    2.60    1.60
  -6   1 -16    2.70    1.30
  -7   1 -16    0.80    1.00
  -7   1 -16   -0.40    1.20
  -8   1 -16   11.00    1.30
  -9   0  16    0.80    0.70
  -8   0  16    1.30    0.90
  -7   0  16    2.60    1.10
  -6   0  16   41.40    3.00
   5   0 -16   34.40    2.10
  -5   0  16   31.00    2.60
  -4   0  16    2.40    1.10
   3   0 -16   16.40    4.00
  -3   0  16   10.60    1.60
   2   0 -16    1.10    0.70
   2   0 -16    0.60    1.00
   2   0 -16    1.80    2.70
   1   0 -16   55.39    3.40
   1   0 -16   60.49    3.90
   1   0 -16   52.59    2.90
   1   0 -16   58.99    6.60
   0   0 -16    8.10    1.40
   0   0 -16    8.50    1.90
   0   0 -16    5.50    2.50
   0   0 -16    8.10    1.20
  -1   0 -16   14.10    2.30
  -1   0 -16   15.50    3.50
  -1   0 -16   13.80    1.90
  -1   0 -16   13.40    1.50
  -2   0 -16   37.30    5.50
  -2   0 -16   33.90    2.80
  -2   0 -16   37.70    2.40
  -2   0 -16   37.40    3.60
  -3   0 -16    0.10    0.80
  -3   0 -16    1.80    1.60
  -3   0 -16   -0.30    1.20
  -3   0 -16    1.00    1.90
  -4   0 -16    6.30    1.90
  -4   0 -16    6.40    1.00
  -4   0 -16    7.00    1.50
  -5   0 -16   52.89    4.00
  -5   0 -16   57.39    3.40
  -6   0 -16    3.00    1.40
  -6   0 -16    2.40    1.20
  -7   0 -16    3.20    1.00
  -7   0 -16    2.20    1.20
  -9   1  16    6.20    1.10
  -8   1  16    5.50    1.20
  -7   1  16    8.60    1.50
  -6   1  16   44.90    3.10
   5  -1 -16   31.10    2.20
  -5   1  16   28.60    2.60
   4  -1 -16    7.40    3.10
  -4   1  16    5.50    1.30
   3  -1 -16   24.30    4.90
  -3   1  16   22.10    2.20
   2  -1 -16   33.00    3.10
   2  -1 -16   30.00    2.60
   2  -1 -16   33.00    5.80
   2  -1 -16   31.10    2.10
   1  -1 -16   58.39    6.60
   1  -1 -16   59.29    4.10
   1  -1 -16   61.69    3.10
   1  -1 -16   61.89    3.60
   0  -1 -16   31.80    2.20
   0  -1 -16   32.50    5.30
   0  -1 -16   37.10    3.30
   0  -1 -16   34.10    2.60
  -1  -1 -16   -0.80    1.40
  -1  -1 -16   -0.20    1.70
  -1  -1 -16    0.50    1.10
  -1  -1 -16    0.80    0.80
  -2  -1 -16   10.20    1.30
  -2  -1 -16   11.50    1.80
  -2  -1 -16   10.90    2.20
  -2  -1 -16    9.90    3.00
  -3  -1 -16    0.70    1.30
  -3  -1 -16    1.80    0.70
  -3  -1 -16    0.60    2.00
  -3  -1 -16    2.40    1.70
  -4  -1 -16   34.20    2.10
  -4  -1 -16   33.20    2.80
  -4  -1 -16   37.90    3.40
  -5  -1 -16    2.30    1.30
  -5  -1 -16    3.60    1.60
  -6  -1 -16    1.00    1.00
  -6  -1 -16    0.00    1.00
  -7  -1 -16    0.70    0.80
  -9   2  16    4.40    1.10
  -8   2  16    0.30    0.90
  -7   2  16    0.30    1.10
   6  -2 -16    1.10    0.80
  -6   2  16    1.20    1.20
   5  -2 -16    2.10    1.00
  -5   2  16    2.30    1.10
   4  -2 -16    3.20    2.60
  -4   2  16    3.70    1.20
   3  -2 -16    0.90    2.50
   3  -2 -16    1.50    0.80
  -3   2  16    0.10    0.90
   2  -2 -16    8.80    3.20
   2  -2 -16    6.90    1.10
   2  -2 -16    6.50    1.80
   2  -2 -16    6.50    1.40
   1  -2 -16   29.70    5.40
   1  -2 -16   24.30    2.40
   1  -2 -16   23.10    2.90
   1  -2 -16   25.00    2.00
   0  -2 -16   34.00    2.60
   0  -2 -16   33.20    2.20
   0  -2 -16   32.10    3.30
   0  -2 -16   34.80    5.30
  -1  -2 -16   22.10    1.80
  -1  -2 -16   22.30    2.30
  -1  -2 -16   26.30    3.20
  -1  -2 -16   25.80    4.90
  -2  -2 -16   11.50    2.20
  -2  -2 -16   10.00    1.20
  -2  -2 -16   10.90    1.70
  -2  -2 -16   10.00    3.00
  -3  -2 -16   43.30    2.40
  -3  -2 -16   42.70    3.10
  -3  -2 -16   48.60    3.80
  -3  -2 -16   48.90    5.80
  -4  -2 -16  170.38    8.00
  -4  -2 -16  168.08    7.30
  -5  -2 -16    4.90    1.50
  -5  -2 -16    3.80    1.10
  -9   3  16   -0.40    0.70
  -8   3  16    5.10    1.10
  -7   3  16   24.90    2.20
   6  -3 -16    3.50    1.00
  -6   3  16    3.80    1.30
   5  -3 -16    2.90    1.10
  -5   3  16    2.50    1.10
   4  -3 -16   20.80    4.00
  -4   3  16   22.80    2.10
   3  -3 -16   12.40    3.70
   3  -3 -16   10.10    1.20
   3  -3 -16   10.90    2.00
  -3   3  16   10.70    1.50
   2  -3 -16    2.10    1.10
   2  -3 -16    1.40    0.80
   2  -3 -16    2.90    1.50
   2  -3 -16    4.40    2.70
   1  -3 -16    6.40    1.10
   1  -3 -16    5.90    2.80
   1  -3 -16    5.70    1.80
   1  -3 -16    5.50    1.30
   0  -3 -16    3.80    1.70
   0  -3 -16    2.00    2.10
   0  -3 -16    0.30    1.10
   0  -3 -16    2.70    0.80
  -1  -3 -16   11.20    2.20
  -1  -3 -16   10.80    1.20
  -1  -3 -16   10.60    1.50
  -1  -3 -16    8.60    2.90
  -2  -3 -16    4.00    1.30
  -2  -3 -16    2.00    1.40
  -2  -3 -16    1.20    2.10
  -2  -3 -16    2.50    0.80
  -3  -3 -16    2.00    1.50
  -3  -3 -16    0.40    1.10
  -3  -3 -16    2.20    1.90
  -4  -3 -16    6.00    1.60
  -5  -3 -16    4.70    1.40
  -9   4  16    3.40    0.90
  -8   4  16    3.90    1.00
  -7   4  16   13.10    1.60
   6  -4 -16   95.99    4.40
  -6   4  16   90.39    4.50
   5  -4 -16   59.29    3.40
  -5   4  16   61.69    3.30
   4  -4 -16   56.79    3.00
   4  -4 -16   59.09    4.60
   4  -4 -16   64.99    6.50
  -4   4  16   59.19    3.30
   3  -4 -16    3.10    1.40
   3  -4 -16    2.80    2.50
   3  -4 -16    2.90    0.90
  -3   4  16    4.50    1.10
   2  -4 -16   20.50    1.70
   2  -4 -16   21.90    2.90
   2  -4 -16   23.30    4.40
  -2   4  16   20.80    2.00
   1  -4 -16    7.70    1.10
   1  -4 -16    4.20    1.70
   1  -4 -16    4.20    2.50
   0  -4 -16    1.60    0.70
   0  -4 -16    2.10    1.50
   0  -4 -16    0.40    1.80
  -1  -4 -16   25.60    1.70
  -1  -4 -16   23.20    3.00
  -1  -4 -16   26.70    4.70
  -2  -4 -16   30.00    3.10
  -2  -4 -16   31.40    4.90
  -3  -4 -16   86.69    4.90
  -4  -4 -16   14.40    1.90
  -9   5  16    1.70    0.70
  -8   5  16   19.40    1.70
   7  -5 -16    3.10    0.90
  -7   5  16    4.90    1.00
   6  -5 -16    2.10    1.10
  -6   5  16    3.60    1.00
   5  -5 -16   -0.40    1.00
   4  -5 -16   11.80    3.00
   4  -5 -16   14.50    2.30
   3  -5 -16   18.80    1.70
   3  -5 -16   23.70    5.00
   3  -5 -16   21.20    2.80
   2  -5 -16    1.00    1.30
   2  -5 -16   -1.30    1.80
   2  -5 -16    0.50    0.70
   1  -5 -16    1.60    0.80
   1  -5 -16    0.30    1.90
   1  -5 -16    0.80    1.30
   0  -5 -16    1.60    0.70
   0  -5 -16    3.50    2.30
   0  -5 -16    4.20    1.70
  -1  -5 -16    6.60    1.70
  -1  -5 -16    3.70    2.20
  -2  -5 -16   -0.50    1.20
  -2  -5 -16    0.00    1.70
  -3  -5 -16    0.50    1.00
   7  -6 -16   14.50    1.50
   6  -6 -16    1.50    1.00
   5  -6 -16    2.20    1.70
   5  -6 -16    2.30    1.10
   5  -6 -16    2.80    1.80
   4  -6 -16    2.10    1.20
   4  -6 -16    4.00    2.10
   4  -6 -16    2.80    1.70
   3  -6 -16   10.70    2.10
   3  -6 -16    9.50    2.90
   3  -6 -16    9.10    1.20
   2  -6 -16   39.10    2.30
   2  -6 -16   40.40    3.40
   2  -6 -16   37.60    5.30
   1  -6 -16    1.00    2.00
   1  -6 -16    0.80    1.40
   0  -6 -16    0.70    1.20
   0  -6 -16    0.50    1.80
  -1  -6 -16    1.60    1.30
  -1  -6 -16    1.20    1.90
  -2  -6 -16   29.00    4.20
  -2  -6 -16   26.00    2.40
   7  -7 -16   -0.80    0.70
  -7   7  16   -0.10    3.00
   6  -7 -16    6.50    1.30
  -6   7  16   11.70    3.40
   5  -7 -16    3.00    1.80
   5  -7 -16    2.70    1.20
   5  -7 -16    1.60    1.70
   4  -7 -16    0.30    1.60
   4  -7 -16   -0.80    1.00
   4  -7 -16    1.00    1.60
   3  -7 -16   10.10    2.10
   3  -7 -16    8.50    2.50
   2  -7 -16   12.40    3.00
   2  -7 -16   17.50    2.40
   1  -7 -16    1.70    1.40
   1  -7 -16    1.10    1.80
   0  -7 -16    0.30    1.60
   0  -7 -16    1.90    1.30
  -1  -7 -16    0.60    1.70
  -1  -7 -16   -0.80    1.10
   7  -8 -16   11.80    1.40
  -7   8  16    8.70    3.00
   6  -8 -16    1.50    1.00
  -6   8  16    9.00    3.10
   5  -8 -16   16.60    3.40
   5  -8 -16   16.40    2.40
   5  -8 -16   18.70    2.20
   4  -8 -16   56.69    3.20
   4  -8 -16   60.99    4.20
   4  -8 -16   55.59    5.30
   3  -8 -16   61.29    5.70
   3  -8 -16   59.89    4.20
   2  -8 -16    7.40    2.50
   2  -8 -16    9.50    1.90
   1  -8 -16    0.30    1.40
   1  -8 -16    0.80    1.70
   0  -8 -16   -0.60    1.30
   0  -8 -16    2.20    2.00
   7  -9 -16   -0.40    0.70
   6  -9 -16    2.70    1.00
  -6   9  16    5.40    2.60
   5  -9 -16    3.30    1.10
   5  -9 -16    0.60    1.70
  -5   9  16    5.20    2.50
   4  -9 -16    0.90    1.00
   4  -9 -16    1.10    1.70
  -4   9  16   -1.70    2.10
   3  -9 -16   16.60    2.20
   3  -9 -16   18.60    3.80
   2  -9 -16    5.30    2.20
   2  -9 -16    4.60    1.60
   1  -9 -16    2.30    1.80
  -1  11 -17    8.00    1.80
  -2  11 -17    2.40    1.40
   2 -11  17    3.70    1.20
  -3  11 -17   14.40    2.90
   3 -11  17   17.20    1.70
  -4  11 -17   12.60    2.40
   4 -11  17   14.40    1.70
   1  10 -17    7.90    2.80
   0  10 -17    9.40    2.10
   0 -10  17   13.30    1.60
  -1  10 -17    0.30    1.40
   1 -10  17    1.50    1.00
  -2  10 -17   -0.40    1.40
   2 -10  17   -0.20    0.80
  -3  10 -17    1.10    1.60
   3 -10  17    1.90    1.00
  -4  10 -17    9.30    2.50
   4 -10  17    7.20    1.40
  -5  10 -17    1.00    1.80
   5 -10  17    1.00    0.90
   6 -10  17   -0.10    0.80
  -2  -9  17   30.90    3.00
   1   9 -17   10.60    2.30
  -1  -9  17   12.60    1.60
   0   9 -17   13.30    2.70
   0  -9  17   14.10    1.80
  -1   9 -17    0.90    1.60
   1  -9  17    0.80    1.10
  -2   9 -17   41.30    4.80
   2  -9  17   43.20    2.90
  -3   9 -17   50.49    5.20
   3  -9  17   52.59    3.20
  -4   9 -17    4.00    2.20
   4  -9  17    3.50    1.20
  -5   9 -17    1.00    1.90
   5  -9  17    3.50    1.10
   6  -9  17    3.40    1.00
   7  -9  17   20.50    1.80
  -3  -8  17    2.10    1.40
   2   8 -17    3.80    1.70
  -2  -8  17    2.10    1.10
   1   8 -17    1.80    1.80
  -1  -8  17    2.30    1.20
   0   8 -17   27.10    4.20
   0  -8  17   27.50    2.40
  -1   8 -17   13.10    2.90
   1  -8  17   14.70    1.90
  -2   8 -17   11.70    2.80
   2  -8  17   15.40    1.90
  -3   8 -17    3.30    2.10
   3  -8  17    6.10    1.50
  -4   8 -17    3.50    2.40
   4  -8  17    5.50    1.40
  -5   8 -17    0.50    1.90
   5  -8  17    0.50    0.90
   6  -8  17    1.80    1.00
  -7   8 -17   38.20    3.70
   7  -8  17   33.60    2.30
   2   7 -17    4.70    2.10
  -2  -7  17    5.90    1.40
   1   7 -17    1.00    1.80
  -1  -7  17    0.60    1.00
   0   7 -17    1.00    1.80
   0  -7  17    0.80    1.00
  -1   7 -17    0.70    1.80
   1  -7  17    1.40    1.10
  -2   7 -17   19.50    4.10
   2  -7  17   20.50    2.40
  -3   7 -17    1.20    1.80
   3  -7  17    0.20    1.00
  -4   7 -17   -0.60    1.70
   4  -7  17    0.80    1.00
  -5   7 -17    0.20    1.90
   5  -7  17    1.40    1.10
   6  -7  17   11.00    1.60
  -7   7 -17    1.30    1.10
   7  -7  17    1.80    0.90
   2   6 -17   33.40    4.70
   1   6 -17   31.60    4.90
   0   6 -17   87.89    7.20
   0  -6  17   83.49    4.50
  -1   6 -17   43.00    5.30
   1  -6  17   37.80    2.90
  -2   6 -17   46.50    5.60
   2  -6  17   46.50    3.10
  -3   6 -17   24.60    4.60
  -3   6 -17   23.30    2.20
   3  -6  17   24.40    2.30
  -4   6 -17    3.40    1.20
  -4   6 -17    2.90    2.10
   4  -6  17    3.10    1.20
  -5   6 -17   11.50    1.60
   5  -6  17   12.00    1.70
  -6   6 -17   11.50    2.00
  -6   6 -17   14.40    1.70
   6  -6  17   14.60    1.70
  -7   6 -17   13.90    2.00
  -7   6 -17   15.00    1.60
   7  -6  17   15.90    1.70
  -8   6 -17    5.40    1.00
  -8   6 -17    5.70    1.30
   2   5 -17    2.10    2.10
   1   5 -17   45.30    5.80
  -1  -5  17   45.60    2.70
   0   5 -17    2.10    2.10
   0  -5  17    4.60    1.10
  -1   5 -17    3.00    2.10
  -1   5 -17    5.60    1.40
  -2   5 -17    3.90    1.30
  -2   5 -17    1.50    2.00
  -3   5 -17    4.10    1.30
  -3   5 -17    3.40    2.20
   3  -5  17    4.30    1.20
  -4   5 -17   -1.60    1.10
  -4   5 -17    0.50    1.80
   4  -5  17   -1.70    0.80
  -5   5 -17    3.90    1.60
  -5   5 -17    5.30    1.40
   5  -5  17    3.20    1.10
  -6   5 -17   11.60    1.60
  -6   5 -17    8.60    1.80
   6  -5  17   11.00    1.50
  -7   5 -17    1.70    1.30
  -7   5 -17   -0.60    1.00
   7  -5  17   -0.50    0.70
  -8   5 -17    0.50    0.80
  -8   5 -17    0.50    1.00
  -5  -4  17   30.30    2.10
  -4  -4  17   73.09    3.70
   3   4 -17   56.89    5.60
  -3  -4  17   53.09    3.10
   2   4 -17    2.80    2.30
  -2  -4  17    2.80    1.00
   1   4 -17    1.00    2.30
  -1  -4  17    4.10    1.10
   0   4 -17    1.80    1.20
   0   4 -17    3.60    2.40
  -1   4 -17   28.20    2.40
  -1   4 -17   23.70    4.70
  -2   4 -17   14.60    1.80
  -2   4 -17    9.40    2.90
  -3   4 -17   -0.10    1.20
  -3   4 -17    1.20    0.90
  -3   4 -17    0.20    1.90
  -4   4 -17   14.00    3.30
  -4   4 -17   17.30    2.50
  -4   4 -17   20.30    2.10
  -4   4 -17   15.40    1.60
  -5   4 -17   56.79    3.40
  -5   4 -17   51.39    4.00
  -6   4 -17   52.89    3.80
  -6   4 -17   46.30    3.10
  -7   4 -17    2.60    1.10
  -7   4 -17   -0.70    1.10
  -8   4 -17    4.90    1.00
  -8   4 -17    4.90    1.70
  -7  -3  17    2.70    0.80
  -6  -3  17    8.80    1.20
  -5  -3  17    1.10    1.00
  -4  -3  17    0.20    0.90
   3   3 -17    1.40    2.00
  -3  -3  17    0.80    0.90
   2   3 -17    0.50    2.20
  -2  -3  17    0.20    0.90
   1   3 -17    6.60    1.40
   1   3 -17    4.50    2.60
   0   3 -17   22.80    2.20
   0   3 -17   15.50    3.50
  -1   3 -17    6.60    2.60
  -1   3 -17   11.60    1.70
  -1   3 -17    8.00    1.30
  -2   3 -17   -0.20    1.10
  -2   3 -17   -0.10    1.80
  -2   3 -17   -1.20    0.70
  -3   3 -17   -0.90    1.30
  -3   3 -17    0.40    2.00
  -3   3 -17    0.20    1.30
  -3   3 -17   -0.50    0.80
  -4   3 -17   19.40    2.60
  -4   3 -17   21.50    1.80
  -4   3 -17   19.00    3.70
  -4   3 -17   25.20    2.40
  -5   3 -17    3.50    1.40
  -5   3 -17    2.10    1.60
  -6   3 -17   -1.10    1.00
  -6   3 -17   -0.20    1.30
  -7   3 -17   11.80    1.50
  -7   3 -17   10.50    1.80
  -8   3 -17   -0.10    0.80
  -8  -2  17    0.10    0.60
  -7  -2  17    0.50    0.80
  -6  -2  17    6.10    1.20
  -5  -2  17   29.80    2.40
  -4  -2  17  133.79    5.90
   3   2 -17    2.80    2.40
  -3  -2  17    4.10    1.20
   2   2 -17   -0.10    2.20
  -2  -2  17    0.70    1.00
   1   2 -17    4.40    2.60
   1   2 -17    3.00    1.30
   0   2 -17   17.90    2.00
   0   2 -17   12.20    3.20
   0   2 -17   12.10    1.40
  -1   2 -17   94.59    7.80
  -1   2 -17   86.99    4.20
  -1   2 -17   98.19    4.70
  -2   2 -17   46.50    5.80
  -2   2 -17   42.40    3.20
  -2   2 -17   47.20    2.70
  -2   2 -17   47.70    3.80
  -3   2 -17   34.10    2.40
  -3   2 -17   41.70    5.40
  -3   2 -17   37.50    2.90
  -3   2 -17   37.20    3.60
  -4   2 -17  100.99    4.50
  -4   2 -17  103.09    5.10
  -4   2 -17   98.19    5.80
  -4   2 -17  106.19    8.00
  -5   2 -17   69.19    4.60
  -5   2 -17   71.79    4.00
  -6   2 -17    6.50    1.70
  -6   2 -17    6.70    1.40
  -7   2 -17    0.10    1.00
  -7   2 -17    0.30    1.10
  -8  -1  17    2.40    0.80
  -7  -1  17    3.90    1.00
  -6  -1  17    4.20    1.20
  -5  -1  17   -0.40    0.90
   4   1 -17    1.70    0.70
  -4  -1  17   -0.20    1.00
   3   1 -17    0.70    2.00
  -3  -1  17    1.30    1.00
   2   1 -17    2.80    2.60
  -2  -1  17    0.60    1.10
   1   1 -17   24.20    2.20
   1   1 -17   21.30    4.20
   1   1 -17   21.80    2.20
   0   1 -17   25.30    2.00
   0   1 -17   29.40    5.30
   0   1 -17   31.50    2.60
  -1   1 -17    8.40    2.00
  -1   1 -17    9.90    1.30
  -1   1 -17   12.10    1.80
  -1   1 -17    9.80    2.90
  -2   1 -17    1.60    1.50
  -2   1 -17    1.10    0.90
  -2   1 -17    1.40    1.90
  -2   1 -17    1.70    1.30
  -3   1 -17    4.60    2.50
  -3   1 -17    2.60    1.00
  -3   1 -17    4.50    1.70
  -3   1 -17    3.60    1.50
  -4   1 -17   17.50    5.10
  -4   1 -17   25.20    3.00
  -4   1 -17   22.00    2.30
  -4   1 -17   25.30    1.90
  -5   1 -17    5.40    1.70
  -5   1 -17    3.70    1.30
  -6   1 -17    6.10    1.40
  -6   1 -17   10.10    1.80
  -7   1 -17    4.80    1.10
  -7   1 -17    5.00    1.30
  -8   0  17    6.50    1.10
  -7   0  17   12.20    1.50
  -6   0  17   43.90    2.90
  -5   0  17   29.60    2.40
  -4   0  17   21.50    2.20
   3   0 -17    7.90    3.00
  -3   0  17    7.40    1.40
   2   0 -17   46.30    6.30
   1   0 -17   10.20    1.60
   1   0 -17   11.40    1.40
   1   0 -17   11.80    3.20
   0   0 -17    2.50    1.20
   0   0 -17    2.50    0.90
   0   0 -17    2.00    2.20
   0   0 -17    3.10    1.50
  -1   0 -17   18.10    3.70
  -1   0 -17   22.80    2.30
  -1   0 -17   20.30    1.80
  -1   0 -17   22.60    2.90
  -2   0 -17   -0.40    1.10
  -2   0 -17   -1.30    1.90
  -2   0 -17   -0.40    1.40
  -2   0 -17   -0.60    0.80
  -3   0 -17   17.50    2.10
  -3   0 -17   17.00    1.70
  -3   0 -17   13.00    2.20
  -3   0 -17   15.30    3.50
  -4   0 -17   10.70    2.10
  -4   0 -17   10.50    1.70
  -5   0 -17    7.40    1.70
  -5   0 -17    7.10    1.40
  -6   0 -17    1.00    1.10
  -6   0 -17    0.90    1.00
  -7   0 -17    0.90    0.70
  -8   1  17    0.10    0.80
  -7   1  17   -0.70    0.90
  -6   1  17   -0.60    1.00
   5  -1 -17    0.90    0.80
  -5   1  17    0.00    1.00
   4  -1 -17   49.10    5.60
  -4   1  17   52.69    3.20
  -3   1  17   19.00    2.00
   2  -1 -17    0.90    0.70
   2  -1 -17    1.70    2.50
   2  -1 -17    0.10    1.10
   1  -1 -17   45.70    3.10
   1  -1 -17   53.89    6.40
   1  -1 -17   49.40    3.80
   0  -1 -17    1.30    1.20
   0  -1 -17    1.30    1.40
   0  -1 -17    0.40    0.80
   0  -1 -17    1.60    2.20
  -1  -1 -17   30.00    3.20
  -1  -1 -17   28.60    2.50
  -1  -1 -17   28.30    2.00
  -1  -1 -17   24.70    4.80
  -2  -1 -17    8.90    2.80
  -2  -1 -17    8.30    1.10
  -2  -1 -17    9.90    2.00
  -2  -1 -17    8.40    1.50
  -3  -1 -17   17.00    2.00
  -3  -1 -17   14.30    3.20
  -3  -1 -17   14.40    2.30
  -3  -1 -17   12.20    1.30
  -4  -1 -17   31.40    2.50
  -4  -1 -17   30.90    3.00
  -5  -1 -17   15.80    1.70
  -5  -1 -17   19.30    2.50
  -6  -1 -17    4.70    1.30
  -6  -1 -17    4.50    1.00
  -9   2  17    2.50    0.80
  -8   2  17    0.90    0.90
  -7   2  17   32.30    2.30
  -6   2  17    0.40    1.00
   5  -2 -17   18.20    1.90
  -5   2  17   17.20    1.80
   4  -2 -17    2.50    2.20
  -4   2  17    3.00    1.10
   3  -2 -17    4.00    2.70
  -3   2  17    4.40    1.20
   2  -2 -17   18.90    4.00
   2  -2 -17   18.00    1.60
   2  -2 -17   19.30    2.50
   1  -2 -17   15.00    3.60
   1  -2 -17   19.60    2.00
   1  -2 -17   16.50    2.40
   1  -2 -17   17.30    1.70
   0  -2 -17    9.00    1.60
   0  -2 -17    9.90    2.10
   0  -2 -17    8.30    2.90
   0  -2 -17   11.40    1.30
  -1  -2 -17    5.20    1.30
  -1  -2 -17    4.70    1.70
  -1  -2 -17    5.70    2.50
  -1  -2 -17    5.00    1.00
  -2  -2 -17   10.90    2.00
  -2  -2 -17    9.80    1.10
  -2  -2 -17    8.40    2.80
  -2  -2 -17   12.30    1.60
  -3  -2 -17    6.70    2.60
  -3  -2 -17    4.80    1.30
  -3  -2 -17    6.00    1.70
  -4  -2 -17    3.20    1.20
  -4  -2 -17    2.90    1.40
  -5  -2 -17   -0.30    0.90
  -5  -2 -17    0.40    1.10
  -9   3  17    9.90    1.10
  -8   3  17    1.00    0.80
  -7   3  17    5.90    1.20
   6  -3 -17   22.20    1.90
  -6   3  17   21.30    2.10
   5  -3 -17   73.39    3.80
  -5   3  17   76.29    3.80
   4  -3 -17   29.10    4.80
  -4   3  17   32.00    2.30
   3  -3 -17    1.40    2.10
   3  -3 -17    1.70    0.70
  -3   3  17    0.80    0.90
   2  -3 -17    4.50    0.90
   2  -3 -17    5.90    1.60
  -2   3  17    6.30    1.30
   1  -3 -17  142.29    7.10
   1  -3 -17  146.49    6.30
   1  -3 -17  145.99    9.90
   1  -3 -17  136.39    5.80
   0  -3 -17  116.89    6.30
   0  -3 -17  115.49    8.60
   0  -3 -17  111.09    5.30
   0  -3 -17  118.09    4.90
  -1  -3 -17    0.90    0.70
  -1  -3 -17    1.90    1.50
  -1  -3 -17    1.50    2.00
  -1  -3 -17    0.30    1.10
  -2  -3 -17    1.10    1.40
  -2  -3 -17    1.30    1.90
  -3  -3 -17   14.10    2.10
  -4  -3 -17   26.00    2.50
  -9   4  17    0.60    1.00
  -8   4  17    8.90    1.10
  -7   4  17   10.80    1.40
   6  -4 -17   22.40    1.90
  -6   4  17   23.00    2.00
   5  -4 -17    5.80    1.30
  -5   4  17    6.30    1.20
   4  -4 -17    3.50    2.10
  -4   4  17    4.10    1.10
   3  -4 -17    9.40    3.00
   3  -4 -17   11.60    1.30
   3  -4 -17   11.30    1.90
  -3   4  17   11.00    1.40
   2  -4 -17    1.00    2.20
   2  -4 -17    1.00    1.30
   2  -4 -17    0.40    0.70
  -2   4  17    0.20    0.80
   1  -4 -17    0.90    0.70
   1  -4 -17    0.00    1.20
   1  -4 -17   -0.90    2.00
   0  -4 -17   13.60    2.10
   0  -4 -17   11.80    3.20
   0  -4 -17   12.20    1.20
  -1  -4 -17   14.10    3.20
  -1  -4 -17   16.10    2.30
  -2  -4 -17   10.10    2.60
  -2  -4 -17   12.20    2.00
  -3  -4 -17    4.60    1.40
  -8   5  17    1.70    1.00
  -7   5  17    0.70    0.90
   6  -5 -17    3.60    1.10
   5  -5 -17    0.10    0.90
   4  -5 -17   32.20    4.60
   4  -5 -17   29.40    3.10
   3  -5 -17   21.90    2.80
   3  -5 -17   23.30    4.50
   2  -5 -17   20.70    2.60
   2  -5 -17   18.30    3.50
   1  -5 -17   93.69    5.20
   1  -5 -17   88.49    7.30
   0  -5 -17   32.90    3.00
   0  -5 -17   32.20    4.80
  -1  -5 -17   10.30    2.50
  -1  -5 -17   11.30    1.90
  -2  -5 -17    0.10    1.70
  -2  -5 -17   -0.80    1.10
   7  -6 -17    1.70    0.70
   6  -6 -17    0.40    0.90
   5  -6 -17   -1.30    1.50
   5  -6 -17    0.40    0.90
   5  -6 -17   -0.60    1.30
   4  -6 -17    9.40    2.40
   4  -6 -17   12.60    2.10
   4  -6 -17   10.60    1.50
   3  -6 -17    8.20    2.40
   3  -6 -17   12.90    2.10
   2  -6 -17   -0.10    1.30
   2  -6 -17   -0.30    1.60
   1  -6 -17    4.10    2.10
   1  -6 -17    3.40    1.40
   0  -6 -17    0.30    1.10
   0  -6 -17   -0.20    1.60
  -1  -6 -17    1.60    1.10
  -1  -6 -17    1.10    1.70
   7  -7 -17   12.70    1.20
   6  -7 -17    6.00    1.10
  -6   7  17   13.50    3.10
   5  -7 -17    8.20    2.20
   5  -7 -17   10.30    1.40
   5  -7 -17    9.60    2.00
   4  -7 -17   48.70    4.80
   4  -7 -17   46.40    2.90
   4  -7 -17   57.39    3.90
   3  -7 -17   27.70    2.20
   3  -7 -17   25.20    4.10
   3  -7 -17   33.00    3.10
   2  -7 -17   43.70    5.00
   2  -7 -17   48.90    3.50
   1  -7 -17    5.80    2.10
   1  -7 -17    5.30    1.60
   0  -7 -17    5.10    2.00
   0  -7 -17    4.70    1.50
  -1  -7 -17    3.00    1.80
   6  -8 -17   10.10    1.20
  -6   8  17   12.50    3.30
   5  -8 -17   16.20    3.20
   5  -8 -17   17.50    1.90
  -5   8  17   21.70    3.10
   4  -8 -17    9.40    1.40
   4  -8 -17   12.30    2.10
   4  -8 -17    6.80    2.00
   3  -8 -17    8.80    1.80
   3  -8 -17    7.70    2.20
   3  -8 -17    8.30    1.30
   2  -8 -17    6.80    1.70
   2  -8 -17    5.20    2.00
   1  -8 -17   -0.20    1.50
  -1  10 -18    0.60    1.20
  -2  10 -18   13.80    2.80
   2 -10  18   13.20    1.70
  -3  10 -18   46.50    4.30
   3 -10  18   46.00    2.70
  -4  10 -18   10.10    2.20
   1   9 -18   17.80    2.70
   0   9 -18    2.90    1.60
   0  -9  18    2.60    1.00
  -1   9 -18    0.60    1.50
   1  -9  18    2.60    1.00
  -2   9 -18   -0.60    1.40
   2  -9  18   -0.40    0.80
  -3   9 -18   14.90    2.90
   3  -9  18   15.80    1.80
  -4   9 -18    4.30    2.10
   4  -9  18    5.50    1.10
  -5   9 -18    1.20    2.50
   5  -9  18   -0.30    0.80
   1   8 -18    2.40    1.70
  -1  -8  18    2.30    1.00
   0   8 -18    3.30    1.90
   0  -8  18    5.10    1.20
  -1   8 -18    3.00    1.90
   1  -8  18    6.30    1.30
  -2   8 -18    0.50    1.70
   2  -8  18    2.10    1.00
  -3   8 -18   13.50    3.00
   3  -8  18   15.30    1.80
  -4   8 -18    1.00    1.80
   4  -8  18    0.30    0.90
   5  -8  18   -0.20    0.80
   6  -8  18   21.70    1.80
   2   7 -18    2.70    1.70
   1   7 -18   -0.60    1.50
   0   7 -18    3.40    2.00
   0  -7  18    4.60    1.20
  -1   7 -18    4.40    2.20
   1  -7  18    5.80    1.30
  -2   7 -18    8.00    2.50
   2  -7  18    9.60    1.50
  -3   7 -18    0.10    1.80
   3  -7  18   -0.20    0.90
  -4   7 -18    0.10    1.80
   4  -7  18   -0.70    0.80
   5  -7  18    0.90    0.90
   6  -7  18    1.10    0.80
   2   6 -18    2.10    1.80
   1   6 -18   29.00    4.50
   0   6 -18   47.70    5.30
  -1   6 -18    9.30    2.60
  -2   6 -18   11.20    2.80
  -3   6 -18    1.00    2.00
  -3   6 -18   -0.20    0.90
   3  -6  18    1.10    0.90
  -4   6 -18   -0.60    0.90
  -4   6 -18    2.70    2.10
   4  -6  18   -0.20    0.80
  -5   6 -18    2.30    1.00
   5  -6  18    1.70    0.90
  -6   6 -18    1.80    1.20
  -6   6 -18    1.90    0.90
   6  -6  18    1.30    0.80
  -7   6 -18    6.20    1.40
  -7   6 -18    3.40    0.90
   2   5 -18  109.49    7.50
   1   5 -18   33.20    4.70
  -1  -5  18   26.80    2.00
   0   5 -18   -0.90    1.60
   0  -5  18    1.30    0.90
  -1   5 -18    2.40    2.00
  -1   5 -18    0.00    1.00
  -2   5 -18    8.20    1.50
  -2   5 -18    6.00    2.40
  -3   5 -18   16.40    1.80
  -3   5 -18   10.60    2.90
  -4   5 -18    9.30    2.80
  -4   5 -18   13.80    1.60
  -5   5 -18   39.90    3.10
  -5   5 -18   38.00    2.60
  -6   5 -18   29.20    2.20
  -6   5 -18   28.10    2.60
  -7   5 -18   37.30    2.30
  -7   5 -18   36.60    2.70
  -4  -4  18   12.80    1.40
   3   4 -18    1.20    1.70
  -3  -4  18    1.20    0.90
   2   4 -18    2.30    1.90
  -2  -4  18    2.50    0.90
   1   4 -18   -0.20    1.90
  -1  -4  18    4.30    1.00
   0   4 -18   11.30    3.10
   0   4 -18   11.30    1.60
  -1   4 -18    4.90    1.40
  -1   4 -18    4.30    2.30
  -2   4 -18    2.60    2.10
  -2   4 -18    1.90    1.20
  -3   4 -18    1.00    2.10
  -3   4 -18    3.00    1.20
  -4   4 -18    0.10    1.00
  -4   4 -18   -0.50    1.80
  -4   4 -18    0.00    1.20
  -5   4 -18    0.40    1.30
  -5   4 -18    0.00    1.10
  -6   4 -18    1.00    1.10
  -6   4 -18   -1.20    1.00
  -7   4 -18    2.60    1.10
  -7   4 -18    2.30    0.90
  -6  -3  18    0.40    0.70
  -5  -3  18   17.50    1.80
  -4  -3  18   36.80    2.40
   3   3 -18   21.70    4.10
  -3  -3  18   18.50    1.90
   2   3 -18    1.40    2.00
  -2  -3  18    0.50    0.90
   1   3 -18    1.00    2.00
  -1  -3  18    3.20    1.10
   0   3 -18   79.09    4.10
   0   3 -18   74.49    7.00
  -1   3 -18   37.90    2.80
  -1   3 -18   36.30    5.20
  -2   3 -18   32.10    2.30
  -2   3 -18   41.60    2.90
  -2   3 -18   45.50    5.60
  -3   3 -18    5.80    1.10
  -3   3 -18    8.10    1.50
  -3   3 -18    5.90    1.60
  -3   3 -18    5.50    2.50
  -4   3 -18    4.00    1.60
  -4   3 -18    4.30    2.40
  -4   3 -18    4.40    1.40
  -5   3 -18   32.60    2.50
  -5   3 -18   33.60    3.00
  -6   3 -18   29.30    2.20
  -6   3 -18   27.50    2.60
  -7   3 -18    3.40    1.20
  -7   3 -18    2.90    0.90
  -7  -2  18   -0.60    0.60
  -6  -2  18   11.70    1.40
  -5  -2  18    0.30    0.90
  -4  -2  18    2.50    1.00
   3   2 -18    0.60    1.80
  -3  -2  18    3.50    1.10
   2   2 -18    1.80    2.10
  -2  -2  18    1.70    1.00
   1   2 -18   35.80    2.70
   1   2 -18   35.90    5.60
   0   2 -18    5.80    2.70
   0   2 -18   11.60    1.80
  -1   2 -18    2.70    0.90
  -1   2 -18    2.90    1.40
  -1   2 -18    2.50    2.10
  -2   2 -18    4.30    1.40
  -2   2 -18    3.90    2.30
  -2   2 -18    3.90    1.60
  -2   2 -18    3.50    0.90
  -3   2 -18   21.20    2.80
  -3   2 -18   23.80    2.30
  -3   2 -18   22.50    4.60
  -4   2 -18    2.60    2.00
  -4   2 -18   -1.20    1.10
  -4   2 -18    1.70    1.40
  -5   2 -18    1.10    1.40
  -5   2 -18   -0.20    1.00
  -6   2 -18    5.10    1.40
  -6   2 -18    6.20    1.20
  -7   2 -18    2.10    0.90
  -7  -1  18   -0.50    0.70
  -6  -1  18   14.20    1.60
  -5  -1  18   31.00    2.30
  -4  -1  18   44.00    2.80
   3   1 -18    2.20    2.10
  -3  -1  18    3.60    1.10
   2   1 -18   21.40    4.00
  -2  -1  18   23.10    2.20
   1   1 -18   13.90    3.30
   1   1 -18   13.40    1.80
   0   1 -18   16.40    3.60
   0   1 -18   17.40    1.70
   0   1 -18   18.60    2.10
  -1   1 -18   91.99    4.30
  -1   1 -18   99.39    7.80
  -1   1 -18  100.69    4.90
  -2   1 -18    5.50    2.60
  -2   1 -18    4.90    1.00
  -2   1 -18    7.90    1.50
  -2   1 -18    5.90    1.80
  -3   1 -18    2.40    2.10
  -3   1 -18    2.10    0.90
  -3   1 -18    3.50    1.60
  -3   1 -18    2.90    1.30
  -4   1 -18   12.00    1.70
  -4   1 -18   11.00    2.00
  -5   1 -18   20.50    2.50
  -5   1 -18   18.50    1.90
  -6   1 -18    7.50    1.10
  -6   1 -18    8.70    1.50
  -8   0  18   14.60    1.30
  -7   0  18   -0.80    0.70
  -6   0  18   14.60    1.70
  -5   0  18   16.10    1.80
   4   0 -18   36.40    2.20
  -4   0  18   33.10    2.50
   3   0 -18    1.80    2.10
  -3   0  18    3.70    1.20
   2   0 -18    0.50    2.30
  -2   0  18    3.80    1.30
   1   0 -18   21.30    1.70
   1   0 -18   19.50    3.80
   1   0 -18   24.90    2.40
   0   0 -18   32.90    2.20
   0   0 -18   36.30    2.70
   0   0 -18   35.70    5.40
  -1   0 -18   13.40    1.40
  -1   0 -18   12.10    2.10
  -1   0 -18   13.30    3.20
  -1   0 -18   14.30    1.80
  -2   0 -18    1.50    2.10
  -2   0 -18    1.00    1.10
  -2   0 -18   -0.70    0.70
  -2   0 -18    2.10    1.50
  -3   0 -18    0.40    1.10
  -3   0 -18    2.70    1.50
  -3   0 -18   -0.20    1.90
  -4   0 -18    1.30    1.10
  -4   0 -18    0.90    1.20
  -5   0 -18    3.70    1.30
  -5   0 -18    3.20    1.10
  -6   0 -18   12.60    1.30
  -8   1  18    1.30    0.70
  -7   1  18    2.40    1.00
  -6   1  18    5.20    1.20
   5  -1 -18   78.59    3.50
  -5   1  18   76.99    3.90
   4  -1 -18   12.40    2.90
  -4   1  18   12.40    1.60
   3  -1 -18   17.50    3.60
  -3   1  18   20.10    2.00
   2  -1 -18    4.00    2.50
  -2   1  18    2.40    1.20
   1  -1 -18    2.20    1.10
   1  -1 -18    2.00    2.20
   1  -1 -18    2.20    0.80
   0  -1 -18    5.60    1.40
   0  -1 -18    3.50    1.00
   0  -1 -18    3.40    1.50
   0  -1 -18    2.30    2.30
  -1  -1 -18   -1.00    1.90
  -1  -1 -18    2.40    1.20
  -1  -1 -18   -0.20    0.70
  -1  -1 -18    1.80    1.40
  -2  -1 -18   10.60    2.00
  -2  -1 -18    9.20    2.90
  -2  -1 -18   10.70    1.60
  -3  -1 -18   38.60    3.20
  -3  -1 -18   42.80    5.10
  -3  -1 -18   33.20    2.50
  -4  -1 -18   17.80    2.20
  -4  -1 -18   16.30    1.70
  -5  -1 -18    2.90    1.10
  -5  -1 -18    1.80    0.90
  -8   2  18   10.30    1.10
  -7   2  18   24.00    1.90
  -6   2  18    0.40    0.90
   5  -2 -18    2.40    0.90
  -5   2  18    1.60    1.00
   4  -2 -18   34.20    4.60
  -4   2  18   34.90    2.40
   3  -2 -18    9.50    2.80
  -3   2  18    6.80    1.30
   2  -2 -18    3.10    2.30
   2  -2 -18    1.50    0.70
  -2   2  18    2.30    1.10
   1  -2 -18   58.79    6.50
   1  -2 -18   57.79    4.00
   1  -2 -18   67.99    3.60
   1  -2 -18   60.99    3.10
   0  -2 -18   50.79    2.70
   0  -2 -18   53.99    5.90
   0  -2 -18   49.50    3.90
   0  -2 -18   50.49    3.20
  -1  -2 -18   73.09    4.70
  -1  -2 -18   79.79    6.90
  -1  -2 -18   77.29    4.00
  -2  -2 -18   38.70    2.70
  -2  -2 -18   39.40    5.10
  -2  -2 -18   45.70    3.40
  -3  -2 -18    3.60    1.50
  -3  -2 -18    2.60    2.00
  -3  -2 -18    3.30    1.00
  -4  -2 -18    7.90    1.10
  -4  -2 -18    7.90    1.50
  -8   3  18    0.60    0.60
  -7   3  18    6.70    1.10
   6  -3 -18   37.00    2.20
  -6   3  18   41.40    2.50
   5  -3 -18    0.50    0.80
  -5   3  18    0.90    0.90
   4  -3 -18    4.20    2.00
  -4   3  18    4.60    1.10
   3  -3 -18    6.30    2.40
  -3   3  18    7.20    1.30
   2  -3 -18   27.70    2.80
   2  -3 -18   26.60    4.70
   2  -3 -18   25.90    2.00
  -2   3  18   26.60    2.10
   1  -3 -18    4.80    1.00
   1  -3 -18    6.00    2.60
   1  -3 -18    8.80    1.90
   0  -3 -18   10.70    2.00
   0  -3 -18    5.70    2.50
   0  -3 -18    8.50    1.40
  -1  -3 -18   26.90    2.20
  -1  -3 -18   22.20    4.30
  -1  -3 -18   21.70    2.80
  -2  -3 -18    0.30    1.80
  -2  -3 -18   -0.10    1.20
  -3  -3 -18   35.00    2.80
  -7   4  18   18.90    1.50
   6  -4 -18   54.69    2.70
  -6   4  18   50.19    2.80
   5  -4 -18    8.20    1.30
  -5   4  18   11.00    1.40
   4  -4 -18   -0.10    1.40
  -4   4  18    0.40    0.80
   3  -4 -18    6.90    2.40
   3  -4 -18    8.90    1.80
  -3   4  18    7.00    1.10
   2  -4 -18    5.60    2.40
   2  -4 -18    6.40    1.60
  -2   4  18    6.20    1.10
   1  -4 -18  120.99    6.10
   1  -4 -18  120.49    8.30
   0  -4 -18  110.39    5.70
   0  -4 -18  107.99    7.90
  -1  -4 -18    8.10    1.70
  -1  -4 -18    8.00    2.60
  -2  -4 -18    3.80    1.30
  -2  -4 -18    4.00    1.90
  -3  -4 -18   45.20    2.80
   6  -5 -18    0.30    0.80
   5  -5 -18    1.60    0.90
   4  -5 -18    1.10    1.50
   4  -5 -18    1.40    1.40
   4  -5 -18    1.10    0.90
   3  -5 -18    6.60    2.30
   3  -5 -18    9.70    1.90
   2  -5 -18    1.50    1.30
   2  -5 -18    1.40    1.70
   1  -5 -18    0.40    1.70
   1  -5 -18    0.40    1.20
   0  -5 -18    3.00    1.20
   0  -5 -18    0.50    1.60
  -1  -5 -18   -0.40    1.00
  -1  -5 -18    0.40    1.60
  -2  -5 -18   -0.30    0.90
   6  -6 -18    1.90    0.80
   5  -6 -18    2.50    1.50
   5  -6 -18    4.00    1.10
   4  -6 -18    2.30    1.00
   4  -6 -18    3.30    1.70
   4  -6 -18    3.90    1.60
   3  -6 -18    0.00    1.40
   3  -6 -18   -1.60    0.80
   3  -6 -18    0.70    1.40
   2  -6 -18   15.80    2.20
   2  -6 -18   17.20    3.40
   1  -6 -18    5.00    2.00
   1  -6 -18    7.10    1.60
   0  -6 -18    4.70    1.40
   0  -6 -18    4.50    1.90
  -1  -6 -18    1.60    1.40
   6  -7 -18    3.20    0.90
   5  -7 -18   10.90    1.30
   5  -7 -18    8.70    2.50
  -5   7  18   16.70    2.80
   4  -7 -18    0.10    0.90
   4  -7 -18    0.80    1.40
   4  -7 -18   -0.30    1.30
   3  -7 -18   -0.50    1.30
   3  -7 -18    0.80    1.50
   3  -7 -18   -0.30    0.80
   2  -7 -18    1.50    1.60
   2  -7 -18    0.60    1.30
   1  -7 -18    1.00    1.30
   1  -7 -18    1.30    1.30
   0   9 -19    5.30    1.60
  -1   9 -19   15.90    2.70
  -2   9 -19   19.50    3.10
  -3   9 -19   20.30    3.20
  -4   9 -19    1.60    1.40
   1   8 -19    1.70    1.30
   0   8 -19    1.00    1.40
  -1   8 -19   22.50    3.40
   1  -8  19   18.50    1.90
  -2   8 -19    1.20    1.60
   2  -8  19    1.50    0.90
  -3   8 -19    0.40    1.60
   3  -8  19    0.40    0.70
  -4   8 -19    1.10    1.60
   4  -8  19    1.60    0.80
   2   7 -19    0.80    1.40
   1   7 -19    0.90    1.50
   0   7 -19    0.90    1.50
  -1   7 -19    3.40    1.80
  -2   7 -19   20.40    3.70
  -3   7 -19    3.30    2.00
   3  -7  19    3.20    1.10
  -4   7 -19    0.00    1.80
   4  -7  19    0.00    0.80
   2   6 -19   65.19    5.10
   1   6 -19   85.99    6.30
   0   6 -19    1.90    1.80
  -1   6 -19    0.50    1.60
  -2   6 -19    0.20    1.60
  -3   6 -19   19.90    1.90
  -3   6 -19   20.50    4.00
  -4   6 -19    5.20    2.10
  -4   6 -19    4.50    1.10
  -5   6 -19    4.10    1.00
  -6   6 -19    2.50    1.00
   2   5 -19    3.40    1.80
   1   5 -19    2.40    1.80
  -1  -5  19    1.40    0.80
   0   5 -19    0.10    1.60
   0  -5  19   -0.50    0.70
  -1   5 -19   20.10    3.90
   1  -5  19   16.90    1.70
  -2   5 -19    9.50    2.80
  -2   5 -19   11.10    1.50
  -3   5 -19    3.80    2.30
  -3   5 -19    4.50    1.20
  -4   5 -19   -0.50    0.90
  -4   5 -19    0.00    1.80
  -5   5 -19    8.40    1.50
  -5   5 -19    9.30    1.30
  -6   5 -19    3.30    1.20
  -6   5 -19    2.60    0.90
  -4  -4  19   15.30    1.50
   3   4 -19   42.90    5.30
  -3  -4  19   39.10    2.40
   2   4 -19    1.30    1.80
  -2  -4  19    1.20    0.80
   1   4 -19   16.40    3.20
  -1  -4  19   18.20    1.70
   0   4 -19   14.60    3.10
   0  -4  19   16.90    1.70
  -1   4 -19   15.80    1.70
  -1   4 -19   11.10    2.90
  -2   4 -19   94.69    4.60
  -2   4 -19   98.29    7.50
  -3   4 -19   18.10    1.90
  -3   4 -19   13.40    3.10
  -4   4 -19    1.40    1.90
  -4   4 -19    1.00    1.20
  -4   4 -19    1.20    1.00
  -5   4 -19    0.50    0.80
  -5   4 -19    0.50    1.10
  -6   4 -19   18.30    1.60
  -6   4 -19   15.90    1.80
  -5  -3  19    6.00    1.00
  -4  -3  19    7.30    1.20
   3   3 -19   -0.40    1.40
  -3  -3  19   -0.40    0.80
   2   3 -19    4.40    2.10
  -2  -3  19    6.00    1.10
   1   3 -19    1.50    1.90
  -1  -3  19    0.80    0.90
   0   3 -19    0.20    1.90
   0   3 -19    0.40    1.00
  -1   3 -19    9.00    2.70
  -1   3 -19   15.00    1.80
  -2   3 -19    8.20    1.50
  -2   3 -19    5.00    2.30
  -3   3 -19   -0.60    1.80
  -3   3 -19    0.70    1.00
  -3   3 -19   -0.40    1.40
  -4   3 -19    0.90    1.00
  -4   3 -19    1.50    1.20
  -4   3 -19    1.70    1.90
  -5   3 -19    0.30    0.80
  -5   3 -19   -0.80    1.00
  -6   3 -19   -0.60    0.70
  -6   3 -19    0.40    0.90
  -6  -2  19    0.80    0.70
  -5  -2  19    2.00    0.90
  -4  -2  19   18.30    1.80
   3   2 -19   15.90    3.00
  -3  -2  19   16.20    1.70
   2   2 -19    1.00    1.70
  -2  -2  19    2.70    1.00
   1   2 -19    4.20    2.20
  -1  -2  19    2.70    1.10
   0   2 -19   94.29    4.60
   0   2 -19   93.39    7.40
  -1   2 -19  134.19    6.00
  -1   2 -19  132.79    8.90
  -2   2 -19   75.69    4.00
  -2   2 -19   77.79    6.80
  -3   2 -19   24.60    2.20
  -3   2 -19   24.10    2.60
  -3   2 -19   28.90    4.60
  -4   2 -19    4.10    1.20
  -4   2 -19    1.50    1.30
  -5   2 -19   22.40    1.90
  -5   2 -19   20.70    2.30
  -6   2 -19    5.70    0.90
  -6  -1  19    6.20    1.10
  -5  -1  19    1.40    1.00
  -4  -1  19    8.00    1.30
   3   1 -19   -0.20    1.50
  -3  -1  19    0.20    0.90
   2   1 -19    8.00    2.70
  -2  -1  19    8.10    1.40
   1   1 -19    9.50    2.80
  -1  -1  19   13.90    1.70
   0   1 -19   -0.70    1.90
   0   1 -19   -0.20    1.10
  -1   1 -19   24.10    4.50
  -1   1 -19   21.70    2.10
  -2   1 -19    6.20    2.50
  -2   1 -19    5.60    1.40
  -2   1 -19    7.90    1.70
  -3   1 -19    2.60    2.00
  -3   1 -19    2.60    1.10
  -3   1 -19    2.90    1.40
  -4   1 -19    1.50    1.00
  -4   1 -19    3.00    1.30
  -5   1 -19    2.20    1.10
  -5   1 -19    1.40    0.90
  -7   0  19    0.00    0.60
  -6   0  19    6.00    1.10
  -5   0  19   50.99    2.90
   4   0 -19   53.79    2.70
  -4   0  19   58.09    3.10
   3   0 -19    1.20    1.80
  -3   0  19   -0.20    0.90
   2   0 -19   39.90    5.10
  -2   0  19   38.30    2.60
   1   0 -19    4.80    2.40
   0   0 -19   22.30    4.50
   0   0 -19   24.10    2.30
  -1   0 -19   25.50    4.50
  -1   0 -19   21.20    2.60
  -1   0 -19   23.00    2.20
  -2   0 -19    2.60    1.40
  -2   0 -19    1.60    2.00
  -2   0 -19    1.70    1.10
  -3   0 -19    7.90    2.40
  -3   0 -19    8.30    1.40
  -3   0 -19    9.00    1.70
  -4   0 -19    7.10    1.50
  -4   0 -19    8.00    1.20
  -5   0 -19   16.10    1.50
  -5   0 -19   17.70    2.00
  -7   1  19    2.80    0.80
  -6   1  19    0.50    0.80
  -5   1  19   11.70    1.50
   4  -1 -19   49.99    2.60
   4  -1 -19   46.10    4.70
  -4   1  19   50.59    2.90
   3  -1 -19    0.70    1.70
  -3   1  19    0.50    0.90
   2  -1 -19   14.10    3.10
  -2   1  19   16.90    1.70
   1  -1 -19   39.20    5.30
  -1   1  19   44.80    2.70
   0  -1 -19   69.29    6.50
   0  -1 -19   68.59    3.70
   0  -1 -19   67.69    4.20
  -1  -1 -19   55.39    3.80
  -1  -1 -19   54.59    3.20
  -1  -1 -19   57.79    5.80
  -2  -1 -19    4.30    1.20
  -2  -1 -19    4.10    2.20
  -2  -1 -19    2.80    1.40
  -3  -1 -19    0.90    1.20
  -3  -1 -19    2.90    1.90
  -3  -1 -19    2.30    1.00
  -4  -1 -19    0.90    0.70
  -4  -1 -19    0.80    1.00
  -7   2  19    3.30    0.80
  -6   2  19   13.20    1.40
   5  -2 -19   10.70    1.30
  -5   2  19   12.60    1.50
   4  -2 -19   10.30    2.50
   4  -2 -19   14.30    1.60
  -4   2  19   13.60    1.50
   3  -2 -19   17.80    3.70
  -3   2  19   18.50    1.80
   2  -2 -19    3.30    2.10
  -2   2  19    2.10    1.00
   1  -2 -19   15.90    2.20
   1  -2 -19   15.70    3.30
  -1   2  19   16.00    1.70
   0  -2 -19   45.70    2.80
   0  -2 -19   46.90    3.50
   0  -2 -19   50.29    5.50
  -1  -2 -19    7.40    1.40
  -1  -2 -19    5.40    2.30
  -1  -2 -19    6.10    1.60
  -2  -2 -19    1.20    1.60
  -2  -2 -19    2.30    1.00
  -2  -2 -19    1.80    1.30
  -3  -2 -19    0.40    0.80
  -3  -2 -19    0.70    1.10
  -7   3  19    5.00    0.80
  -6   3  19    2.70    0.90
   5  -3 -19   33.00    2.00
  -5   3  19   32.00    2.20
   4  -3 -19    7.50    1.20
   4  -3 -19    7.60    2.20
  -4   3  19    9.50    1.20
   3  -3 -19    3.80    2.00
  -3   3  19    4.30    1.00
   2  -3 -19    3.10    2.00
   2  -3 -19    3.00    1.30
  -2   3  19    2.60    0.90
   1  -3 -19   35.30    2.90
   1  -3 -19   28.30    4.60
  -1   3  19   33.30    2.10
   0  -3 -19    5.80    1.50
   0  -3 -19    4.90    2.20
   0   3  19    5.20    1.00
  -1  -3 -19   10.90    2.60
  -1  -3 -19   11.70    1.90
  -2  -3 -19   26.90    2.50
  -2  -3 -19   32.20    3.80
  -3  -3 -19   32.40    3.00
  -6   4  19   10.40    1.10
   5  -4 -19    0.80    0.80
  -5   4  19   -0.20    0.70
   4  -4 -19    6.40    1.20
   4  -4 -19    5.00    1.80
  -4   4  19    6.80    1.00
   3  -4 -19   25.60    3.90
   3  -4 -19   26.10    2.70
  -3   4  19   25.50    1.80
   2  -4 -19    3.80    2.00
   2  -4 -19    4.90    1.40
   1  -4 -19    1.80    1.80
   1  -4 -19    1.80    1.20
   0  -4 -19    0.90    1.60
   0  -4 -19    2.90    1.30
  -1  -4 -19    3.30    1.70
  -1  -4 -19    2.50    1.10
  -2  -4 -19    0.70    1.00
  -2  -4 -19    0.60    1.40
   6  -5 -19   -0.60    0.50
   5  -5 -19    5.20    1.10
   4  -5 -19   -0.30    0.80
   4  -5 -19    1.30    1.30
   4  -5 -19    0.90    1.20
   3  -5 -19    0.80    1.40
   3  -5 -19    2.20    1.30
   3  -5 -19    0.40    0.90
   2  -5 -19   36.30    2.90
   2  -5 -19   34.60    4.00
   1  -5 -19   41.60    4.30
   1  -5 -19   46.60    3.20
   0  -5 -19    1.20    1.10
   0  -5 -19   -0.30    1.30
  -1  -5 -19    2.70    1.50
   5  -6 -19    1.20    0.80
   4  -6 -19   -0.30    1.10
   4  -6 -19    1.60    0.80
   4  -6 -19    0.80    1.40
   3  -6 -19    0.70    0.80
   3  -6 -19    0.10    1.20
   3  -6 -19    1.80    1.40
   2  -6 -19    5.30    1.80
   2  -6 -19    7.70    1.50
   2  -6 -19    6.20    1.10
   1  -6 -19    3.30    1.60
   1  -6 -19    4.10    1.60
  -1   8 -20    0.10    1.10
  -2   8 -20    3.00    1.50
  -3   8 -20   23.80    3.20
   1   7 -20   18.40    2.80
   0   7 -20    7.00    1.90
  -1   7 -20   17.70    3.20
  -2   7 -20    2.40    1.60
  -3   7 -20   36.00    4.10
  -4   7 -20    1.20    1.30
   2   6 -20   45.40    3.80
   1   6 -20   10.80    2.30
   0   6 -20    0.90    1.50
  -1   6 -20    1.70    1.70
  -2   6 -20    8.70    2.40
  -3   6 -20   17.10    3.20
  -4   6 -20    2.40    1.60
   2   5 -20   26.80    3.40
   1   5 -20    0.80    1.50
   0   5 -20    7.30    2.20
   0  -5  20    9.30    1.10
  -1   5 -20    2.70    1.80
   1  -5  20    2.40    0.80
  -2   5 -20   80.29    6.20
   2  -5  20   77.29    3.60
  -3   5 -20   48.60    2.70
  -3   5 -20   47.80    4.70
  -4   5 -20    8.90    2.20
  -4   5 -20    9.90    1.20
  -5   5 -20    8.00    1.00
  -3  -4  20    2.80    0.90
   2   4 -20    5.30    1.90
  -2  -4  20    5.40    1.00
   1   4 -20    0.00    1.40
  -1  -4  20    1.10    0.80
   0   4 -20    0.30    1.60
   0  -4  20    0.90    0.80
  -1   4 -20    7.10    2.30
   1  -4  20    6.90    1.10
  -2   4 -20   10.90    1.40
  -2   4 -20    9.90    2.50
  -3   4 -20   -1.90    1.50
  -3   4 -20    0.70    0.90
  -4   4 -20    2.10    1.90
  -4   4 -20    0.30    0.80
  -5   4 -20   -0.10    0.70
  -5  -3  20    0.20    0.60
  -4  -3  20    1.70    0.80
   3   3 -20   16.00    3.10
  -3  -3  20   15.90    1.60
   2   3 -20    3.40    1.80
  -2  -3  20    1.50    0.80
   1   3 -20    1.90    1.70
  -1  -3  20    2.30    0.90
   0   3 -20   12.70    2.70
   0  -3  20   16.50    1.60
  -1   3 -20   64.99    3.40
  -1   3 -20   61.69    5.70
  -2   3 -20   54.29    5.40
  -2   3 -20   55.19    3.10
  -3   3 -20    2.90    1.80
  -3   3 -20    2.80    1.10
  -4   3 -20    0.00    0.90
  -4   3 -20    1.50    1.00
  -5   3 -20    0.80    0.70
  -5  -2  20   10.50    1.20
  -4  -2  20    3.50    0.90
   3   2 -20   -0.40    1.30
  -3  -2  20    0.90    0.80
   2   2 -20    2.20    1.80
  -2  -2  20    4.20    1.00
   1   2 -20    3.80    2.00
  -1  -2  20    4.30    1.10
   0   2 -20    2.80    2.00
   0  -2  20    2.30    1.00
  -1   2 -20    0.30    1.00
  -1   2 -20   -1.10    1.50
  -2   2 -20    5.90    1.30
  -2   2 -20    4.20    2.10
  -3   2 -20    2.50    1.90
  -3   2 -20    2.80    1.20
  -3   2 -20    2.90    1.00
  -4   2 -20    0.50    0.90
  -4   2 -20   -0.60    0.80
  -5   2 -20    3.00    0.80
  -6  -1  20    0.40    0.60
  -5  -1  20   -0.10    0.70
  -4  -1  20    3.30    0.90
   3   1 -20    5.10    2.00
   3   1 -20   10.40    1.10
  -3  -1  20    6.10    1.10
   2   1 -20   -0.50    1.50
  -2  -1  20   -0.30    0.90
   1   1 -20    1.30    1.70
  -1  -1  20    2.60    1.00
   0   1 -20   14.60    1.70
   0   1 -20   15.00    3.00
  -1   1 -20   61.59    3.40
  -1   1 -20   58.89    5.70
  -2   1 -20   22.60    4.10
  -2   1 -20   19.40    2.20
  -2   1 -20   27.10    2.20
  -3   1 -20    1.10    1.00
  -3   1 -20   -0.40    0.80
  -3   1 -20   -1.00    1.40
  -4   1 -20   -0.20    0.70
  -4   1 -20    0.00    0.90
  -6   0  20    1.30    0.70
  -5   0  20    0.70    0.80
  -4   0  20    0.90    0.90
   3   0 -20    9.10    2.30
  -3   0  20   10.50    1.40
   2   0 -20   35.00    4.50
  -2   0  20   38.80    2.40
   1   0 -20    4.00    2.10
  -1   0  20    4.90    1.10
   0   0 -20    2.30    2.00
   0   0 -20    3.60    1.20
  -1   0 -20    2.20    1.30
  -1   0 -20    3.00    1.90
  -1   0 -20    3.00    1.10
  -2   0 -20   11.80    1.40
  -2   0 -20    9.70    1.70
  -2   0 -20   13.10    2.80
  -3   0 -20    0.20    0.80
  -3   0 -20    2.90    1.20
  -3   0 -20    0.50    1.50
  -4   0 -20    0.40    0.70
  -6   1  20   22.90    1.60
  -5   1  20   29.20    2.00
   4  -1 -20    6.30    0.90
  -4   1  20    5.20    1.10
   3  -1 -20    3.90    1.80
  -3   1  20    6.40    1.10
   2  -1 -20    0.80    1.60
  -2   1  20    1.20    0.90
   1  -1 -20   32.80    4.30
  -1   1  20   28.90    2.10
   0  -1 -20   35.90    2.90
   0  -1 -20   41.90    4.90
  -1  -1 -20   36.70    2.90
  -1  -1 -20   35.90    2.40
  -1  -1 -20   38.20    4.60
  -2  -1 -20    0.70    0.80
  -2  -1 -20   -0.40    1.50
  -2  -1 -20    0.40    1.10
  -3  -1 -20    1.10    1.00
  -3  -1 -20   -0.30    0.70
  -6   2  20    1.40    0.70
  -5   2  20   26.10    1.80
   4  -2 -20    0.10    1.20
   4  -2 -20    0.90    0.70
  -4   2  20    1.90    0.80
   3  -2 -20   21.90    3.50
  -3   2  20   23.50    1.80
   2  -2 -20    1.50    1.70
  -2   2  20    1.80    0.80
   1  -2 -20   17.90    2.10
   1  -2 -20   17.30    3.70
  -1   2  20   18.20    1.60
   0  -2 -20   32.10    2.60
   0  -2 -20   30.20    4.10
   0   2  20   31.10    2.00
  -1  -2 -20   15.40    1.50
  -1  -2 -20   15.50    3.20
  -1  -2 -20   14.50    1.90
  -2  -2 -20    2.30    0.80
  -2  -2 -20    4.20    1.20
  -2  -2 -20    2.90    1.60
  -6   3  20   26.60    1.80
   5  -3 -20    8.20    0.90
  -5   3  20    7.80    1.00
   4  -3 -20    0.70    0.80
   4  -3 -20    0.80    1.20
  -4   3  20    1.00    0.70
   3  -3 -20    2.60    1.60
  -3   3  20    4.20    0.90
   2  -3 -20    5.20    1.40
   2  -3 -20    4.60    1.80
  -2   3  20    7.10    1.00
   1  -3 -20    5.20    1.30
   1  -3 -20    2.70    1.70
  -1   3  20    4.90    0.90
   0  -3 -20    8.80    2.30
   0  -3 -20    8.90    1.50
  -1  -3 -20    6.50    2.00
  -1  -3 -20    6.10    1.30
   5  -4 -20    6.40    0.90
   4  -4 -20   41.90    3.60
   4  -4 -20   47.10    2.40
   3  -4 -20   16.90    2.10
   3  -4 -20   18.40    3.00
   3  -4 -20   17.50    1.60
   2  -4 -20   20.80    3.30
   2  -4 -20   23.30    2.30
   1  -4 -20    4.00    1.70
   1  -4 -20    2.20    1.10
   0  -4 -20   42.20    3.80
   0  -4 -20   41.70    2.80
   4  -5 -20    1.40    0.80
   3  -5 -20    5.80    1.00
   3  -5 -20    5.30    1.60
   2  -5 -20    0.80    1.10
   2  -5 -20    0.20    0.70
   1  -5 -20    1.90    1.30
   0   6 -21   13.80    2.60
  -1   6 -21    1.20    1.30
  -2   6 -21    1.00    1.30
  -3   6 -21    0.50    1.20
   1   5 -21    2.30    1.30
   0   5 -21    1.10    1.30
  -1   5 -21    7.70    1.90
  -2   5 -21   10.00    2.20
  -3   5 -21    5.50    1.80
   3  -5  21    9.20    1.00
   2   4 -21    8.20    1.90
  -2  -4  21   10.90    1.10
   1   4 -21    0.20    1.30
  -1  -4  21    1.90    0.70
   0   4 -21   -0.10    1.30
   0  -4  21    0.60    0.70
  -1   4 -21    6.70    2.10
   1  -4  21    8.00    1.00
  -2   4 -21   17.00    3.30
   2  -4  21   16.60    1.50
  -3   4 -21   14.10    2.80
  -3   4 -21   12.10    1.30
  -3  -3  21    2.10    0.70
   2   3 -21    1.70    1.40
  -2  -3  21    2.10    0.80
   1   3 -21    0.40    1.30
  -1  -3  21    0.90    0.70
   0   3 -21   -0.40    1.40
   0  -3  21    0.00    0.70
  -1   3 -21    3.50    1.80
   1  -3  21    3.50    0.90
  -2   3 -21    3.90    1.70
  -2   3 -21    2.30    0.90
  -3   3 -21   -0.20    1.30
  -3   3 -21    0.30    0.70
  -4  -2  21    2.30    0.70
   3   2 -21   31.50    3.40
  -3  -2  21   35.90    2.00
   2   2 -21   42.90    4.10
  -2  -2  21   41.60    2.30
   1   2 -21   24.90    3.60
  -1  -2  21   22.50    1.70
   0   2 -21   68.59    5.60
   0  -2  21   69.99    3.30
  -1   2 -21   94.89    6.50
   1  -2  21   93.29    4.20
  -2   2 -21   25.60    3.70
  -2   2 -21   23.50    1.90
  -3   2 -21    4.60    1.70
  -3   2 -21    6.20    1.00
  -4  -1  21    4.10    0.90
   3   1 -21   -0.90    1.00
  -3  -1  21    0.90    0.70
   2   1 -21    1.50    1.50
  -2  -1  21    2.30    0.90
   1   1 -21    4.10    1.90
  -1  -1  21    3.20    0.90
   0   1 -21    0.30    1.60
   0  -1  21    0.10    0.70
  -1   1 -21    0.10    1.50
   1  -1  21    1.60    0.80
  -2   1 -21    0.70    0.80
  -2   1 -21    1.20    1.00
  -2   1 -21   -0.20    1.30
  -3   1 -21   -0.20    0.60
  -3   1 -21   -0.70    1.90
  -4   0  21    1.30    0.70
   3   0 -21    2.40    0.60
   3   0 -21    1.90    1.30
  -3   0  21    2.80    0.80
   2   0 -21    2.40    1.60
  -2   0  21    4.70    0.90
   1   0 -21    0.30    1.40
  -1   0  21    2.40    0.80
   0   0 -21   11.40    2.50
   0   0  21   16.10    1.50
  -1   0 -21    8.80    1.50
  -1   0 -21    7.90    2.20
   1   0  21    8.90    1.10
  -2   0 -21    9.20    2.20
  -2   0 -21   10.90    2.30
  -2   0 -21   11.60    1.20
  -4   1  21    0.90    0.70
   3  -1 -21    3.10    0.80
   3  -1 -21    4.00    1.50
  -3   1  21    4.20    0.80
   2  -1 -21    1.50    1.40
  -2   1  21    0.70    0.70
   1  -1 -21    1.90    1.50
  -1   1  21    1.10    0.70
   0  -1 -21    7.10    1.20
   0  -1 -21    5.90    2.00
   0   1  21    6.40    1.00
  -1  -1 -21    9.70    2.20
  -1  -1 -21   10.70    1.50
   1   1  21    8.90    1.10
  -2  -1 -21   -0.60    1.20
   2   1  21    0.40    0.60
   4  -2 -21    7.20    0.80
  -4   2  21    7.50    1.00
   3  -2 -21    3.00    1.40
   3  -2 -21    2.80    0.80
  -3   2  21    4.30    0.80
   2  -2 -21    7.30    1.90
  -2   2  21    7.80    1.00
   1  -2 -21   23.90    3.30
  -1   2  21   23.70    1.60
   0  -2 -21    7.20    1.90
   0   2  21    7.40    0.90
  -1  -2 -21    0.00    1.10
   3  -3 -21   19.20    2.70
   3  -3 -21   19.00    1.60
  -3   3  21   19.10    1.90
   2  -3 -21    0.80    1.10
  -2   3  21    0.10    0.80
   1  -3 -21    3.60    1.50
   1   3 -22    6.60    1.70
  -1  -3  22    7.60    0.90
   0   3 -22    0.40    1.20
   0  -3  22    0.00    0.50
  -1   3 -22    5.60    1.70
   1  -3  22    7.70    0.90
   1   2 -22    0.20    1.10
  -1  -2  22   -0.30    0.50
   0   2 -22    1.00    1.30
   0  -2  22    1.10    0.60
  -1   2 -22    0.30    1.20
   1  -2  22    0.10    0.50
   2   1 -22   22.60    2.80
  -2  -1  22   22.80    1.50
   1   1 -22    3.20    1.40
  -1  -1  22    1.40    0.60
   0   1 -22    5.00    1.60
   0  -1  22    7.00    0.90
   2   0 -22   -0.90    0.50
   2   0 -22    0.10    1.10
  -2   0  22    0.70    0.60
   1   0 -22    0.10    1.10
  -1   0  22    0.70    0.60
   0   0  22    0.70    0.60
   0   0   0    0.00    0.00
_computing_structure_solution     'SHELXT 2014/5 (Sheldrick, 2014)'
;
_shelx_hkl_checksum              28065
_shelx_res_file
;
TITL DABCO_NEW_a.res in P-1
    DABCO_NEW_a.res
    created by SHELXL-2017/1 at 15:07:03 on 08-Jan-2019
CELL  1.54178  11.4402  13.4019  18.6407   95.774   92.199  113.630
ZERR    2.000   0.0002   0.0003   0.0004    0.001    0.001    0.001
LATT 1
SFAC C  H  Cl Mn N  O
UNIT 126  120  2  2  16  2
OMIT -2 -3 13
OMIT 5 -9 5
OMIT 5 -9 3
L.S. 25
BOND $H
FMAP 2
ACTA
PLAN 2
MPLA 4 N1 N2 N3 N4
MPLA 5 N1 N2 N3 N4 MN1
RTAB MN1N MN1 N5
RTAB CLMN CL1 MN1 N5
MPLA 4 N1 N2 N3 N4
MPLA 3 CL1 MN1 N5
MPLA 6 C21 C22 C23 C24 C25 C26
MPLA 5 N1 N2 N3 N4 MN1
MPLA 6 C33 C34 C35 C36 C37 C38
MPLA 5 N1 N2 N3 N4 MN1
MPLA 6 C27 C28 C29 C30 C31 C32
MPLA 5 N1 N2 N3 N4 MN1
MPLA 6 C39 C40 C41 C42 C43 C44
MPLA 5 N1 N2 N3 N4 MN1
MPLA 13 C5 C6 C7 C8 C9 N2 C10 C11 C12 C13 C14 C15 N3
MPLA 13 C5 C4 C3 C2 C1 N1 C20 C19 C18 C17 C16 C15 N4
MPLA 13 C20 C1 C2 C3 C4 N1 C5 C6 C7 C8 C9 C10 N2
MPLA 13 C10 C11 C12 C13 C14 N3 C15 C16 C17 C18 C19 C20 N4
MPLA 3 C21 C5 MN1
MPLA 3 C33 C15 MN1
MPLA 3 C27 C10 MN1
MPLA 3 C39 C20 MN1
RTAB CLNNN CL1 MN1 N4
RTAB CLNNN CL1 MN1 N3
RTAB CLNNN CL1 MN1 N2
RTAB CLNNN CL1 MN1 N1
RTAB NMNN N5 MN1 N4
RTAB NMNN N5 MN1 N3
RTAB NMNN N5 MN1 N2
RTAB NMNN N5 MN1 N1
ISOR 0.001 C24 C25
SIZE 0.175 0.223 0.239
TEMP -173.050
WGHT    0.088700    3.265700
FVAR       0.24760
MN1   4    0.510952    0.783799    0.740108    11.00000    0.02643    0.02397 =
         0.01714    0.00457    0.00075    0.01197
CL1   3    0.710840    0.845373    0.683248    11.00000    0.03002    0.03309 =
         0.02757    0.00758    0.00718    0.01265
N1    5    0.597382    0.861744    0.838677    11.00000    0.02744    0.02837 =
         0.01998    0.00619    0.00239    0.01412
N4    5    0.521813    0.644777    0.765770    11.00000    0.02755    0.02688 =
         0.02103    0.00483    0.00266    0.01235
N3    5    0.406268    0.701258    0.647542    11.00000    0.02468    0.02352 =
         0.02181    0.00527    0.00300    0.01105
N2    5    0.478976    0.917081    0.720233    11.00000    0.02489    0.02382 =
         0.02067    0.00180   -0.00033    0.01085
N5    5    0.295060    0.718738    0.800521    11.00000    0.02733    0.02658 =
         0.02011    0.00406    0.00032    0.01259
N6    5    0.079766    0.657263    0.861004    11.00000    0.03193    0.03735 =
         0.03051    0.01082    0.00660    0.01589
N7    5    0.092503   -0.007466    0.835194    11.00000    0.07079    0.09049 =
         0.05109    0.03385    0.00463    0.03552
N8    5    0.073453    0.111394    0.737769    11.00000    0.04480    0.04972 =
         0.04536    0.00837    0.00347    0.02208
C1    1    0.648331    0.820301    0.890552    11.00000    0.02967    0.03274 =
         0.01780    0.00768    0.00373    0.01517
C2    1    0.708630    0.903667    0.950522    11.00000    0.03966    0.03845 =
         0.01800    0.00661   -0.00032    0.01975
AFIX  43
H2    2    0.749984    0.895859    0.993447    11.00000   -1.20000
AFIX   0
C3    1    0.696277    0.995092    0.935234    11.00000    0.03780    0.03428 =
         0.01912    0.00088   -0.00118    0.01695
AFIX  43
H3    2    0.727219    1.063612    0.965252    11.00000   -1.20000
AFIX   0
C4    1    0.627212    0.969661    0.864687    11.00000    0.02726    0.03061 =
         0.02066    0.00092    0.00165    0.01286
C5    1    0.597233    1.044118    0.829305    11.00000    0.02568    0.02837 =
         0.01851    0.00288    0.00481    0.01151
C6    1    0.526577    1.017712    0.761850    11.00000    0.02484    0.02775 =
         0.02255    0.00399    0.00562    0.01311
C7    1    0.490876    1.093310    0.726716    11.00000    0.03060    0.02518 =
         0.02435    0.00370    0.00247    0.01289
AFIX  43
H7    2    0.511609    1.167980    0.744252    11.00000   -1.20000
AFIX   0
C8    1    0.422390    1.037928    0.664165    11.00000    0.02916    0.02514 =
         0.02272    0.00582    0.00146    0.01243
AFIX  43
H8    2    0.385364    1.066486    0.629486    11.00000   -1.20000
AFIX   0
C9    1    0.415319    0.927872    0.659244    11.00000    0.02384    0.02721 =
         0.01973    0.00674    0.00366    0.01153
C10   1    0.355833    0.846935    0.601090    11.00000    0.02238    0.02725 =
         0.01865    0.00799    0.00448    0.00785
C11   1    0.352107    0.741291    0.596015    11.00000    0.02288    0.02805 =
         0.01835    0.00401    0.00108    0.00933
C12   1    0.288937    0.657140    0.537082    11.00000    0.02593    0.03000 =
         0.02284    0.00535   -0.00039    0.00807
AFIX  43
H12   2    0.244693    0.664015    0.494965    11.00000   -1.20000
AFIX   0
C13   1    0.303437    0.565767    0.552025    11.00000    0.02692    0.02812 =
         0.02458    0.00110    0.00089    0.00822
AFIX  43
H13   2    0.271269    0.496746    0.522537    11.00000   -1.20000
AFIX   0
C14   1    0.376690    0.592987    0.620926    11.00000    0.02291    0.02701 =
         0.02316    0.00486    0.00325    0.00875
C15   1    0.409414    0.518912    0.655212    11.00000    0.02303    0.02660 =
         0.02673    0.00667    0.00793    0.01027
C16   1    0.475998    0.543960    0.723381    11.00000    0.02384    0.02711 =
         0.02398    0.00692    0.00562    0.01144
C17   1    0.509353    0.468364    0.759521    11.00000    0.03604    0.02795 =
         0.02748    0.00947    0.01004    0.01741
AFIX  43
H17   2    0.488191    0.393590    0.742074    11.00000   -1.20000
AFIX   0
C18   1    0.576368    0.522778    0.822917    11.00000    0.03906    0.03270 =
         0.02599    0.01064    0.00314    0.02192
AFIX  43
H18   2    0.611820    0.493668    0.858012    11.00000   -1.20000
AFIX   0
C19   1    0.584031    0.633268    0.827358    11.00000    0.02755    0.03229 =
         0.02182    0.01044    0.00816    0.01444
C20   1    0.643823    0.714183    0.885628    11.00000    0.03136    0.03390 =
         0.01940    0.00939    0.00480    0.01526
C21   1    0.642309    1.159723    0.865391    11.00000    0.03972    0.03277 =
         0.02682   -0.00280   -0.01112    0.01988
C22   1    0.741167    1.243760    0.839071    11.00000    0.04063    0.03275 =
         0.05653    0.00005   -0.01109    0.01416
AFIX  43
H22   2    0.780718    1.227563    0.798261    11.00000   -1.20000
AFIX   0
C23   1    0.783434    1.352534    0.872093    11.00000    0.05873    0.03626 =
         0.10663    0.01428   -0.04438    0.00674
AFIX  43
H23   2    0.851122    1.410154    0.854017    11.00000   -1.20000
AFIX   0
C24   1    0.724766    1.374062    0.931265    11.00000    0.07567    0.06980 =
         0.07160    0.00736   -0.00081    0.03268
AFIX  43
H24   2    0.752198    1.447355    0.954056    11.00000   -1.20000
AFIX   0
C25   1    0.630608    1.293921    0.956807    11.00000    0.07315    0.06940 =
         0.06658    0.00641    0.00266    0.03314
AFIX  43
H25   2    0.592420    1.311210    0.997902    11.00000   -1.20000
AFIX   0
C26   1    0.585518    1.184253    0.925032    11.00000    0.08959    0.05090 =
         0.02511   -0.00366   -0.00297    0.05189
AFIX  43
H26   2    0.517525    1.128069    0.944019    11.00000   -1.20000
AFIX   0
C27   1    0.285332    0.872715    0.541058    11.00000    0.02877    0.02046 =
         0.02397    0.00193   -0.00228    0.00963
C28   1    0.338445    0.899911    0.476221    11.00000    0.03069    0.03308 =
         0.02503    0.00828    0.00086    0.01034
AFIX  43
H28   2    0.420825    0.901419    0.468882    11.00000   -1.20000
AFIX   0
C29   1    0.271579    0.924914    0.422060    11.00000    0.04055    0.03498 =
         0.02571    0.01072   -0.00152    0.01055
AFIX  43
H29   2    0.309295    0.945009    0.378289    11.00000   -1.20000
AFIX   0
C30   1    0.151178    0.920742    0.431446    11.00000    0.04102    0.03819 =
         0.03400    0.00798   -0.01021    0.01720
AFIX  43
H30   2    0.105489    0.937224    0.394089    11.00000   -1.20000
AFIX   0
C31   1    0.096575    0.892383    0.495654    11.00000    0.03228    0.04177 =
         0.03840    0.00332   -0.00532    0.01755
AFIX  43
H31   2    0.013096    0.888772    0.502224    11.00000   -1.20000
AFIX   0
C32   1    0.164069    0.869393    0.550051    11.00000    0.03148    0.03636 =
         0.02547    0.00300   -0.00057    0.01373
AFIX  43
H32   2    0.126861    0.851068    0.594199    11.00000   -1.20000
AFIX   0
C33   1    0.369297    0.405837    0.615866    11.00000    0.02559    0.02689 =
         0.02777    0.00663    0.00146    0.01129
C34   1    0.438133    0.386909    0.560250    11.00000    0.02990    0.02950 =
         0.04531    0.00131    0.01313    0.00752
AFIX  43
H34   2    0.513657    0.445091    0.549228    11.00000   -1.20000
AFIX   0
C35   1    0.397600    0.283876    0.520691    11.00000    0.03906    0.03272 =
         0.05026   -0.00635    0.01080    0.01099
AFIX  43
H35   2    0.444561    0.272277    0.482170    11.00000   -1.20000
AFIX   0
C36   1    0.289799    0.198350    0.536885    11.00000    0.04105    0.02529 =
         0.04229    0.00222   -0.00230    0.01201
AFIX  43
H36   2    0.262277    0.127797    0.509711    11.00000   -1.20000
AFIX   0
C37   1    0.222266    0.215515    0.592495    11.00000    0.03762    0.02858 =
         0.04131    0.00899   -0.00291    0.00019
AFIX  43
H37   2    0.148237    0.156393    0.604102    11.00000   -1.20000
AFIX   0
C38   1    0.261320    0.318695    0.631956    11.00000    0.03215    0.03485 =
         0.03399    0.01030    0.00901    0.01011
AFIX  43
H38   2    0.213669    0.329673    0.670291    11.00000   -1.20000
AFIX   0
C39   1    0.711441    0.687586    0.946730    11.00000    0.03960    0.03472 =
         0.02061    0.00540    0.00258    0.02270
C40   1    0.644928    0.631085    1.000405    11.00000    0.03576    0.04779 =
         0.03690    0.02034   -0.00262    0.00650
AFIX  43
H40   2    0.554349    0.605848    0.997893    11.00000   -1.20000
AFIX   0
C41   1    0.709215    0.610708    1.058174    11.00000    0.05220    0.04712 =
         0.03405    0.02362   -0.00305    0.00194
AFIX  43
H41   2    0.662338    0.572561    1.095114    11.00000   -1.20000
AFIX   0
C42   1    0.838294    0.644883    1.062160    11.00000    0.05569    0.04263 =
         0.02574    0.00413   -0.00853    0.02863
AFIX  43
H42   2    0.881857    0.631267    1.101911    11.00000   -1.20000
AFIX   0
C43   1    0.905100    0.698814    1.008879    11.00000    0.05280    0.12929 =
         0.04729    0.03396    0.01247    0.06115
AFIX  43
H43   2    0.995369    0.721698    1.011094    11.00000   -1.20000
AFIX   0
C44   1    0.842116    0.720590    0.951301    11.00000    0.05005    0.12768 =
         0.03977    0.04779    0.02229    0.05669
AFIX  43
H44   2    0.889896    0.758751    0.914631    11.00000   -1.20000
AFIX   0
C45   1    0.269049    0.616678    0.833812    11.00000    0.03686    0.03625 =
         0.03589    0.01255    0.01349    0.01875
AFIX  23
H45A  2    0.339340    0.629538    0.871047    11.00000   -1.20000
H45B  2    0.265816    0.557631    0.796285    11.00000   -1.20000
AFIX   0
C46   1    0.139911    0.580021    0.869109    11.00000    0.03795    0.03834 =
         0.03768    0.01514    0.00799    0.01547
AFIX  23
H46A  2    0.081325    0.505850    0.846032    11.00000   -1.20000
H46B  2    0.155155    0.576024    0.921172    11.00000   -1.20000
AFIX   0
C47   1    0.169830    0.766447    0.893994    11.00000    0.03670    0.04061 =
         0.03617    0.00847    0.01160    0.01865
AFIX  23
H47A  2    0.186825    0.764978    0.946269    11.00000   -1.20000
H47B  2    0.130994    0.819722    0.889045    11.00000   -1.20000
AFIX   0
C48   1    0.297701    0.804371    0.858080    11.00000    0.03018    0.03618 =
         0.02963    0.00126    0.00697    0.01536
AFIX  23
H48A  2    0.312470    0.872944    0.837038    11.00000   -1.20000
H48B  2    0.369175    0.819931    0.895132    11.00000   -1.20000
AFIX   0
C49   1    0.185331    0.695962    0.746596    11.00000    0.02646    0.05111 =
         0.02606    0.00896   -0.00005    0.01089
AFIX  23
H49A  2    0.180423    0.637517    0.708103    11.00000   -1.20000
H49B  2    0.198861    0.762954    0.723848    11.00000   -1.20000
AFIX   0
C50   1    0.057816    0.659236    0.783305    11.00000    0.02920    0.05259 =
         0.03232    0.01525    0.00570    0.01414
AFIX  23
H50A  2    0.016902    0.710424    0.775924    11.00000   -1.20000
H50B  2   -0.001253    0.585078    0.760461    11.00000   -1.20000
AFIX   0
C51   1    0.060719    0.003679    0.706185    11.00000    0.05029    0.05212 =
         0.05243    0.00574    0.00590    0.02645
AFIX  23
H51A  2    0.127814    0.011943    0.672437    11.00000   -1.20000
H51B  2   -0.023754   -0.035163    0.678219    11.00000   -1.20000
AFIX   0
C52   1    0.072977   -0.063084    0.763831    11.00000    0.09543    0.05051 =
         0.07853    0.00636    0.00959    0.04024
AFIX  23
H52A  2   -0.005730   -0.131730    0.760045    11.00000   -1.20000
H52B  2    0.145729   -0.083579    0.754976    11.00000   -1.20000
AFIX   0
C53   1    0.208129    0.097163    0.839845    11.00000    0.03953    0.12251 =
         0.03645    0.01407   -0.00531    0.01690
AFIX  23
H53A  2    0.284777    0.080947    0.834764    11.00000   -1.20000
H53B  2    0.218279    0.139760    0.887974    11.00000   -1.20000
AFIX   0
C54   1    0.198907    0.165552    0.781283    11.00000    0.03744    0.05773 =
         0.05494    0.00524    0.00563    0.01745
AFIX  23
H54A  2    0.209416    0.239033    0.803937    11.00000   -1.20000
H54B  2    0.268723    0.175449    0.749233    11.00000   -1.20000
AFIX   0
C55   1   -0.016406    0.025221    0.845731    11.00000    0.05435    0.11097 =
         0.05745    0.01322    0.02697    0.01928
AFIX  23
H55A  2   -0.004217    0.066668    0.894471    11.00000   -1.20000
H55B  2   -0.097327   -0.041375    0.842633    11.00000   -1.20000
AFIX   0
C56   1   -0.025557    0.097123    0.787712    11.00000    0.05652    0.06256 =
         0.07164    0.00752    0.02249    0.03357
AFIX  23
H56A  2   -0.110991    0.061971    0.760447    11.00000   -1.20000
H56B  2   -0.015550    0.169821    0.811607    11.00000   -1.20000
AFIX   0
C57   1    0.139215    0.444498    0.382576    11.00000    0.04502    0.06536 =
         0.03936   -0.01164   -0.00862    0.02034
C58   1    0.035931    0.465331    0.403729    11.00000    0.02783    0.03987 =
         0.03124   -0.00472   -0.00051    0.01016
AFIX  43
H58   2   -0.025931    0.413510    0.429001    11.00000   -1.20000
AFIX   0
C59   1    0.018810    0.555189    0.390302    11.00000    0.05241    0.06545 =
         0.05268   -0.00319   -0.00637    0.02626
AFIX  43
H59   2   -0.054486    0.565123    0.405611    11.00000   -1.20000
AFIX   0
C60   1    0.108627    0.635069    0.353662    11.00000    0.06002    0.04986 =
         0.06919    0.00851   -0.01882    0.01289
AFIX  43
H60   2    0.097246    0.698703    0.343230    11.00000   -1.20000
AFIX   0
C61   1    0.213243    0.616678    0.333761    11.00000    0.06380    0.10423 =
         0.05180    0.03235   -0.00795   -0.01807
AFIX  43
H61   2    0.277761    0.670680    0.311188    11.00000   -1.20000
AFIX   0
C62   1    0.227620    0.520509    0.345787    11.00000    0.03301    0.07851 =
         0.04018    0.00699    0.00836    0.01076
AFIX  43
H62   2    0.298163    0.507744    0.328615    11.00000   -1.20000
AFIX   0
C63   1    0.153040    0.342988    0.395854    11.00000    0.07268    0.05337 =
         0.07558   -0.02529   -0.01916    0.03223
AFIX 137
H63A  2    0.122515    0.322792    0.442918    11.00000   -1.50000
H63B  2    0.243394    0.355104    0.395798    11.00000   -1.50000
H63C  2    0.102399    0.283603    0.357671    11.00000   -1.50000
AFIX   0
O1    6    0.073752    0.333102    0.772505    10.25000    0.13838    0.10697 =
         0.06853    0.02334    0.02489    0.07735
HKLF 4
REM  DABCO_NEW_a.res in P-1
REM R1 =  0.0641 for    6596 Fo > 4sig(Fo)  and  0.0834 for all    8538 data
REM    668 parameters refined using     12 restraints
END
WGHT      0.0887      3.2658
REM Highest difference peak  1.300,  deepest hole -0.680,  1-sigma level  0.073
Q1    1   0.6755  1.3404  0.9492  11.00000  0.05    1.30
Q2    1   0.5734  1.2645  0.9620  11.00000  0.05    1.25
;
_shelx_res_checksum              69437
loop_
_space_group_symop_operation_xyz
'x, y, z'
'-x, -y, -z'
loop_
_atom_site_type_symbol
_atom_site_label
_atom_site_fract_x
_atom_site_fract_y
_atom_site_fract_z
_atom_site_U_iso_or_equiv
_atom_site_adp_type
_atom_site_calc_flag
_atom_site_occupancy
Mn Mn1 0.51095(5) 0.78380(4) 0.74011(3) 0.02184(17) Uani d 1
Cl Cl1 0.71084(8) 0.84537(7) 0.68325(5) 0.0299(2) Uani d 1
N N1 0.5974(3) 0.8617(2) 0.83868(15) 0.0241(6) Uani d 1
N N4 0.5218(3) 0.6448(2) 0.76577(15) 0.0246(6) Uani d 1
N N3 0.4063(3) 0.7013(2) 0.64754(15) 0.0227(6) Uani d 1
N N2 0.4790(3) 0.9171(2) 0.72023(15) 0.0230(6) Uani d 1
N N5 0.2951(3) 0.7187(2) 0.80052(15) 0.0241(6) Uani d 1
N N6 0.0798(3) 0.6573(3) 0.86100(16) 0.0321(7) Uani d 1
N N7 0.0925(4) -0.0075(4) 0.8352(2) 0.0681(13) Uani d 1
N N8 0.0735(3) 0.1114(3) 0.7378(2) 0.0455(9) Uani d 1
C C1 0.6483(3) 0.8203(3) 0.89055(18) 0.0256(8) Uani d 1
C C2 0.7086(4) 0.9037(3) 0.95052(19) 0.0307(9) Uani d 1
H H2 0.749984 0.895859 0.993447 0.037 Uiso calc 1
C C3 0.6963(4) 0.9951(3) 0.93523(19) 0.0300(8) Uani d 1
H H3 0.727219 1.063612 0.965252 0.036 Uiso calc 1
C C4 0.6272(3) 0.9697(3) 0.86469(18) 0.0260(8) Uani d 1
C C5 0.5972(3) 1.0441(3) 0.82930(18) 0.0239(8) Uani d 1
C C6 0.5266(3) 1.0177(3) 0.76185(18) 0.0241(8) Uani d 1
C C7 0.4909(3) 1.0933(3) 0.72672(19) 0.0262(8) Uani d 1
H H7 0.511609 1.167980 0.744252 0.031 Uiso calc 1
C C8 0.4224(3) 1.0379(3) 0.66416(18) 0.0250(8) Uani d 1
H H8 0.385364 1.066486 0.629486 0.030 Uiso calc 1
C C9 0.4153(3) 0.9279(3) 0.65924(18) 0.0229(8) Uani d 1
C C10 0.3558(3) 0.8469(3) 0.60109(18) 0.0230(8) Uani d 1
C C11 0.3521(3) 0.7413(3) 0.59601(18) 0.0234(8) Uani d 1
C C12 0.2889(3) 0.6571(3) 0.53708(19) 0.0272(8) Uani d 1
H H12 0.244693 0.664015 0.494965 0.033 Uiso calc 1
C C13 0.3034(3) 0.5658(3) 0.55202(19) 0.0277(8) Uani d 1
H H13 0.271269 0.496746 0.522537 0.033 Uiso calc 1
C C14 0.3767(3) 0.5930(3) 0.62093(18) 0.0247(8) Uani d 1
C C15 0.4094(3) 0.5189(3) 0.65521(19) 0.0250(8) Uani d 1
C C16 0.4760(3) 0.5440(3) 0.72338(18) 0.0243(8) Uani d 1
C C17 0.5094(3) 0.4684(3) 0.75952(19) 0.0284(8) Uani d 1
H H17 0.488191 0.393590 0.742074 0.034 Uiso calc 1
C C18 0.5764(4) 0.5228(3) 0.82292(19) 0.0297(8) Uani d 1
H H18 0.611820 0.493668 0.858012 0.036 Uiso calc 1
C C19 0.5840(3) 0.6333(3) 0.82736(18) 0.0258(8) Uani d 1
C C20 0.6438(3) 0.7142(3) 0.88563(18) 0.0271(8) Uani d 1
C C21 0.6423(4) 1.1597(3) 0.8654(2) 0.0323(9) Uani d 1
C C22 0.7412(4) 1.2438(3) 0.8391(3) 0.0444(11) Uani d 1
H H22 0.780718 1.227563 0.798261 0.053 Uiso calc 1
C C23 0.7834(5) 1.3525(4) 0.8721(4) 0.0723(19) Uani d 1
H H23 0.851122 1.410154 0.854017 0.087 Uiso calc 1
C C24 0.7248(6) 1.3741(5) 0.9313(3) 0.0717(16) Uani d 1
H H24 0.752198 1.447355 0.954056 0.086 Uiso calc 1
C C25 0.6306(6) 1.2939(5) 0.9568(3) 0.0686(15) Uani d 1
H H25 0.592420 1.311210 0.997902 0.082 Uiso calc 1
C C26 0.5855(5) 1.1843(4) 0.9250(2) 0.0485(12) Uani d 1
H H26 0.517525 1.128069 0.944019 0.058 Uiso calc 1
C C27 0.2853(3) 0.8727(3) 0.54106(18) 0.0247(8) Uani d 1
C C28 0.3384(4) 0.8999(3) 0.47622(19) 0.0302(8) Uani d 1
H H28 0.420825 0.901419 0.468882 0.036 Uiso calc 1
C C29 0.2716(4) 0.9249(3) 0.4221(2) 0.0349(9) Uani d 1
H H29 0.309295 0.945009 0.378289 0.042 Uiso calc 1
C C30 0.1512(4) 0.9207(3) 0.4314(2) 0.0375(10) Uani d 1
H H30 0.105489 0.937224 0.394089 0.045 Uiso calc 1
C C31 0.0966(4) 0.8924(3) 0.4957(2) 0.0371(10) Uani d 1
H H31 0.013096 0.888772 0.502224 0.044 Uiso calc 1
C C32 0.1641(4) 0.8694(3) 0.5501(2) 0.0313(9) Uani d 1
H H32 0.126861 0.851068 0.594199 0.038 Uiso calc 1
C C33 0.3693(3) 0.4058(3) 0.61587(19) 0.0263(8) Uani d 1
C C34 0.4381(4) 0.3869(3) 0.5602(2) 0.0363(9) Uani d 1
H H34 0.513657 0.445091 0.549228 0.044 Uiso calc 1
C C35 0.3976(4) 0.2839(3) 0.5207(2) 0.0425(11) Uani d 1
H H35 0.444561 0.272277 0.482170 0.051 Uiso calc 1
C C36 0.2898(4) 0.1983(3) 0.5369(2) 0.0370(9) Uani d 1
H H36 0.262277 0.127797 0.509711 0.044 Uiso calc 1
C C37 0.2223(4) 0.2155(3) 0.5925(2) 0.0400(10) Uani d 1
H H37 0.148237 0.156393 0.604102 0.048 Uiso calc 1
C C38 0.2613(4) 0.3187(3) 0.6320(2) 0.0342(9) Uani d 1
H H38 0.213669 0.329673 0.670291 0.041 Uiso calc 1
C C39 0.7114(4) 0.6876(3) 0.94673(19) 0.0291(8) Uani d 1
C C40 0.6449(4) 0.6311(4) 1.0004(2) 0.0426(11) Uani d 1
H H40 0.554349 0.605848 0.997893 0.051 Uiso calc 1
C C41 0.7092(4) 0.6107(4) 1.0582(2) 0.0492(12) Uani d 1
H H41 0.662338 0.572561 1.095114 0.059 Uiso calc 1
C C42 0.8383(4) 0.6449(3) 1.0622(2) 0.0389(10) Uani d 1
H H42 0.881857 0.631267 1.101911 0.047 Uiso calc 1
C C43 0.9051(5) 0.6988(5) 1.0089(3) 0.0668(17) Uani d 1
H H43 0.995369 0.721698 1.011094 0.080 Uiso calc 1
C C44 0.8421(4) 0.7206(5) 0.9513(2) 0.0626(16) Uani d 1
H H44 0.889896 0.758751 0.914631 0.075 Uiso calc 1
C C45 0.2690(4) 0.6167(3) 0.8338(2) 0.0342(9) Uani d 1
H H45A 0.339340 0.629538 0.871047 0.041 Uiso calc 1
H H45B 0.265816 0.557631 0.796285 0.041 Uiso calc 1
C C46 0.1399(4) 0.5800(3) 0.8691(2) 0.0371(9) Uani d 1
H H46A 0.081325 0.505850 0.846032 0.045 Uiso calc 1
H H46B 0.155155 0.576024 0.921172 0.045 Uiso calc 1
C C47 0.1698(4) 0.7664(3) 0.8940(2) 0.0364(9) Uani d 1
H H47A 0.186825 0.764978 0.946269 0.044 Uiso calc 1
H H47B 0.130994 0.819722 0.889045 0.044 Uiso calc 1
C C48 0.2977(4) 0.8044(3) 0.8581(2) 0.0315(9) Uani d 1
H H48A 0.312470 0.872944 0.837038 0.038 Uiso calc 1
H H48B 0.369175 0.819931 0.895132 0.038 Uiso calc 1
C C49 0.1853(3) 0.6960(4) 0.7466(2) 0.0359(9) Uani d 1
H H49A 0.180423 0.637517 0.708103 0.043 Uiso calc 1
H H49B 0.198861 0.762954 0.723848 0.043 Uiso calc 1
C C50 0.0578(4) 0.6592(4) 0.7833(2) 0.0380(10) Uani d 1
H H50A 0.016902 0.710424 0.775924 0.046 Uiso calc 1
H H50B -0.001253 0.585078 0.760461 0.046 Uiso calc 1
C C51 0.0607(5) 0.0037(4) 0.7062(3) 0.0498(12) Uani d 1
H H51A 0.127814 0.011943 0.672437 0.060 Uiso calc 1
H H51B -0.023754 -0.035163 0.678219 0.060 Uiso calc 1
C C52 0.0730(6) -0.0631(5) 0.7638(3) 0.0715(16) Uani d 1
H H52A -0.005730 -0.131730 0.760045 0.086 Uiso calc 1
H H52B 0.145729 -0.083579 0.754976 0.086 Uiso calc 1
C C53 0.2081(5) 0.0972(6) 0.8398(3) 0.0713(18) Uani d 1
H H53A 0.284777 0.080947 0.834764 0.086 Uiso calc 1
H H53B 0.218279 0.139760 0.887974 0.086 Uiso calc 1
C C54 0.1989(4) 0.1656(4) 0.7813(3) 0.0508(12) Uani d 1
H H54A 0.209416 0.239033 0.803937 0.061 Uiso calc 1
H H54B 0.268723 0.175449 0.749233 0.061 Uiso calc 1
C C55 -0.0164(5) 0.0252(6) 0.8457(3) 0.0781(19) Uani d 1
H H55A -0.004217 0.066668 0.894471 0.094 Uiso calc 1
H H55B -0.097327 -0.041375 0.842633 0.094 Uiso calc 1
C C56 -0.0256(5) 0.0971(4) 0.7877(3) 0.0602(14) Uani d 1
H H56A -0.110991 0.061971 0.760447 0.072 Uiso calc 1
H H56B -0.015550 0.169821 0.811607 0.072 Uiso calc 1
C C57 0.1392(4) 0.4445(4) 0.3826(2) 0.0523(12) Uani d 1
C C58 0.0359(4) 0.4653(3) 0.4037(2) 0.0349(9) Uani d 1
H H58 -0.025931 0.413510 0.429001 0.042 Uiso calc 1
C C59 0.0188(5) 0.5552(5) 0.3903(3) 0.0572(13) Uani d 1
H H59 -0.054486 0.565123 0.405611 0.069 Uiso calc 1
C C60 0.1086(5) 0.6351(4) 0.3537(3) 0.0634(15) Uani d 1
H H60 0.097246 0.698703 0.343230 0.076 Uiso calc 1
C C61 0.2132(6) 0.6167(6) 0.3338(3) 0.089(2) Uani d 1
H H61 0.277761 0.670680 0.311188 0.107 Uiso calc 1
C C62 0.2276(4) 0.5205(5) 0.3458(2) 0.0543(13) Uani d 1
H H62 0.298163 0.507744 0.328615 0.065 Uiso calc 1
C C63 0.1530(6) 0.3430(4) 0.3959(3) 0.0683(16) Uani d 1
H H63A 0.122515 0.322792 0.442918 0.102 Uiso calc 1
H H63B 0.243394 0.355104 0.395798 0.102 Uiso calc 1
H H63C 0.102399 0.283603 0.357671 0.102 Uiso calc 1
O O1 0.074(2) 0.3331(16) 0.7725(9) 0.094(6) Uani d 0.25
loop_
_atom_site_aniso_label
_atom_site_aniso_U_11
_atom_site_aniso_U_22
_atom_site_aniso_U_33
_atom_site_aniso_U_12
_atom_site_aniso_U_13
_atom_site_aniso_U_23
Mn1 0.0264(3) 0.0240(3) 0.0171(3) 0.0120(3) 0.0008(2) 0.0046(2)
Cl1 0.0300(5) 0.0331(5) 0.0276(4) 0.0127(4) 0.0072(4) 0.0076(4)
N1 0.0274(15) 0.0284(17) 0.0200(14) 0.0141(14) 0.0024(12) 0.0062(13)
N4 0.0276(15) 0.0269(17) 0.0210(14) 0.0124(14) 0.0027(13) 0.0048(13)
N3 0.0247(15) 0.0235(16) 0.0218(14) 0.0111(13) 0.0030(12) 0.0053(13)
N2 0.0249(15) 0.0238(16) 0.0207(14) 0.0109(13) -0.0003(12) 0.0018(13)
N5 0.0273(15) 0.0266(16) 0.0201(14) 0.0126(14) 0.0003(12) 0.0041(13)
N6 0.0319(17) 0.0373(19) 0.0305(16) 0.0159(15) 0.0066(14) 0.0108(15)
N7 0.071(3) 0.090(4) 0.051(3) 0.036(3) 0.005(2) 0.034(3)
N8 0.045(2) 0.050(2) 0.045(2) 0.0221(19) 0.0035(18) 0.0084(19)
C1 0.0297(18) 0.033(2) 0.0178(16) 0.0152(17) 0.0037(15) 0.0077(16)
C2 0.040(2) 0.038(2) 0.0180(17) 0.0197(19) -0.0003(16) 0.0066(17)
C3 0.038(2) 0.034(2) 0.0191(17) 0.0169(18) -0.0012(16) 0.0009(17)
C4 0.0273(18) 0.031(2) 0.0207(17) 0.0129(17) 0.0016(15) 0.0009(16)
C5 0.0257(18) 0.028(2) 0.0185(16) 0.0115(16) 0.0048(15) 0.0029(16)
C6 0.0248(18) 0.028(2) 0.0226(17) 0.0131(16) 0.0056(15) 0.0040(16)
C7 0.0306(19) 0.025(2) 0.0243(18) 0.0129(17) 0.0025(16) 0.0037(16)
C8 0.0292(18) 0.025(2) 0.0227(17) 0.0124(16) 0.0015(15) 0.0058(16)
C9 0.0238(17) 0.027(2) 0.0197(16) 0.0115(16) 0.0037(15) 0.0067(16)
C10 0.0224(17) 0.027(2) 0.0187(16) 0.0079(16) 0.0045(14) 0.0080(16)
C11 0.0229(17) 0.028(2) 0.0184(16) 0.0093(16) 0.0011(14) 0.0040(16)
C12 0.0259(18) 0.030(2) 0.0228(17) 0.0081(17) -0.0004(15) 0.0053(17)
C13 0.0269(18) 0.028(2) 0.0246(18) 0.0082(17) 0.0009(16) 0.0011(17)
C14 0.0229(17) 0.027(2) 0.0232(17) 0.0087(16) 0.0032(15) 0.0049(16)
C15 0.0230(17) 0.027(2) 0.0267(18) 0.0103(16) 0.0079(15) 0.0067(16)
C16 0.0238(17) 0.027(2) 0.0240(17) 0.0114(16) 0.0056(15) 0.0069(16)
C17 0.036(2) 0.028(2) 0.0275(18) 0.0174(18) 0.0100(17) 0.0095(17)
C18 0.039(2) 0.033(2) 0.0260(18) 0.0219(18) 0.0031(17) 0.0106(17)
C19 0.0275(18) 0.032(2) 0.0218(17) 0.0144(17) 0.0082(15) 0.0104(17)
C20 0.0314(19) 0.034(2) 0.0194(17) 0.0153(18) 0.0048(16) 0.0094(17)
C21 0.040(2) 0.033(2) 0.0268(19) 0.0199(19) -0.0111(17) -0.0028(18)
C22 0.041(2) 0.033(2) 0.057(3) 0.014(2) -0.011(2) 0.000(2)
C23 0.059(3) 0.036(3) 0.107(5) 0.007(3) -0.044(3) 0.014(3)
C24 0.0757(18) 0.0698(18) 0.0716(18) 0.0327(11) -0.0008(10) 0.0074(10)
C25 0.0731(17) 0.0694(17) 0.0666(17) 0.0331(11) 0.0027(10) 0.0064(10)
C26 0.090(4) 0.051(3) 0.025(2) 0.052(3) -0.003(2) -0.004(2)
C27 0.0288(18) 0.0205(19) 0.0240(17) 0.0096(16) -0.0023(15) 0.0019(16)
C28 0.0307(19) 0.033(2) 0.0250(18) 0.0103(18) 0.0009(16) 0.0083(17)
C29 0.041(2) 0.035(2) 0.0257(19) 0.0105(19) -0.0015(17) 0.0107(18)
C30 0.041(2) 0.038(2) 0.034(2) 0.017(2) -0.0102(19) 0.0080(19)
C31 0.032(2) 0.042(2) 0.038(2) 0.0176(19) -0.0053(18) 0.003(2)
C32 0.031(2) 0.036(2) 0.0255(18) 0.0137(18) -0.0006(16) 0.0030(18)
C33 0.0256(18) 0.027(2) 0.0278(18) 0.0113(16) 0.0015(16) 0.0066(17)
C34 0.030(2) 0.029(2) 0.045(2) 0.0075(18) 0.0131(19) 0.001(2)
C35 0.039(2) 0.033(2) 0.050(3) 0.011(2) 0.011(2) -0.006(2)
C36 0.041(2) 0.025(2) 0.042(2) 0.0120(19) -0.002(2) 0.0022(19)
C37 0.038(2) 0.029(2) 0.041(2) 0.0002(19) -0.003(2) 0.009(2)
C38 0.032(2) 0.035(2) 0.034(2) 0.0101(18) 0.0090(18) 0.0103(19)
C39 0.040(2) 0.035(2) 0.0206(17) 0.0227(19) 0.0026(16) 0.0054(17)
C40 0.036(2) 0.048(3) 0.037(2) 0.007(2) -0.0026(19) 0.020(2)
C41 0.052(3) 0.047(3) 0.034(2) 0.002(2) -0.003(2) 0.024(2)
C42 0.056(3) 0.043(3) 0.0257(19) 0.029(2) -0.0085(19) 0.0041(19)
C43 0.053(3) 0.129(5) 0.047(3) 0.061(3) 0.012(2) 0.034(3)
C44 0.050(3) 0.128(5) 0.040(2) 0.057(3) 0.022(2) 0.048(3)
C45 0.037(2) 0.036(2) 0.036(2) 0.0188(19) 0.0135(18) 0.0126(19)
C46 0.038(2) 0.038(2) 0.038(2) 0.015(2) 0.0080(19) 0.015(2)
C47 0.037(2) 0.041(2) 0.036(2) 0.019(2) 0.0116(18) 0.008(2)
C48 0.030(2) 0.036(2) 0.0296(19) 0.0154(18) 0.0070(17) 0.0013(18)
C49 0.0265(19) 0.051(3) 0.0261(19) 0.0109(19) -0.0001(16) 0.0090(19)
C50 0.029(2) 0.053(3) 0.032(2) 0.014(2) 0.0057(17) 0.015(2)
C51 0.050(3) 0.052(3) 0.052(3) 0.026(2) 0.006(2) 0.006(2)
C52 0.095(4) 0.051(3) 0.079(4) 0.040(3) 0.010(3) 0.006(3)
C53 0.040(3) 0.123(5) 0.036(3) 0.017(3) -0.005(2) 0.014(3)
C54 0.037(2) 0.058(3) 0.055(3) 0.017(2) 0.006(2) 0.005(3)
C55 0.054(3) 0.111(5) 0.057(3) 0.019(3) 0.027(3) 0.013(4)
C56 0.057(3) 0.063(3) 0.072(3) 0.034(3) 0.022(3) 0.008(3)
C57 0.045(3) 0.065(3) 0.039(2) 0.020(3) -0.009(2) -0.012(2)
C58 0.028(2) 0.040(2) 0.031(2) 0.0102(19) -0.0005(17) -0.0047(19)
C59 0.052(3) 0.065(3) 0.053(3) 0.026(3) -0.006(2) -0.003(3)
C60 0.060(3) 0.050(3) 0.069(4) 0.013(3) -0.019(3) 0.009(3)
C61 0.064(4) 0.104(5) 0.052(3) -0.018(4) -0.008(3) 0.032(4)
C62 0.033(2) 0.079(4) 0.040(3) 0.011(3) 0.008(2) 0.007(3)
C63 0.073(4) 0.053(3) 0.076(4) 0.032(3) -0.019(3) -0.025(3)
O1 0.138(16) 0.107(14) 0.069(10) 0.077(13) 0.025(11) 0.023(10)
loop_
_atom_type_symbol
_atom_type_description
_atom_type_scat_dispersion_real
_atom_type_scat_dispersion_imag
_atom_type_scat_source
C C 0.0181 0.0091 'International Tables Vol C Tables 4.2.6.8 and 6.1.1.4'
H H 0.0000 0.0000 'International Tables Vol C Tables 4.2.6.8 and 6.1.1.4'
Cl Cl 0.3639 0.7018 'International Tables Vol C Tables 4.2.6.8 and 6.1.1.4'
Mn Mn -0.5299 2.8052 'International Tables Vol C Tables 4.2.6.8 and 6.1.1.4'
N N 0.0311 0.0180 'International Tables Vol C Tables 4.2.6.8 and 6.1.1.4'
O O 0.0492 0.0322 'International Tables Vol C Tables 4.2.6.8 and 6.1.1.4'
loop_
_geom_angle_atom_site_label_1
_geom_angle_atom_site_label_2
_geom_angle_atom_site_label_3
_geom_angle
N3 Mn1 N4 89.89(12)
N3 Mn1 N1 173.48(11)
N4 Mn1 N1 89.87(12)
N3 Mn1 N2 89.66(11)
N4 Mn1 N2 172.80(11)
N1 Mn1 N2 89.76(12)
N3 Mn1 Cl1 93.35(8)
N4 Mn1 Cl1 94.32(9)
N1 Mn1 Cl1 93.17(9)
N2 Mn1 Cl1 92.88(9)
C4 N1 C1 106.3(3)
C4 N1 Mn1 126.7(2)
C1 N1 Mn1 126.8(2)
C19 N4 C16 106.1(3)
C19 N4 Mn1 126.7(2)
C16 N4 Mn1 127.0(2)
C14 N3 C11 105.7(3)
C14 N3 Mn1 126.9(2)
C11 N3 Mn1 127.4(2)
C6 N2 C9 106.4(3)
C6 N2 Mn1 126.6(2)
C9 N2 Mn1 126.8(2)
C48 N5 C45 107.8(3)
C48 N5 C49 108.1(3)
C45 N5 C49 107.3(3)
C47 N6 C50 109.0(3)
C47 N6 C46 108.1(3)
C50 N6 C46 107.3(3)
C52 N7 C53 108.6(4)
C52 N7 C55 107.3(4)
C53 N7 C55 105.4(5)
C51 N8 C56 108.4(4)
C51 N8 C54 108.0(4)
C56 N8 C54 107.1(4)
N1 C1 C20 125.8(3)
N1 C1 C2 109.5(3)
C20 C1 C2 124.7(3)
C3 C2 C1 107.7(3)
C3 C2 H2 126.1
C1 C2 H2 126.1
C2 C3 C4 107.2(3)
C2 C3 H3 126.4
C4 C3 H3 126.4
N1 C4 C5 126.2(3)
N1 C4 C3 109.3(3)
C5 C4 C3 124.5(3)
C4 C5 C6 124.1(3)
C4 C5 C21 118.3(3)
C6 C5 C21 117.5(3)
N2 C6 C5 126.0(3)
N2 C6 C7 109.9(3)
C5 C6 C7 124.1(3)
C8 C7 C6 106.8(3)
C8 C7 H7 126.6
C6 C7 H7 126.6
C7 C8 C9 107.8(3)
C7 C8 H8 126.1
C9 C8 H8 126.1
N2 C9 C10 126.0(3)
N2 C9 C8 109.1(3)
C10 C9 C8 124.8(3)
C9 C10 C11 124.4(3)
C9 C10 C27 118.1(3)
C11 C10 C27 117.4(3)
N3 C11 C10 125.5(3)
N3 C11 C12 109.8(3)
C10 C11 C12 124.7(3)
C13 C12 C11 107.7(3)
C13 C12 H12 126.2
C11 C12 H12 126.2
C12 C13 C14 107.0(3)
C12 C13 H13 126.5
C14 C13 H13 126.5
N3 C14 C15 126.2(3)
N3 C14 C13 109.9(3)
C15 C14 C13 123.9(3)
C14 C15 C16 124.0(3)
C14 C15 C33 117.3(3)
C16 C15 C33 118.8(3)
N4 C16 C15 125.8(3)
N4 C16 C17 109.7(3)
C15 C16 C17 124.6(3)
C18 C17 C16 107.5(3)
C18 C17 H17 126.2
C16 C17 H17 126.2
C17 C18 C19 107.2(3)
C17 C18 H18 126.4
C19 C18 H18 126.4
N4 C19 C20 126.1(3)
N4 C19 C18 109.5(3)
C20 C19 C18 124.5(3)
C19 C20 C1 124.3(3)
C19 C20 C39 118.4(3)
C1 C20 C39 117.3(3)
C26 C21 C22 119.2(4)
C26 C21 C5 120.6(4)
C22 C21 C5 120.2(4)
C21 C22 C23 120.7(5)
C21 C22 H22 119.7
C23 C22 H22 119.7
C24 C23 C22 118.6(6)
C24 C23 H23 120.7
C22 C23 H23 120.7
C25 C24 C23 120.9(6)
C25 C24 H24 119.6
C23 C24 H24 119.6
C24 C25 C26 122.0(6)
C24 C25 H25 119.0
C26 C25 H25 119.0
C21 C26 C25 118.6(5)
C21 C26 H26 120.7
C25 C26 H26 120.7
C32 C27 C28 118.8(3)
C32 C27 C10 119.6(3)
C28 C27 C10 121.6(3)
C27 C28 C29 120.3(4)
C27 C28 H28 119.9
C29 C28 H28 119.9
C30 C29 C28 120.4(4)
C30 C29 H29 119.8
C28 C29 H29 119.8
C29 C30 C31 119.8(4)
C29 C30 H30 120.1
C31 C30 H30 120.1
C32 C31 C30 119.8(4)
C32 C31 H31 120.1
C30 C31 H31 120.1
C31 C32 C27 120.9(4)
C31 C32 H32 119.5
C27 C32 H32 119.5
C38 C33 C34 118.4(4)
C38 C33 C15 121.4(3)
C34 C33 C15 120.1(3)
C35 C34 C33 120.6(4)
C35 C34 H34 119.7
C33 C34 H34 119.7
C36 C35 C34 120.4(4)
C36 C35 H35 119.8
C34 C35 H35 119.8
C37 C36 C35 119.6(4)
C37 C36 H36 120.2
C35 C36 H36 120.2
C36 C37 C38 120.5(4)
C36 C37 H37 119.8
C38 C37 H37 119.8
C33 C38 C37 120.5(4)
C33 C38 H38 119.7
C37 C38 H38 119.7
C44 C39 C40 118.0(4)
C44 C39 C20 120.8(3)
C40 C39 C20 121.2(3)
C39 C40 C41 120.6(4)
C39 C40 H40 119.7
C41 C40 H40 119.7
C42 C41 C40 120.5(4)
C42 C41 H41 119.8
C40 C41 H41 119.8
C41 C42 C43 119.6(4)
C41 C42 H42 120.2
C43 C42 H42 120.2
C42 C43 C44 120.4(4)
C42 C43 H43 119.8
C44 C43 H43 119.8
C39 C44 C43 120.8(4)
C39 C44 H44 119.6
C43 C44 H44 119.6
N5 C45 C46 110.7(3)
N5 C45 H45A 109.5
C46 C45 H45A 109.5
N5 C45 H45B 109.5
C46 C45 H45B 109.5
H45A C45 H45B 108.1
N6 C46 C45 111.0(3)
N6 C46 H46A 109.4
C45 C46 H46A 109.4
N6 C46 H46B 109.4
C45 C46 H46B 109.4
H46A C46 H46B 108.0
N6 C47 C48 111.5(3)
N6 C47 H47A 109.3
C48 C47 H47A 109.3
N6 C47 H47B 109.3
C48 C47 H47B 109.3
H47A C47 H47B 108.0
N5 C48 C47 110.6(3)
N5 C48 H48A 109.5
C47 C48 H48A 109.5
N5 C48 H48B 109.5
C47 C48 H48B 109.5
H48A C48 H48B 108.1
N5 C49 C50 110.7(3)
N5 C49 H49A 109.5
C50 C49 H49A 109.5
N5 C49 H49B 109.5
C50 C49 H49B 109.5
H49A C49 H49B 108.1
N6 C50 C49 111.1(3)
N6 C50 H50A 109.4
C49 C50 H50A 109.4
N6 C50 H50B 109.4
C49 C50 H50B 109.4
H50A C50 H50B 108.0
N8 C51 C52 111.0(4)
N8 C51 H51A 109.4
C52 C51 H51A 109.4
N8 C51 H51B 109.4
C52 C51 H51B 109.4
H51A C51 H51B 108.0
N7 C52 C51 113.6(4)
N7 C52 H52A 108.8
C51 C52 H52A 108.8
N7 C52 H52B 108.8
C51 C52 H52B 108.8
H52A C52 H52B 107.7
N7 C53 C54 111.5(4)
N7 C53 H53A 109.3
C54 C53 H53A 109.3
N7 C53 H53B 109.3
C54 C53 H53B 109.3
H53A C53 H53B 108.0
N8 C54 C53 110.8(4)
N8 C54 H54A 109.5
C53 C54 H54A 109.5
N8 C54 H54B 109.5
C53 C54 H54B 109.5
H54A C54 H54B 108.1
N7 C55 C56 110.8(4)
N7 C55 H55A 109.5
C56 C55 H55A 109.5
N7 C55 H55B 109.5
C56 C55 H55B 109.5
H55A C55 H55B 108.1
N8 C56 C55 110.7(4)
N8 C56 H56A 109.5
C55 C56 H56A 109.5
N8 C56 H56B 109.5
C55 C56 H56B 109.5
H56A C56 H56B 108.1
C62 C57 C58 117.5(5)
C62 C57 C63 120.6(5)
C58 C57 C63 121.9(5)
C59 C58 C57 123.1(5)
C59 C58 H58 118.4
C57 C58 H58 118.4
C58 C59 C60 120.6(5)
C58 C59 H59 119.7
C60 C59 H59 119.7
C61 C60 C59 116.9(5)
C61 C60 H60 121.5
C59 C60 H60 121.5
C60 C61 C62 121.9(5)
C60 C61 H61 119.1
C62 C61 H61 119.1
C57 C62 C61 119.9(5)
C57 C62 H62 120.1
C61 C62 H62 120.1
C57 C63 H63A 109.5
C57 C63 H63B 109.5
H63A C63 H63B 109.5
C57 C63 H63C 109.5
H63A C63 H63C 109.5
H63B C63 H63C 109.5
loop_
_geom_bond_atom_site_label_1
_geom_bond_atom_site_label_2
_geom_bond_distance
Mn1 N3 2.008(3)
Mn1 N4 2.019(3)
Mn1 N1 2.023(3)
Mn1 N2 2.027(3)
Mn1 Cl1 2.4255(10)
N1 C4 1.376(5)
N1 C1 1.381(4)
N4 C19 1.382(4)
N4 C16 1.382(5)
N3 C14 1.384(5)
N3 C11 1.385(4)
N2 C6 1.373(5)
N2 C9 1.378(4)
N5 C48 1.480(5)
N5 C45 1.484(5)
N5 C49 1.488(4)
N6 C47 1.464(5)
N6 C50 1.465(5)
N6 C46 1.471(5)
N7 C52 1.421(7)
N7 C53 1.484(7)
N7 C55 1.491(7)
N8 C51 1.451(6)
N8 C56 1.459(6)
N8 C54 1.484(6)
C1 C20 1.396(5)
C1 C2 1.430(5)
C2 C3 1.345(5)
C2 H2 0.9500
C3 C4 1.444(5)
C3 H3 0.9500
C4 C5 1.392(5)
C5 C6 1.401(5)
C5 C21 1.497(5)
C6 C7 1.438(5)
C7 C8 1.347(5)
C7 H7 0.9500
C8 C9 1.438(5)
C8 H8 0.9500
C9 C10 1.389(5)
C10 C11 1.393(5)
C10 C27 1.501(5)
C11 C12 1.427(5)
C12 C13 1.354(5)
C12 H12 0.9500
C13 C14 1.436(5)
C13 H13 0.9500
C14 C15 1.393(5)
C15 C16 1.394(5)
C15 C33 1.496(5)
C16 C17 1.433(5)
C17 C18 1.351(5)
C17 H17 0.9500
C18 C19 1.442(5)
C18 H18 0.9500
C19 C20 1.391(5)
C20 C39 1.503(5)
C21 C26 1.385(6)
C21 C22 1.386(6)
C22 C23 1.403(7)
C22 H22 0.9500
C23 C24 1.378(8)
C23 H23 0.9500
C24 C25 1.325(8)
C24 H24 0.9500
C25 C26 1.404(7)
C25 H25 0.9500
C26 H26 0.9500
C27 C32 1.387(5)
C27 C28 1.389(5)
C28 C29 1.390(5)
C28 H28 0.9500
C29 C30 1.375(6)
C29 H29 0.9500
C30 C31 1.388(6)
C30 H30 0.9500
C31 C32 1.383(5)
C31 H31 0.9500
C32 H32 0.9500
C33 C38 1.386(5)
C33 C34 1.389(5)
C34 C35 1.386(6)
C34 H34 0.9500
C35 C36 1.375(6)
C35 H35 0.9500
C36 C37 1.371(6)
C36 H36 0.9500
C37 C38 1.388(6)
C37 H37 0.9500
C38 H38 0.9500
C39 C44 1.375(6)
C39 C40 1.379(5)
C40 C41 1.391(6)
C40 H40 0.9500
C41 C42 1.356(6)
C41 H41 0.9500
C42 C43 1.361(7)
C42 H42 0.9500
C43 C44 1.389(6)
C43 H43 0.9500
C44 H44 0.9500
C45 C46 1.554(5)
C45 H45A 0.9900
C45 H45B 0.9900
C46 H46A 0.9900
C46 H46B 0.9900
C47 C48 1.547(5)
C47 H47A 0.9900
C47 H47B 0.9900
C48 H48A 0.9900
C48 H48B 0.9900
C49 C50 1.552(5)
C49 H49A 0.9900
C49 H49B 0.9900
C50 H50A 0.9900
C50 H50B 0.9900
C51 C52 1.502(7)
C51 H51A 0.9900
C51 H51B 0.9900
C52 H52A 0.9900
C52 H52B 0.9900
C53 C54 1.521(7)
C53 H53A 0.9900
C53 H53B 0.9900
C54 H54A 0.9900
C54 H54B 0.9900
C55 C56 1.546(8)
C55 H55A 0.9900
C55 H55B 0.9900
C56 H56A 0.9900
C56 H56B 0.9900
C57 C62 1.378(7)
C57 C58 1.381(6)
C57 C63 1.475(7)
C58 C59 1.341(7)
C58 H58 0.9500
C59 C60 1.410(7)
C59 H59 0.9500
C60 C61 1.372(9)
C60 H60 0.9500
C61 C62 1.401(9)
C61 H61 0.9500
C62 H62 0.9500
C63 H63A 0.9800
C63 H63B 0.9800
C63 H63C 0.9800

_cod_database_fobs_code 2021488
