#------------------------------------------------------------------------------
#$Date: 2019-02-14 05:35:50 +0200 (Thu, 14 Feb 2019) $
#$Revision: 213637 $
#$URL: file:///home/coder/svn-repositories/cod/cif/2/02/14/2021486.cif $
#------------------------------------------------------------------------------
#
# This file is available in the Crystallography Open Database (COD),
# http://www.crystallography.net/. The original data for this entry
# were provided by IUCr Journals, http://journals.iucr.org/.
#
# The file may be used within the scientific community so long as
# proper attribution is given to the journal article from which the
# data were obtained.
#
data_2021486
loop_
_publ_author_name
'Lahanas, Nicole'
'Kucheryavy, Pavel'
'Lalancette, Roger A.'
'Lockard, Jenny V.'
_publ_section_title
;
 Crystallographic identification of a series of manganese porphyrin
 complexes with nitrogenous bases
;
_journal_coeditor_code           JX3027
_journal_issue                   3
_journal_name_full               'Acta Crystallographica Section C'
_journal_page_first
;
;
_journal_paper_doi               10.1107/S2053229619001232
_journal_volume                  75
_journal_year                    2019
_chemical_formula_iupac          '[Mn (C44 H28 N4) (C5 H11 N1)2] Cl'
_chemical_formula_moiety         'C54 H50 Mn N6 2+, Cl -'
_chemical_formula_sum            'C54 H50 Cl Mn N6'
_chemical_formula_weight         873.39
_chemical_name_systematic
;
Bis(piperidine)(5,10,15,20-tetraphenylporphyrinato)manganese(III)
dichloride
;
_space_group_crystal_system      triclinic
_space_group_IT_number           2
_space_group_name_Hall           '-P 1'
_space_group_name_H-M_alt        'P -1'
_symmetry_space_group_name_Hall  '-P 1'
_symmetry_space_group_name_H-M   'P -1'
_atom_sites_solution_hydrogens   geom
_atom_sites_solution_primary     direct
_atom_sites_solution_secondary   difmap
_audit_creation_method           SHELXL-2014/7
_cell_angle_alpha                66.1342(5)
_cell_angle_beta                 78.3107(5)
_cell_angle_gamma                89.5778(6)
_cell_formula_units_Z            1
_cell_length_a                   10.52110(10)
_cell_length_b                   11.91230(10)
_cell_length_c                   12.63550(10)
_cell_measurement_reflns_used    9895
_cell_measurement_temperature    100(2)
_cell_measurement_theta_max      68.77
_cell_measurement_theta_min      3.92
_cell_volume                     1413.24(2)
_computing_cell_refinement
;
APEX2 (Bruker, 2006)
;
_computing_data_collection
;
APEX2 (Bruker, 2006)
;
_computing_data_reduction
;
SAINT (Bruker, 2005)
;
_computing_molecular_graphics
;
SHELXTL (Sheldrick, 2008)
;
_computing_publication_material
;
SHELXTL (Sheldrick, 2008)
;
_computing_structure_refinement
;
SHELXL2014 (Sheldrick, 2015b)
;
_computing_structure_solution
;
SHELXT2014 (Sheldrick, 2015a)
;
_diffrn_ambient_temperature      100(2)
_diffrn_measured_fraction_theta_full 0.925
_diffrn_measured_fraction_theta_max 0.899
_diffrn_measurement_device_type  'Bruker SMART CCD APEXII area-detector'
_diffrn_measurement_method       '\f and \w'
_diffrn_radiation_monochromator  graphite
_diffrn_radiation_source         'fine-focus sealed tube'
_diffrn_radiation_type           CuK\a
_diffrn_radiation_wavelength     1.54178
_diffrn_reflns_av_R_equivalents  0.0192
_diffrn_reflns_av_unetI/netI     0.0173
_diffrn_reflns_limit_h_max       12
_diffrn_reflns_limit_h_min       -12
_diffrn_reflns_limit_k_max       14
_diffrn_reflns_limit_k_min       -14
_diffrn_reflns_limit_l_max       15
_diffrn_reflns_limit_l_min       -14
_diffrn_reflns_number            13568
_diffrn_reflns_theta_full        67.679
_diffrn_reflns_theta_max         69.153
_diffrn_reflns_theta_min         3.920
_exptl_absorpt_coefficient_mu    3.043
_exptl_absorpt_correction_T_max  0.572
_exptl_absorpt_correction_T_min  0.406
_exptl_absorpt_correction_type   numerical
_exptl_absorpt_process_details
;
(SADABS; Krause <i>et al.</i>,  2015)
;
_exptl_crystal_colour            green
_exptl_crystal_density_diffrn    1.068
_exptl_crystal_description       plate
_exptl_crystal_F_000             475
_exptl_crystal_size_max          0.475
_exptl_crystal_size_mid          0.257
_exptl_crystal_size_min          0.240
_platon_squeeze_details
;
Squeeze gives 111 electrons, approximately the correct number
for one piperidinium cation, one piperidine and one water molecule
between the manganese porphyrin piperidine complexes.
;
_refine_diff_density_max         0.698
_refine_diff_density_min         -0.997
_refine_ls_extinction_method     none
_refine_ls_goodness_of_fit_ref   1.042
_refine_ls_hydrogen_treatment    constr
_refine_ls_matrix_type           full
_refine_ls_number_parameters     286
_refine_ls_number_reflns         4750
_refine_ls_number_restraints     0
_refine_ls_restrained_S_all      1.042
_refine_ls_R_factor_all          0.0451
_refine_ls_R_factor_gt           0.0449
_refine_ls_shift/su_max          0.000
_refine_ls_shift/su_mean         0.000
_refine_ls_structure_factor_coef Fsqd
_refine_ls_weighting_details
'w=1/[\s^2^(Fo^2^)+(0.0548P)^2^+1.6375P] where P=(Fo^2^+2Fc^2^)/3'
_refine_ls_weighting_scheme      calc
_refine_ls_wR_factor_gt          0.1145
_refine_ls_wR_factor_ref         0.1147
_reflns_number_gt                4719
_reflns_number_total             4750
_reflns_threshold_expression     'I > 2\s(I)'
_cod_data_source_file            jx3027sup1.cif
_cod_data_source_block           II_Piperidine
_cod_database_code               2021486
_shelx_space_group_comment
;
The symmetry employed for this shelxl refinement is uniquely defined
by the following loop, which should always be used as a source of
symmetry information in preference to the above space-group names.
They are only intended as comments.
;
_shelx_estimated_absorpt_t_min   0.326
_shelx_estimated_absorpt_t_max   0.529
_shelx_hkl_file
;
  -1   0   0  103.73    2.13
  -1   0   0  104.52    2.15
  -1   0   0   97.68    2.14
  -1   0   0   99.43    2.13
   1   0   0   98.84    2.13
   1   0   0  102.69    2.13
   1   0   0  100.16    2.15
   1   0   0  104.59    2.15
   1   0   0   99.40    2.15
  -2   0   0    4.54    0.12
  -2   0   0    5.34    0.13
   2   0   0    4.85    0.12
   2   0   0    4.53    0.12
   2   0   0    4.71    0.11
   2   0   0    4.75    0.11
   2   0   0    4.40    0.12
  -3   0   0    2.16    0.08
  -3   0   0    2.22    0.08
   3   0   0    2.14    0.08
   3   0   0    2.24    0.07
   3   0   0    2.22    0.08
  -4   0   0    1.26    0.07
   4   0   0    1.37    0.06
   4   0   0    1.23    0.07
   4   0   0    1.32    0.06
  -5   0   0   19.39    0.47
   5   0   0   19.83    0.44
   5   0   0   19.05    0.47
   5   0   0   20.03    0.48
  -6   0   0   19.43    0.49
   6   0   0   20.03    0.50
   6   0   0   20.23    0.46
   6   0   0   20.05    0.51
  -7   0   0    0.43    0.07
   7   0   0    0.41    0.05
   7   0   0    0.47    0.07
   7   0   0    0.42    0.07
   8   0   0    0.35    0.06
   8   0   0    0.19    0.04
   8   0   0    0.35    0.06
   8   0   0    0.18    0.06
   8   0   0    0.27    0.05
   9   0   0    7.66    0.24
   9   0   0    7.85    0.24
   9   0   0    7.46    0.23
   9   0   0    7.36    0.22
  10   0   0   12.91    0.35
  10   0   0   13.15    0.35
 -11   0   0    2.06    0.11
  11   0   0    1.95    0.11
 -12   0   0    0.55    0.05
  12   0   0    0.48    0.05
  12  -1   0    1.14    0.07
 -12   1   0    1.08    0.07
  11  -1   0   11.43    0.30
  11  -1   0   11.34    0.30
  11  -1   0   10.47    0.28
  10  -1   0    1.11    0.09
  10  -1   0    1.33    0.10
  10  -1   0    1.21    0.09
   9  -1   0   11.27    0.32
   9  -1   0   11.36    0.31
   9  -1   0   11.27    0.31
   9  -1   0   10.64    0.30
   8  -1   0    1.00    0.08
   8  -1   0    0.93    0.10
   8  -1   0    0.99    0.09
   8  -1   0    0.88    0.08
   8  -1   0    0.95    0.08
   7  -1   0    0.51    0.06
   7  -1   0    0.48    0.07
   7  -1   0    0.80    0.09
  -7   1   0    0.47    0.07
   6  -1   0   19.64    0.50
   6  -1   0   19.76    0.49
   6  -1   0   19.97    0.45
  -6   1   0   19.55    0.49
   5  -1   0    0.64    0.06
   5  -1   0    0.63    0.06
   5  -1   0    0.61    0.04
  -5   1   0    0.64    0.06
   4  -1   0   25.69    0.57
   4  -1   0   24.66    0.55
   4  -1   0   24.80    0.57
  -4   1   0   26.13    0.58
   3  -1   0   59.17    1.25
   3  -1   0   58.31    1.24
   3  -1   0   62.65    1.25
   3  -1   0   55.83    1.25
  -3   1   0   59.26    1.26
  -3   1   0   58.97    1.24
   2  -1   0    0.44    0.03
   2  -1   0    0.43    0.03
   2  -1   0    0.44    0.02
   2  -1   0    0.47    0.03
  -2   1   0    0.48    0.03
  -2   1   0    0.53    0.03
   1  -1   0  122.91    2.71
   1  -1   0  130.90    2.68
   0  -1   0   98.67    2.13
   0  -1   0   99.70    2.09
   0  -1   0   96.72    2.06
   0  -1   0  101.78    2.13
   0   1   0   97.81    2.05
   0   1   0   92.05    2.06
  -1  -1   0   25.28    0.53
  -1  -1   0   25.49    0.53
   1   1   0   24.33    0.53
   1   1   0   25.42    0.53
   1   1   0   24.00    0.52
   1   1   0   24.67    0.53
   1   1   0   24.22    0.52
  -2  -1   0   45.06    0.97
  -2  -1   0   46.11    0.96
   2   1   0   44.46    0.95
   2   1   0   43.64    0.96
   2   1   0   46.73    0.96
   2   1   0   45.45    0.96
   2   1   0   45.28    0.97
  -3  -1   0   10.93    0.26
  -3  -1   0   10.73    0.27
   3   1   0   10.30    0.25
   3   1   0   11.01    0.27
   3   1   0   10.25    0.24
   3   1   0   11.23    0.26
   3   1   0   10.71    0.25
  -4  -1   0    7.13    0.20
   4   1   0    6.94    0.19
   4   1   0    6.98    0.20
   4   1   0    6.98    0.18
  -5  -1   0   58.54    1.27
   5   1   0   58.42    1.28
   5   1   0   57.64    1.23
   5   1   0   57.21    1.24
   5   1   0   57.00    1.26
  -6  -1   0   15.20    0.39
   6   1   0   14.47    0.36
   6   1   0   14.76    0.39
   6   1   0   14.34    0.40
  -7  -1   0   36.74    0.90
   7   1   0   38.16    0.90
   7   1   0   39.57    0.86
   8   1   0    2.04    0.10
   8   1   0    2.09    0.11
   8   1   0    1.90    0.10
   9   1   0    1.82    0.11
   9   1   0    1.58    0.11
 -10  -1   0    6.92    0.22
  10   1   0    6.88    0.22
 -11  -1   0    1.09    0.09
  11   1   0    1.05    0.08
 -12  -1   0    1.10    0.07
  12   1   0    1.10    0.06
  12  -2   0    5.13    0.16
 -12   2   0    5.44    0.16
  11  -2   0    0.10    0.04
  11  -2   0    0.20    0.05
  11  -2   0    0.09    0.05
  10  -2   0    3.32    0.14
  10  -2   0    3.26    0.14
  10  -2   0    3.45    0.15
  10  -2   0    3.34    0.15
   9  -2   0    8.64    0.25
   9  -2   0    8.55    0.26
   9  -2   0    8.83    0.25
   9  -2   0    8.66    0.26
   8  -2   0    2.50    0.11
   8  -2   0    2.49    0.11
   8  -2   0    2.37    0.12
   8  -2   0    2.50    0.11
   8  -2   0    2.55    0.15
   7  -2   0    1.31    0.08
   7  -2   0    1.13    0.10
   7  -2   0    1.33    0.10
   7  -2   0    1.20    0.07
  -7   2   0    1.10    0.09
   6  -2   0    9.07    0.26
   6  -2   0    8.81    0.26
   6  -2   0    8.94    0.22
  -6   2   0    8.80    0.27
   5  -2   0   19.70    0.44
   5  -2   0   20.22    0.47
   5  -2   0   19.81    0.48
  -5   2   0   19.98    0.48
   4  -2   0   35.15    0.77
   4  -2   0   36.17    0.79
   4  -2   0   35.93    0.78
  -4   2   0   35.78    0.79
   3  -2   0    0.46    0.04
   3  -2   0    0.61    0.03
   3  -2   0    0.48    0.03
   3  -2   0    0.50    0.03
  -3   2   0    0.57    0.04
  -3   2   0    0.45    0.03
   2  -2   0    3.18    0.08
   2  -2   0    3.13    0.09
   2  -2   0    3.18    0.08
   2  -2   0    3.08    0.10
   2  -2   0    3.05    0.08
  -2   2   0    3.23    0.09
   1  -2   0   14.56    0.34
   1  -2   0   14.74    0.33
   1  -2   0   14.15    0.32
  -1   2   0   14.71    0.31
  -1   2   0   14.76    0.33
   0  -2   0  106.46    2.29
   0  -2   0  102.23    2.25
   0  -2   0  104.52    2.23
   0  -2   0   99.89    2.21
   0   2   0  104.09    2.29
   0   2   0  110.89    2.21
   0   2   0  101.61    2.19
  -1  -2   0    0.38    0.03
  -1  -2   0    0.42    0.03
   1   2   0    0.43    0.03
   1   2   0    0.40    0.03
   1   2   0    0.46    0.03
   1   2   0    0.37    0.02
  -2  -2   0   82.41    1.72
  -2  -2   0   83.09    1.71
   2   2   0   79.12    1.72
   2   2   0   81.44    1.70
   2   2   0   80.66    1.70
   2   2   0   78.75    1.70
   2   2   0   81.93    1.71
  -3  -2   0    1.19    0.06
  -3  -2   0    1.21    0.07
   3   2   0    1.29    0.07
   3   2   0    1.25    0.05
   3   2   0    1.15    0.06
   3   2   0    1.16    0.06
  -4  -2   0   42.09    0.98
   4   2   0   44.84    0.99
   4   2   0   45.02    0.96
   4   2   0   45.01    0.97
  -5  -2   0    2.43    0.11
   5   2   0    2.27    0.10
   5   2   0    2.23    0.12
   5   2   0    2.30    0.10
   5   2   0    2.14    0.09
  -6  -2   0   16.01    0.42
   6   2   0   15.98    0.39
   6   2   0   16.13    0.43
   6   2   0   16.38    0.42
  -7  -2   0   10.52    0.32
   7   2   0   10.39    0.32
   8   2   0    0.17    0.04
   8   2   0    0.08    0.05
  -9  -2   0    0.15    0.05
   9   2   0    0.10    0.05
 -10  -2   0    4.53    0.17
  10   2   0    4.45    0.16
 -11  -2   0    0.08    0.04
  11   2   0    0.06    0.04
  12  -3   0    0.20    0.04
  11  -3   0    0.09    0.04
  11  -3   0    0.11    0.05
  11  -3   0    0.08    0.04
  10  -3   0    0.78    0.08
  10  -3   0    0.76    0.08
  10  -3   0    0.75    0.08
  10  -3   0    0.63    0.08
   9  -3   0    7.86    0.24
   9  -3   0    7.71    0.24
   9  -3   0    7.94    0.25
   9  -3   0    7.94    0.23
   8  -3   0    4.93    0.16
   8  -3   0    4.64    0.16
   8  -3   0    4.61    0.17
   8  -3   0    4.56    0.16
   7  -3   0    0.43    0.07
   7  -3   0    0.63    0.05
   7  -3   0    0.64    0.06
   6  -3   0    0.26    0.03
   6  -3   0    0.39    0.06
   6  -3   0    0.23    0.05
  -6   3   0    0.60    0.07
   5  -3   0    3.11    0.11
   5  -3   0    3.13    0.12
  -5   3   0    3.15    0.13
   4  -3   0    4.86    0.13
   4  -3   0    4.50    0.14
  -4   3   0    4.54    0.15
   3  -3   0    1.25    0.06
   3  -3   0    1.32    0.05
   3  -3   0    1.19    0.05
   3  -3   0    1.28    0.05
  -3   3   0    1.27    0.06
   2  -3   0   18.54    0.43
  -2   3   0   18.65    0.43
  -2   3   0   18.44    0.40
   1  -3   0    5.46    0.15
   1  -3   0    5.47    0.13
   1  -3   0    5.27    0.13
  -1   3   0    5.48    0.15
  -1   3   0    5.41    0.13
  -1   3   0    5.52    0.13
   0  -3   0    0.43    0.03
   0  -3   0    0.53    0.03
   0   3   0    0.64    0.03
   0   3   0    0.50    0.04
   0   3   0    0.46    0.03
  -1  -3   0  106.29    2.24
  -1  -3   0  107.24    2.26
   1   3   0  102.76    2.19
   1   3   0  100.72    2.20
   1   3   0  106.01    2.21
   1   3   0  107.43    2.25
   1   3   0  103.40    2.19
  -2  -3   0   68.97    1.50
  -2  -3   0   72.29    1.51
   2   3   0   71.12    1.49
   2   3   0   69.13    1.48
   2   3   0   72.75    1.48
   2   3   0   70.07    1.50
   2   3   0   66.08    1.50
  -3  -3   0    1.57    0.09
   3   3   0    1.60    0.07
   3   3   0    1.60    0.07
   3   3   0    1.65    0.07
   3   3   0    1.59    0.07
  -4  -3   0   18.25    0.45
   4   3   0   18.23    0.43
   4   3   0   17.98    0.43
  -5  -3   0   21.16    0.53
   5   3   0   21.61    0.51
   5   3   0   20.93    0.50
  -6  -3   0   44.33    1.03
   6   3   0   44.13    1.00
   6   3   0   45.89    1.02
  -7  -3   0   17.36    0.43
  -7  -3   0   16.82    0.48
   7   3   0   17.80    0.42
   7   3   0   17.73    0.47
   7   3   0   17.03    0.41
  -8  -3   0    0.38    0.06
   8   3   0    0.42    0.06
  -9  -3   0    0.74    0.08
   9   3   0    0.73    0.07
 -10  -3   0    4.32    0.16
  10   3   0    4.41    0.15
 -11  -3   0   10.11    0.26
  11   3   0    9.88    0.25
  12  -4   0    0.35    0.04
  11  -4   0    0.35    0.05
  11  -4   0    0.40    0.05
  11  -4   0    0.46    0.06
  10  -4   0    8.60    0.25
  10  -4   0    8.61    0.25
  10  -4   0    8.24    0.24
  10  -4   0    8.79    0.26
   9  -4   0    0.20    0.06
   9  -4   0    0.15    0.05
   9  -4   0    0.21    0.06
   9  -4   0    0.16    0.05
   8  -4   0    4.41    0.17
   8  -4   0    4.42    0.16
   8  -4   0    4.71    0.15
   7  -4   0   16.91    0.45
   7  -4   0   16.47    0.39
   7  -4   0   16.66    0.42
   7  -4   0   16.20    0.41
   6  -4   0    3.18    0.12
   6  -4   0    3.35    0.10
  -6   4   0    3.12    0.15
   5  -4   0   22.45    0.54
   5  -4   0   23.37    0.52
  -5   4   0   22.56    0.55
   4  -4   0    0.46    0.05
   4  -4   0    0.59    0.04
  -4   4   0    0.57    0.06
   3  -4   0    7.38    0.21
   3  -4   0    8.51    0.19
   3  -4   0    8.50    0.24
   3  -4   0    8.31    0.20
  -3   4   0    8.68    0.23
  -3   4   0    8.34    0.20
   2  -4   0   27.83    0.62
   2  -4   0   28.82    0.61
   2  -4   0   27.78    0.61
   2  -4   0   28.48    0.65
  -2   4   0   29.07    0.65
  -2   4   0   28.75    0.62
   1  -4   0    0.12    0.03
   1  -4   0    0.15    0.02
   1  -4   0    0.15    0.02
  -1   4   0    0.14    0.02
  -1   4   0    0.13    0.02
  -1   4   0    0.15    0.03
   0  -4   0   17.52    0.42
   0  -4   0   17.92    0.40
   0   4   0   17.41    0.42
   0   4   0   17.71    0.39
   0   4   0   16.87    0.38
  -1  -4   0   37.55    0.81
  -1  -4   0   36.41    0.81
   1   4   0   37.39    0.79
   1   4   0   36.63    0.79
   1   4   0   35.81    0.82
   1   4   0   34.91    0.78
  -2  -4   0    8.44    0.23
  -2  -4   0    7.92    0.20
  -2  -4   0    8.30    0.24
   2   4   0    8.62    0.22
   2   4   0    8.20    0.23
   2   4   0    8.11    0.21
   2   4   0    8.01    0.21
  -3  -4   0    2.09    0.09
  -3  -4   0    2.44    0.11
  -3  -4   0    2.33    0.12
   3   4   0    2.48    0.10
   3   4   0    2.40    0.09
   3   4   0    2.38    0.10
   3   4   0    2.30    0.10
  -4  -4   0   14.08    0.38
   4   4   0   14.32    0.36
   4   4   0   14.60    0.36
  -5  -4   0    3.20    0.15
   5   4   0    3.21    0.13
   5   4   0    3.23    0.13
  -6  -4   0   26.82    0.67
   6   4   0   26.98    0.65
   6   4   0   25.96    0.60
  -7  -4   0    0.46    0.06
  -7  -4   0    0.35    0.12
   7   4   0    0.53    0.06
  -8  -4   0    3.63    0.15
   8   4   0    3.62    0.13
  -9  -4   0    2.44    0.13
 -10  -4   0    1.81    0.10
 -11  -4   0    0.84    0.07
  11  -5   0    0.62    0.06
  11  -5   0    0.49    0.05
  10  -5   0    5.33    0.18
  10  -5   0    5.81    0.18
  10  -5   0    5.12    0.18
   9  -5   0    4.22    0.16
   9  -5   0    4.24    0.17
   9  -5   0    4.17    0.15
   9  -5   0    3.91    0.16
   8  -5   0    8.90    0.26
   8  -5   0    8.74    0.24
   7  -5   0    1.89    0.11
   7  -5   0    1.92    0.08
   7  -5   0    1.64    0.10
   6  -5   0    2.74    0.11
  -6   5   0    2.99    0.15
   5  -5   0    4.94    0.14
  -5   5   0    4.66    0.18
   4  -5   0    0.30    0.03
  -4   5   0    0.34    0.05
   3  -5   0   18.49    0.48
   3  -5   0   19.04    0.42
  -3   5   0   19.06    0.47
   2  -5   0    6.60    0.17
   2  -5   0    6.52    0.21
  -2   5   0    6.60    0.17
  -2   5   0    6.64    0.21
   1  -5   0   17.28    0.40
   1  -5   0   17.85    0.44
  -1   5   0   17.35    0.40
  -1   5   0   17.37    0.44
   0  -5   0    0.99    0.07
   0  -5   0    0.88    0.04
   0  -5   0    0.99    0.06
   0   5   0    0.92    0.05
   0   5   0    0.92    0.07
  -1  -5   0   75.70    1.63
  -1  -5   0   73.61    1.59
  -1  -5   0   74.73    1.63
   1   5   0   72.39    1.59
   1   5   0   76.47    1.60
   1   5   0   75.97    1.64
   1   5   0   77.41    1.60
  -2  -5   0    6.83    0.18
  -2  -5   0    7.07    0.22
  -2  -5   0    6.97    0.22
   2   5   0    6.93    0.22
   2   5   0    6.88    0.19
   2   5   0    6.72    0.18
   2   5   0    6.72    0.19
  -3  -5   0   39.59    0.92
  -3  -5   0   39.86    0.91
  -3  -5   0   38.76    0.87
   3   5   0   39.17    0.91
   3   5   0   39.70    0.89
   3   5   0   39.47    0.87
   3   5   0   39.74    0.88
  -4  -5   0    0.20    0.04
  -4  -5   0    0.18    0.05
   4   5   0    0.16    0.04
   4   5   0    0.20    0.04
  -5  -5   0    3.53    0.17
   5   5   0    3.60    0.13
   5   5   0    3.67    0.15
  -6  -5   0    0.51    0.04
  -6  -5   0    0.65    0.07
  -6  -5   0    0.60    0.09
   6   5   0    0.74    0.08
   6   5   0    0.53    0.06
  -7  -5   0    0.38    0.06
   7   5   0    0.36    0.05
  -8  -5   0    6.01    0.20
   8   5   0    5.88    0.18
  -9  -5   0    0.17    0.05
 -10  -5   0    2.27    0.11
  11  -6   0    5.23    0.15
  11  -6   0    5.25    0.15
  10  -6   0    0.85    0.08
  10  -6   0    0.87    0.08
   9  -6   0    7.18    0.21
   9  -6   0    7.73    0.23
   9  -6   0    7.46    0.23
   8  -6   0    4.81    0.17
   8  -6   0    4.45    0.15
   8  -6   0    4.61    0.18
   7  -6   0    4.45    0.17
   7  -6   0    4.44    0.16
   6  -6   0   13.36    0.36
   6  -6   0   13.37    0.34
  -6   6   0   13.91    0.42
   5  -6   0    3.11    0.12
  -5   6   0    3.40    0.16
   4  -6   0    0.24    0.03
  -4   6   0    0.31    0.06
   3  -6   0    9.30    0.29
   3  -6   0    9.34    0.23
  -3   6   0    9.21    0.29
   2  -6   0   11.12    0.27
   2  -6   0   10.98    0.32
  -2   6   0   10.77    0.27
  -2   6   0   10.87    0.32
   1  -6   0    4.53    0.15
   1  -6   0    4.32    0.13
   1  -6   0    4.81    0.18
  -1   6   0    4.61    0.14
  -1   6   0    4.79    0.18
   0  -6   0    3.90    0.14
   0  -6   0    3.92    0.16
   0  -6   0    3.68    0.11
   0   6   0    3.72    0.13
   0   6   0    3.83    0.12
   0   6   0    3.68    0.16
  -1  -6   0    5.74    0.16
  -1  -6   0    5.96    0.21
  -1  -6   0    6.15    0.20
   1   6   0    5.98    0.18
   1   6   0    5.78    0.18
   1   6   0    5.79    0.21
  -2  -6   0   54.10    1.25
  -2  -6   0   55.19    1.20
  -2  -6   0   56.71    1.25
   2   6   0   55.75    1.21
   2   6   0   54.48    1.21
   2   6   0   55.40    1.26
  -3  -6   0    4.01    0.14
  -3  -6   0    3.97    0.17
  -3  -6   0    3.61    0.17
   3   6   0    3.48    0.17
   3   6   0    3.66    0.14
   3   6   0    3.61    0.15
  -4  -6   0    2.88    0.16
  -4  -6   0    2.80    0.12
   4   6   0    2.91    0.11
  -5  -6   0   20.35    0.57
  -5  -6   0   20.73    0.51
  -5  -6   0   21.36    0.47
   5   6   0   21.57    0.49
  -6  -6   0    0.13    0.03
  -6  -6   0    0.26    0.06
   6   6   0    0.16    0.05
  -7  -6   0    4.65    0.18
   7   6   0    4.77    0.16
  -8  -6   0    1.86    0.11
   8   6   0    1.87    0.10
  -9  -6   0    0.33    0.06
   9   6   0    0.28    0.04
 -10  -6   0    0.72    0.06
  10  -7   0    0.23    0.04
  10  -7   0    0.21    0.04
   9  -7   0    1.82    0.10
   9  -7   0    2.02    0.11
   8  -7   0    5.81    0.18
   8  -7   0    6.03    0.19
   8  -7   0    6.05    0.20
   7  -7   0    5.87    0.19
   7  -7   0    5.96    0.20
   6  -7   0   12.21    0.34
   6  -7   0   12.57    0.34
   5  -7   0    0.16    0.05
  -5   7   0    0.17    0.06
  -4   7   0    4.74    0.20
   3  -7   0    0.20    0.04
   3  -7   0    0.19    0.06
  -3   7   0    0.15    0.05
   2  -7   0    4.41    0.15
   2  -7   0    4.57    0.19
  -2   7   0    4.30    0.19
   1  -7   0   14.13    0.40
   1  -7   0   13.35    0.35
   1  -7   0   13.33    0.31
  -1   7   0   13.38    0.40
  -1   7   0   13.22    0.34
   0  -7   0    2.45    0.12
   0  -7   0    2.54    0.09
   0  -7   0    2.41    0.14
   0   7   0    2.44    0.14
   0   7   0    2.36    0.11
   0   7   0    2.23    0.10
  -1  -7   0   16.99    0.46
  -1  -7   0   17.69    0.42
  -1  -7   0   17.84    0.48
   1   7   0   17.23    0.43
   1   7   0   17.24    0.49
   1   7   0   17.44    0.43
  -2  -7   0   18.77    0.45
  -2  -7   0   19.13    0.45
  -2  -7   0   18.67    0.51
  -2  -7   0   18.66    0.50
   2   7   0   17.38    0.46
  -3  -7   0    0.77    0.07
  -3  -7   0    0.81    0.08
  -3  -7   0    0.82    0.10
  -4  -7   0    5.40    0.15
  -4  -7   0    5.08    0.20
  -4  -7   0    4.98    0.18
  -4  -7   0    5.05    0.22
   4   7   0    5.40    0.17
  -5  -7   0    1.63    0.11
  -5  -7   0    1.68    0.08
   5   7   0    1.65    0.10
  -6  -7   0    8.99    0.27
  -6  -7   0    9.14    0.22
   6   7   0    9.55    0.26
  -7  -7   0   16.27    0.42
   7   7   0   16.20    0.40
  -8  -7   0    9.06    0.25
   8   7   0    8.95    0.24
  -9  -7   0   11.11    0.28
   9   7   0   10.83    0.27
  10  -8   0    0.10    0.03
   9  -8   0    2.16    0.10
   9  -8   0    2.38    0.10
   8  -8   0    4.17    0.15
   8  -8   0    4.32    0.16
   7  -8   0    1.62    0.11
   6  -8   0    0.43    0.07
   5  -8   0   37.93    0.87
   4  -8   0   28.12    0.66
   3  -8   0    7.65    0.29
   3  -8   0    7.52    0.25
   2  -8   0   14.08    0.40
   2  -8   0   14.82    0.34
   2  -8   0   14.98    0.45
   1  -8   0   18.72    0.44
   1  -8   0   18.45    0.53
   1  -8   0   18.88    0.49
   0  -8   0    3.88    0.13
   0  -8   0    3.57    0.16
   0  -8   0    3.60    0.13
   0  -8   0    3.59    0.19
  -1  -8   0   43.90    1.03
  -1  -8   0   46.11    1.00
  -1  -8   0   45.61    1.09
  -1  -8   0   44.17    1.00
  -2  -8   0    0.23    0.05
  -2  -8   0    0.19    0.06
  -2  -8   0    0.19    0.06
  -2  -8   0    0.33    0.05
  -3  -8   0    0.35    0.06
  -3  -8   0    0.36    0.07
  -3  -8   0    0.36    0.04
   3   8   0    0.35    0.05
  -4  -8   0    0.48    0.05
   4   8   0    0.43    0.06
  -5  -8   0    0.10    0.05
  -5  -8   0    0.01    0.03
   5   8   0    0.13    0.05
  -6  -8   0    3.09    0.10
  -6  -8   0    2.85    0.14
   6   8   0    3.20    0.13
  -7  -8   0    0.69    0.09
   7   8   0    0.54    0.06
   8   8   0    0.11    0.04
   8  -9   0    5.14    0.17
   7  -9   0    1.92    0.11
   6  -9   0    4.13    0.16
   5  -9   0    1.15    0.10
   3  -9   0    1.47    0.12
   2  -9   0   37.76    0.90
   2  -9   0   38.39    0.84
   1  -9   0    3.76    0.18
   1  -9   0    3.81    0.14
   0  -9   0   32.93    0.80
   0  -9   0   32.69    0.75
  -1  -9   0   17.91    0.45
  -1  -9   0   18.81    0.50
  -1  -9   0   18.84    0.47
  -2  -9   0    1.18    0.09
  -2  -9   0    1.13    0.11
   2   9   0    1.18    0.08
  -3  -9   0    0.22    0.06
  -3  -9   0    0.31    0.04
  -3  -9   0    0.31    0.07
   3   9   0    0.30    0.05
  -4  -9   0    1.31    0.07
   4   9   0    1.49    0.10
  -5  -9   0    0.31    0.04
   5   9   0    0.31    0.06
  -6  -9   0   12.69    0.29
   6   9   0   12.75    0.32
   7   9   0    0.48    0.05
   3 -10   0    3.87    0.13
   3 -10   0    4.30    0.19
   2 -10   0   10.38    0.28
   2 -10   0   10.69    0.33
   1 -10   0    7.41    0.22
   1 -10   0    7.62    0.27
   0 -10   0   15.47    0.44
   0 -10   0   15.89    0.41
  -1 -10   0    0.07    0.06
  -1 -10   0    0.10    0.05
   1  10   0    0.02    0.04
  -2 -10   0    0.37    0.06
  -2 -10   0    0.24    0.07
  -2 -10   0    0.28    0.04
   2  10   0    0.14    0.04
  -3 -10   0    4.51    0.19
  -3 -10   0    4.35    0.17
  -3 -10   0    4.44    0.14
   3  10   0    4.54    0.15
  -4 -10   0    0.59    0.05
   4  10   0    0.60    0.06
  -5 -10   0   12.47    0.29
   5  10   0   12.65    0.31
   6  10   0    2.67    0.10
   3 -11   0    0.97    0.11
   2 -11   0    0.04    0.06
   2 -11   0    0.10    0.04
   1 -11   0    0.60    0.09
   1 -11   0    0.53    0.06
   0 -11   0    0.23    0.05
   0 -11   0    0.30    0.07
  -1 -11   0    0.29    0.07
  -2 -11   0   14.55    0.40
  -2 -11   0   14.41    0.34
   2  11   0   13.90    0.35
  -3 -11   0    0.64    0.05
  -3 -11   0    0.49    0.08
   3  11   0    0.54    0.05
  -4 -11   0    0.15    0.03
   4  11   0    0.15    0.04
  -5 -11   0    3.15    0.08
   5  11   0    3.27    0.11
   3 -12   0    0.31    0.06
   2 -12   0    0.66    0.08
   1 -12   0    3.36    0.16
   0 -12   0    2.07    0.13
  -1 -12   0    1.63    0.12
  -1 -12   0    1.63    0.07
  -2 -12   0    1.42    0.06
  -2 -12   0    1.57    0.11
  -3 -12   0    0.08    0.05
  -3 -12   0    0.16    0.03
   1 -13   0   10.70    0.29
   0 -13   0    0.12    0.05
  -3 -12   1    2.79    0.08
  -2 -12   1    0.54    0.07
  -2 -12   1    0.67    0.04
  -1 -12   1    9.60    0.23
  -1 -12   1    9.92    0.28
   0 -12   1    1.90    0.12
   1 -12   1    1.89    0.12
   2 -12   1    2.31    0.12
   3 -12   1    0.88    0.09
   4  11  -1    0.35    0.04
  -4 -11   1    0.41    0.03
   3  11  -1    0.24    0.04
  -3 -11   1    0.28    0.03
  -3 -11   1    0.21    0.06
   2  11  -1    0.66    0.06
  -2 -11   1    0.78    0.08
  -2 -11   1    0.69    0.05
   1  11  -1    2.63    0.10
  -1 -11   1    2.74    0.15
   0 -11   1    1.61    0.12
   1 -11   1    0.56    0.08
   2 -11   1    1.02    0.11
   3 -11   1    0.84    0.09
   6  10  -1    0.14    0.03
   5  10  -1    2.96    0.11
  -5 -10   1    2.83    0.08
   4  10  -1    5.19    0.16
  -4 -10   1    5.26    0.15
   3  10  -1    0.03    0.04
  -3 -10   1    0.05    0.03
  -3 -10   1    0.11    0.06
   2  10  -1    4.11    0.14
  -2 -10   1    3.93    0.18
  -2 -10   1    4.13    0.16
  -2 -10   1    3.87    0.13
   1  10  -1    3.96    0.14
  -1 -10   1    4.21    0.16
  -1 -10   1    4.34    0.19
   0 -10   1    0.46    0.06
   0 -10   1    0.46    0.08
   0 -10   1    0.43    0.06
   1 -10   1    1.01    0.08
   1 -10   1    1.23    0.12
   2 -10   1    1.47    0.09
   2 -10   1    1.47    0.13
   3 -10   1    0.20    0.04
   3 -10   1    0.27    0.07
   4 -10   1    1.22    0.12
   7   9  -1    1.88    0.08
   6   9  -1    2.44    0.10
   5   9  -1   14.25    0.35
  -5  -9   1   13.92    0.33
   4   9  -1    0.39    0.06
  -4  -9   1    0.35    0.04
   3   9  -1    0.12    0.05
  -3  -9   1    0.18    0.04
  -3  -9   1    0.15    0.06
  -3  -9   1    0.20    0.05
  -2  -9   1   13.21    0.39
  -2  -9   1   13.78    0.37
  -1  -9   1    4.46    0.16
  -1  -9   1    4.33    0.17
  -1  -9   1    4.31    0.19
   0  -9   1   37.35    0.88
   0  -9   1   36.45    0.83
   0  -9   1   36.78    0.84
   1  -9   1    7.97    0.28
   1  -9   1    8.28    0.23
   2  -9   1    1.47    0.12
   2  -9   1    1.22    0.07
   3  -9   1   13.94    0.40
   8   8  -1    2.63    0.09
   7   8  -1    0.45    0.05
   6   8  -1    4.58    0.16
  -6  -8   1    4.52    0.12
   5   8  -1    0.44    0.06
  -5  -8   1    0.35    0.04
   4   8  -1    4.45    0.16
  -4  -8   1    4.25    0.13
   3   8  -1   14.55    0.36
  -3  -8   1   14.19    0.34
  -3  -8   1   14.31    0.39
  -3  -8   1   14.05    0.40
  -2  -8   1    9.82    0.28
  -2  -8   1    9.36    0.27
  -2  -8   1    9.50    0.30
  -1  -8   1    9.05    0.26
  -1  -8   1    9.26    0.29
  -1  -8   1    8.55    0.25
   0  -8   1   33.68    0.86
   0  -8   1   33.10    0.77
   0  -8   1   34.41    0.77
   0  -8   1   34.21    0.81
   1  -8   1    4.46    0.14
   1  -8   1    4.47    0.18
   1  -8   1    4.13    0.21
   2  -8   1    4.70    0.19
   2  -8   1    4.54    0.22
   2  -8   1    4.64    0.14
   3  -8   1    1.97    0.12
   8   7  -1    0.60    0.05
   7   7  -1    0.22    0.05
   6   7  -1    7.08    0.21
  -6  -7   1    6.85    0.18
   5   7  -1    4.33    0.15
  -5  -7   1    4.06    0.13
   4   7  -1    4.50    0.15
  -4  -7   1    4.46    0.14
  -3  -7   1    0.84    0.08
  -3  -7   1    0.91    0.09
  -3  -7   1    0.78    0.11
  -3  -7   1    0.90    0.06
  -3  -7   1    0.84    0.08
  -2  -7   1   13.15    0.34
  -2  -7   1   12.59    0.40
  -2  -7   1   13.40    0.34
  -1  -7   1   61.17    1.35
  -1  -7   1   64.60    1.35
  -1  -7   1   60.38    1.42
   0   7  -1   17.47    0.44
   0  -7   1   17.67    0.41
   0  -7   1   16.92    0.45
   0  -7   1   17.97    0.49
  -1   7  -1   10.68    0.29
  -1   7  -1   10.42    0.27
   1  -7   1   11.10    0.34
   1  -7   1   10.57    0.29
   1  -7   1   10.66    0.26
   2  -7   1   25.52    0.59
   2  -7   1   24.88    0.65
   3  -7   1    1.28    0.11
   4  -7   1    7.18    0.27
   7  -7   1    2.81    0.14
   8  -7   1    0.50    0.07
   8  -7   1    0.73    0.07
   9  -7   1    0.96    0.08
   9  -7   1    0.80    0.08
  10  -7   1    1.62    0.08
   8   6  -1    0.99    0.07
   7   6  -1    0.94    0.08
   6   6  -1    2.85    0.12
  -6  -6   1    2.65    0.09
   5   6  -1    0.14    0.04
  -5  -6   1    0.19    0.03
   4   6  -1    4.96    0.16
  -4  -6   1    5.07    0.18
  -4  -6   1    4.93    0.22
   3   6  -1    0.81    0.08
   3   6  -1    0.74    0.09
  -3  -6   1    0.80    0.07
  -3  -6   1    0.76    0.09
  -3  -6   1    0.79    0.07
  -3  -6   1    0.81    0.10
   2   6  -1   29.15    0.74
   2   6  -1   30.19    0.70
   2   6  -1   29.75    0.70
  -2  -6   1   29.48    0.74
  -2  -6   1   29.84    0.74
  -2  -6   1   31.42    0.68
   1   6  -1   25.98    0.61
   1   6  -1   26.36    0.66
   1   6  -1   25.13    0.60
  -1  -6   1   26.25    0.65
  -1  -6   1   25.88    0.63
  -1  -6   1   26.32    0.59
   0   6  -1    1.99    0.09
   0   6  -1    1.94    0.12
   0   6  -1    2.03    0.09
   0  -6   1    2.22    0.11
   0  -6   1    2.03    0.08
   0  -6   1    2.07    0.12
  -1   6  -1   52.25    1.13
  -1   6  -1   54.15    1.21
  -1   6  -1   53.02    1.14
   1  -6   1   53.81    1.20
   1  -6   1   52.52    1.15
   1  -6   1   49.72    1.12
  -2   6  -1    9.65    0.25
  -2   6  -1    9.82    0.31
   2  -6   1    9.63    0.25
   2  -6   1    9.88    0.30
  -3   6  -1    2.15    0.12
   3  -6   1    2.11    0.13
   3  -6   1    2.04    0.07
   4  -6   1   30.91    0.76
  -5   6  -1   20.94    0.60
   6  -6   1    9.82    0.28
   6  -6   1    9.94    0.27
   7  -6   1    6.94    0.21
   7  -6   1    7.12    0.22
   8  -6   1    0.32    0.06
   8  -6   1    0.34    0.06
   9  -6   1    3.63    0.14
   9  -6   1    3.53    0.12
   9  -6   1    3.54    0.14
  10  -6   1    3.87    0.14
  10  -6   1    3.75    0.14
  11  -6   1    0.14    0.03
  11  -6   1    0.18    0.04
  -9  -5   1    1.78    0.10
   8   5  -1    2.35    0.11
  -8  -5   1    2.58    0.13
   7   5  -1   13.81    0.35
  -7  -5   1   13.69    0.36
   6   5  -1    4.85    0.16
  -6  -5   1    5.11    0.14
  -6  -5   1    5.04    0.18
   5   5  -1   27.12    0.61
   5   5  -1   26.27    0.65
  -5  -5   1   26.78    0.69
   4   5  -1   17.93    0.46
   4   5  -1   17.80    0.45
  -4  -5   1   18.36    0.49
  -4  -5   1   18.17    0.49
  -4  -5   1   18.30    0.45
   3   5  -1   37.07    0.88
   3   5  -1   36.78    0.86
   3   5  -1   36.96    0.84
   3   5  -1   38.51    0.85
  -3  -5   1   36.89    0.84
  -3  -5   1   38.32    0.90
  -3  -5   1   38.68    0.89
   2   5  -1   49.15    1.10
   2   5  -1   48.73    1.09
   2   5  -1   50.94    1.10
   2   5  -1   48.56    1.13
  -2  -5   1   51.84    1.13
  -2  -5   1   50.30    1.08
  -2  -5   1   49.82    1.13
   1   5  -1   31.51    0.72
   1   5  -1   32.80    0.77
   1   5  -1   33.49    0.73
   1   5  -1   32.18    0.72
  -1  -5   1   33.61    0.77
  -1  -5   1   31.99    0.71
  -1  -5   1   32.64    0.75
   0   5  -1   35.23    0.77
   0   5  -1   35.70    0.82
   0   5  -1   33.93    0.77
   0   5  -1   35.74    0.76
   0  -5   1   36.01    0.81
   0  -5   1   34.08    0.75
   0  -5   1   34.55    0.79
  -1   5  -1    0.41    0.06
  -1   5  -1    0.42    0.04
  -1   5  -1    0.44    0.04
   1  -5   1    0.36    0.05
   1  -5   1    0.43    0.04
  -2   5  -1   18.86    0.48
  -2   5  -1   19.03    0.43
   2  -5   1   18.64    0.47
   2  -5   1   18.52    0.42
  -3   5  -1    0.59    0.06
  -3   5  -1    0.57    0.05
   3  -5   1    0.58    0.07
   4  -5   1   34.46    0.82
  -5   5  -1   20.54    0.52
   7  -5   1    2.54    0.11
   7  -5   1    2.68    0.13
   8  -5   1    9.78    0.28
   8  -5   1    9.76    0.25
   8  -5   1    9.76    0.28
   9  -5   1    9.82    0.27
   9  -5   1    9.40    0.28
   9  -5   1    9.63    0.25
   9  -5   1    9.49    0.27
  10  -5   1    3.98    0.15
  10  -5   1    3.77    0.15
  10  -5   1    3.83    0.15
  11  -5   1    0.92    0.07
  11  -5   1    0.97    0.07
 -10  -4   1    0.79    0.07
  -9  -4   1    1.04    0.09
  -8  -4   1    1.92    0.11
   7   4  -1    1.39    0.08
  -7  -4   1    1.56    0.10
   6   4  -1    0.13    0.05
   6   4  -1    0.10    0.04
  -6  -4   1    0.33    0.05
  -6  -4   1    0.13    0.06
   5   4  -1   22.14    0.54
   5   4  -1   22.75    0.55
  -5  -4   1   22.26    0.58
   4   4  -1    3.86    0.14
   4   4  -1    3.89    0.14
  -4  -4   1    4.12    0.17
   3   4  -1   42.80    0.94
   3   4  -1   42.23    0.94
   3   4  -1   43.15    0.94
   3   4  -1   42.49    0.96
  -3  -4   1   42.22    0.97
  -3  -4   1   41.99    0.93
  -3  -4   1   42.43    0.98
   2   4  -1    8.33    0.22
   2   4  -1    7.95    0.21
   2   4  -1    8.20    0.21
   2   4  -1    8.12    0.24
  -2  -4   1    8.14    0.24
  -2  -4   1    7.85    0.21
  -2  -4   1    7.93    0.24
   1   4  -1    7.56    0.22
   1   4  -1    7.51    0.20
   1   4  -1    7.66    0.20
   1   4  -1    7.71    0.20
  -1  -4   1    7.75    0.22
  -1  -4   1    7.35    0.19
  -1  -4   1    7.47    0.21
   0   4  -1   16.84    0.37
   0   4  -1   15.85    0.37
   0   4  -1   16.21    0.41
   0   4  -1   16.64    0.38
   0  -4   1   16.58    0.40
   0  -4   1   16.08    0.43
   0  -4   1   16.12    0.38
  -1   4  -1    6.24    0.16
  -1   4  -1    6.12    0.19
  -1   4  -1    6.10    0.16
   1  -4   1    6.15    0.21
   1  -4   1    6.11    0.16
   1  -4   1    6.08    0.18
  -2   4  -1    0.63    0.04
  -2   4  -1    0.74    0.06
  -2   4  -1    0.74    0.04
   2  -4   1    0.63    0.06
   2  -4   1    0.68    0.03
   2  -4   1    0.74    0.07
  -3   4  -1    8.67    0.21
  -3   4  -1    8.51    0.24
   3  -4   1    8.56    0.23
   3  -4   1    8.65    0.25
  -4   4  -1    0.29    0.05
   4  -4   1    0.33    0.04
  -5   4  -1   15.30    0.39
   5  -4   1   15.01    0.39
   5  -4   1   15.10    0.35
   6  -4   1    9.61    0.25
   6  -4   1    9.53    0.29
   7  -4   1    0.72    0.05
   7  -4   1    0.81    0.08
   7  -4   1    0.76    0.07
   7  -4   1    0.79    0.07
   8  -4   1   25.76    0.62
   8  -4   1   25.73    0.61
   8  -4   1   26.12    0.61
   8  -4   1   26.13    0.59
   9  -4   1   15.45    0.40
   9  -4   1   15.28    0.39
   9  -4   1   15.29    0.40
   9  -4   1   15.07    0.38
  10  -4   1    0.26    0.06
  10  -4   1    0.34    0.06
  10  -4   1    0.33    0.05
  10  -4   1    0.30    0.06
  11  -4   1    0.45    0.06
  11  -4   1    0.51    0.06
  11  -4   1    0.53    0.06
  11   3  -1    9.43    0.24
 -11  -3   1    9.64    0.24
  10   3  -1    2.39    0.11
 -10  -3   1    2.29    0.11
   9   3  -1    0.15    0.05
  -9  -3   1    0.18    0.06
   8   3  -1    8.33    0.23
  -8  -3   1    7.81    0.24
   7   3  -1    1.21    0.08
  -7  -3   1    1.07    0.11
  -7  -3   1    1.15    0.09
   6   3  -1    6.18    0.18
   6   3  -1    6.57    0.22
  -6  -3   1    6.54    0.24
   5   3  -1    4.20    0.15
   5   3  -1    4.29    0.16
  -5  -3   1    4.23    0.17
   4   3  -1    2.94    0.11
   4   3  -1    2.96    0.12
  -4  -3   1    3.01    0.13
   3   3  -1    0.65    0.05
   3   3  -1    0.78    0.05
   3   3  -1    0.66    0.05
   3   3  -1    0.67    0.05
  -3  -3   1    0.79    0.07
  -3  -3   1    0.78    0.07
  -3  -3   1    0.65    0.05
   2   3  -1    0.32    0.03
   2   3  -1    0.31    0.04
   2   3  -1    0.32    0.04
   2   3  -1    0.42    0.04
  -2  -3   1    0.33    0.05
  -2  -3   1    0.24    0.04
  -2  -3   1    0.45    0.05
   1   3  -1  226.41    4.75
   1   3  -1  239.76    4.80
   1   3  -1  235.16    4.82
  -1  -3   1  215.68    4.76
  -1  -3   1  204.77    4.74
  -1  -3   1  230.79    4.87
   0   3  -1    9.57    0.22
   0   3  -1    9.31    0.21
   0   3  -1    9.16    0.22
   0  -3   1    9.51    0.26
   0  -3   1    8.97    0.24
   0  -3   1   10.34    0.23
   0  -3   1    8.71    0.22
  -1   3  -1   28.96    0.62
  -1   3  -1   29.08    0.62
   1  -3   1   29.17    0.61
   1  -3   1   27.59    0.64
   1  -3   1   27.81    0.61
   1  -3   1   29.53    0.66
  -2   3  -1   11.78    0.27
   2  -3   1   11.12    0.27
   2  -3   1   11.70    0.30
   2  -3   1   11.59    0.28
   2  -3   1   11.58    0.29
  -3   3  -1    0.58    0.05
   3  -3   1    0.60    0.05
   3  -3   1    0.60    0.05
   3  -3   1    0.64    0.06
   3  -3   1    0.61    0.04
  -4   3  -1   33.05    0.75
  -4   3  -1   33.92    0.76
   4  -3   1   33.29    0.72
   4  -3   1   33.73    0.75
  -5   3  -1   58.44    1.28
   5  -3   1   58.27    1.29
   5  -3   1   59.11    1.25
   6  -3   1    0.42    0.06
   6  -3   1    0.46    0.05
   7  -3   1   13.57    0.39
   7  -3   1   13.73    0.32
   8  -3   1    8.53    0.26
   8  -3   1    8.96    0.25
   8  -3   1    8.85    0.24
   9  -3   1    0.31    0.05
   9  -3   1    0.24    0.06
   9  -3   1    0.25    0.06
   9  -3   1    0.14    0.05
  10  -3   1    0.40    0.06
  10  -3   1    0.35    0.06
  10  -3   1    0.25    0.06
  10  -3   1    0.31    0.05
  11  -3   1    3.05    0.13
  11  -3   1    3.30    0.13
  11  -3   1    3.30    0.13
  12  -3   1    3.84    0.12
  11   2  -1    0.33    0.04
 -11  -2   1    0.30    0.05
  10   2  -1    2.96    0.13
 -10  -2   1    3.15    0.13
   9   2  -1    3.76    0.15
  -9  -2   1    3.80    0.16
   8   2  -1   13.41    0.34
   7   2  -1   21.29    0.55
   7   2  -1   20.83    0.51
   7   2  -1   20.74    0.49
  -7  -2   1   21.35    0.56
   6   2  -1    4.79    0.18
  -6  -2   1    4.61    0.19
   5   2  -1    0.61    0.05
   5   2  -1    0.53    0.06
  -5  -2   1    0.70    0.07
   4   2  -1    1.22    0.07
   4   2  -1    1.16    0.06
  -4  -2   1    1.15    0.08
   3   2  -1    0.88    0.05
   3   2  -1    0.92    0.05
   3   2  -1    0.92    0.06
   3   2  -1    0.84    0.05
   3   2  -1    0.85    0.05
  -3  -2   1    0.82    0.06
  -3  -2   1    0.91    0.06
   2   2  -1    0.07    0.02
   2   2  -1    0.09    0.02
   2   2  -1    0.10    0.02
  -2  -2   1    0.13    0.03
  -2  -2   1    0.10    0.02
  -2  -2   1    0.12    0.03
   1   2  -1  356.53    7.55
   1   2  -1  375.37    7.54
   1   2  -1  361.82    7.54
   1   2  -1  348.95    7.54
  -1  -2   1  362.32    7.69
  -1  -2   1  346.24    7.59
  -1  -2   1  355.48    7.60
   0   2  -1   18.21    0.37
   0   2  -1   17.75    0.38
   0   2  -1   16.94    0.38
   0  -2   1   17.70    0.41
   0  -2   1   17.07    0.39
   0  -2   1   17.14    0.38
   0  -2   1   16.63    0.38
   1  -2   1  112.52    2.37
   1  -2   1  104.44    2.34
   1  -2   1  111.08    2.42
   1  -2   1  117.37    2.37
   2  -2   1   72.15    1.52
   2  -2   1   72.76    1.52
   2  -2   1   73.28    1.54
   2  -2   1   71.03    1.53
  -3   2  -1    0.18    0.03
   3  -2   1    0.33    0.03
   3  -2   1    0.19    0.02
   3  -2   1    0.20    0.03
   3  -2   1    0.19    0.03
  -4   2  -1   13.83    0.34
   4  -2   1   14.92    0.35
   4  -2   1   14.14    0.33
   4  -2   1   14.60    0.33
  -5   2  -1   33.12    0.75
   5  -2   1   33.61    0.74
   5  -2   1   32.45    0.75
  -6   2  -1    9.83    0.29
   6  -2   1   10.01    0.29
   6  -2   1    9.83    0.27
   6  -2   1    9.86    0.24
   7  -2   1    7.19    0.24
   7  -2   1    7.38    0.20
   7  -2   1    6.99    0.20
   7  -2   1    7.27    0.25
   8  -2   1    0.22    0.05
   8  -2   1    0.41    0.08
   8  -2   1    0.42    0.06
   8  -2   1    0.18    0.05
   8  -2   1    0.13    0.04
   9  -2   1   15.34    0.39
   9  -2   1   15.07    0.40
   9  -2   1   15.61    0.39
   9  -2   1   14.98    0.39
  10  -2   1    0.12    0.05
  10  -2   1    0.21    0.05
  10  -2   1    0.09    0.05
  10  -2   1    0.20    0.06
  11  -2   1    0.04    0.05
  11  -2   1    0.05    0.04
  11  -2   1    0.12    0.05
 -12   2  -1    0.23    0.04
  12  -2   1    0.20    0.04
  12  -2   1    0.24    0.04
  11   1  -1    0.39    0.05
 -11  -1   1    0.41    0.06
  10   1  -1    0.64    0.07
 -10  -1   1    0.72    0.08
   9   1  -1   11.46    0.31
   9   1  -1   11.46    0.32
   8   1  -1    3.24    0.14
   8   1  -1    3.11    0.13
   7   1  -1   10.19    0.31
   7   1  -1   10.28    0.28
  -7  -1   1   10.44    0.33
   6   1  -1    0.76    0.07
   6   1  -1    0.68    0.06
  -6  -1   1    0.60    0.08
   5   1  -1    8.16    0.22
   5   1  -1    8.16    0.26
   5   1  -1    8.37    0.22
   5   1  -1    8.29    0.24
  -5  -1   1    8.63    0.25
   4   1  -1   65.02    1.36
   4   1  -1   61.63    1.34
   4   1  -1   63.18    1.38
  -4  -1   1   62.36    1.37
   3   1  -1   24.26    0.54
   3   1  -1   23.95    0.53
   3   1  -1   24.52    0.56
   3   1  -1   23.89    0.53
   3   1  -1   24.87    0.55
  -3  -1   1   25.37    0.56
  -3  -1   1   24.59    0.56
   2   1  -1    0.32    0.04
   2   1  -1    0.56    0.03
   2   1  -1    0.37    0.03
   2   1  -1    0.37    0.03
  -2  -1   1    0.35    0.03
  -2  -1   1    0.32    0.03
   1   1  -1    2.08    0.06
   1   1  -1    2.05    0.07
   1   1  -1    2.02    0.06
   1   1  -1    2.08    0.06
  -1  -1   1    2.14    0.07
  -1  -1   1    2.11    0.07
  -1  -1   1    2.01    0.07
   0   1  -1   52.51    1.08
   0   1  -1   52.43    1.09
   0  -1   1   50.02    1.08
   0  -1   1   51.68    1.09
   0  -1   1   53.51    1.10
   0  -1   1   49.00    1.08
   1  -1   1    8.84    0.20
   1  -1   1    8.88    0.21
   1  -1   1    8.31    0.20
   1  -1   1    8.75    0.20
   2  -1   1   55.05    1.13
   2  -1   1   53.44    1.11
   2  -1   1   47.45    1.13
   2  -1   1   55.73    1.12
   2  -1   1   55.10    1.11
  -3   1  -1  179.79    3.75
   3  -1   1  172.39    3.73
   3  -1   1  175.68    3.74
   3  -1   1  173.31    3.73
   3  -1   1  179.23    3.77
   3  -1   1  184.47    3.75
  -4   1  -1   32.88    0.72
   4  -1   1   32.23    0.72
   4  -1   1   33.43    0.72
   4  -1   1   31.90    0.71
  -5   1  -1   10.18    0.27
   5  -1   1   10.53    0.27
   5  -1   1   10.95    0.28
   5  -1   1   10.21    0.26
   5  -1   1   10.07    0.24
  -6   1  -1    0.65    0.06
   6  -1   1    0.59    0.07
   6  -1   1    0.65    0.05
   6  -1   1    0.59    0.06
   7  -1   1    1.10    0.09
   7  -1   1    1.25    0.10
   7  -1   1    1.23    0.07
   8  -1   1    0.77    0.10
   8  -1   1    0.73    0.07
   8  -1   1    0.66    0.07
   8  -1   1    0.63    0.06
   8  -1   1    0.71    0.07
   9  -1   1    6.55    0.22
   9  -1   1    6.73    0.21
   9  -1   1    6.89    0.21
   9  -1   1    6.55    0.21
  10  -1   1    0.23    0.06
  10  -1   1    0.22    0.06
  10  -1   1    0.23    0.06
  10  -1   1    0.20    0.05
  11  -1   1    0.38    0.06
  11  -1   1    0.33    0.06
  11  -1   1    0.50    0.06
 -12   1  -1    1.74    0.09
  12  -1   1    1.43    0.08
  12   0  -1    0.36    0.04
 -12   0   1    0.39    0.04
  11   0  -1    0.36    0.05
 -11   0   1    0.33    0.06
  10   0  -1    6.84    0.22
  10   0  -1    6.69    0.21
   9   0  -1    9.59    0.27
   9   0  -1    9.73    0.28
   8   0  -1    3.65    0.15
   8   0  -1    3.51    0.14
   8   0  -1    3.41    0.13
   7   0  -1   13.82    0.34
   7   0  -1   13.67    0.38
  -7   0   1   13.14    0.39
   6   0  -1   28.87    0.70
   6   0  -1   28.58    0.68
   6   0  -1   29.22    0.65
  -6   0   1   28.49    0.69
   5   0  -1    8.31    0.21
   5   0  -1    8.21    0.23
   5   0  -1    7.93    0.25
  -5   0   1    8.34    0.24
   4   0  -1   21.90    0.50
   4   0  -1   20.90    0.47
   4   0  -1   20.68    0.47
   4   0  -1   21.00    0.49
  -4   0   1   20.45    0.49
   3   0  -1   19.01    0.43
   3   0  -1   19.44    0.44
   3   0  -1   19.06    0.41
   3   0  -1   18.02    0.42
  -3   0   1   19.68    0.44
  -3   0   1   18.14    0.44
   2   0  -1   59.37    1.24
   2   0  -1   57.96    1.23
   2   0  -1   57.47    1.23
  -2   0   1   58.30    1.24
  -2   0   1   57.96    1.24
  -2   0   1   58.75    1.22
   1   0  -1   74.64    1.66
   1   0  -1   77.08    1.67
   1   0  -1   80.25    1.67
  -1   0   1   76.32    1.66
  -1   0   1   81.59    1.67
  -1   0   1   75.51    1.66
   0   0  -1   26.71    0.56
   0   0  -1   26.84    0.56
   0   0  -1   26.14    0.56
   0   0   1   27.56    0.57
   0   0   1   26.85    0.57
   0   0   1   27.22    0.56
   0   0   1   25.81    0.56
  -1   0  -1   99.88    2.07
  -1   0  -1  105.02    2.11
  -1   0  -1  101.41    2.07
   1   0   1   97.47    2.11
   1   0   1   97.66    2.10
   1   0   1   95.67    2.10
   1   0   1   98.96    2.13
  -2   0  -1   51.56    1.08
  -2   0  -1   50.72    1.08
  -2   0  -1   52.08    1.09
   2   0   1   49.98    1.09
   2   0   1   51.28    1.09
   2   0   1   52.58    1.09
   2   0   1   51.92    1.09
   2   0   1   52.37    1.08
  -3   0  -1    8.01    0.19
  -3   0  -1    8.06    0.19
   3   0   1    7.94    0.20
   3   0   1    8.29    0.20
   3   0   1    8.04    0.18
   3   0   1    7.35    0.20
   3   0   1    8.30    0.19
  -4   0  -1    1.02    0.05
   4   0   1    1.06    0.06
   4   0   1    1.03    0.06
   4   0   1    1.22    0.05
  -5   0  -1    7.76    0.21
   5   0   1    7.61    0.19
   5   0   1    7.80    0.21
   5   0   1    7.88    0.22
   5   0   1    7.79    0.22
  -6   0  -1   11.42    0.31
   6   0   1   11.71    0.28
   6   0   1   11.77    0.32
   6   0   1   11.49    0.32
   7   0   1    5.27    0.16
   7   0   1    5.10    0.19
   7   0   1    4.68    0.19
   8   0   1    2.51    0.15
   8   0   1    2.44    0.11
   8   0   1    2.42    0.11
   8   0   1    2.38    0.11
   8   0   1    2.30    0.12
   9   0   1    9.87    0.28
   9   0   1    9.71    0.28
   9   0   1    9.97    0.29
   9   0   1   10.22    0.29
  10   0   1    8.95    0.27
  10   0   1    9.40    0.27
  10   0   1    9.41    0.27
  10   0   1    8.69    0.25
 -11   0  -1    1.81    0.11
  11   0   1    2.03    0.11
 -12   0  -1    1.81    0.09
  12   0   1    1.76    0.09
  12  -1  -1    0.15    0.03
 -12   1   1    0.13    0.04
  11  -1  -1    8.96    0.25
  11  -1  -1    8.94    0.25
  10  -1  -1    5.78    0.20
  10  -1  -1    6.31    0.21
  10  -1  -1    5.73    0.22
   9  -1  -1    3.93    0.15
   9  -1  -1    3.77    0.14
   9  -1  -1    3.60    0.15
   9  -1  -1    4.03    0.16
   8  -1  -1    7.53    0.23
   8  -1  -1    7.74    0.23
   8  -1  -1    7.68    0.22
   8  -1  -1    8.13    0.24
   7  -1  -1    5.03    0.16
   7  -1  -1    5.07    0.21
   7  -1  -1    5.07    0.19
   7  -1  -1    4.71    0.15
  -7   1   1    5.03    0.20
   6  -1  -1    0.24    0.04
   6  -1  -1    0.27    0.05
   6  -1  -1    0.19    0.04
  -6   1   1    0.22    0.05
   5  -1  -1    9.65    0.26
   5  -1  -1    9.00    0.23
   5  -1  -1    9.37    0.27
  -5   1   1    9.43    0.27
   4  -1  -1  108.96    2.38
   4  -1  -1  116.18    2.41
   4  -1  -1  118.01    2.42
   4  -1  -1  114.51    2.39
  -4   1   1  114.16    2.43
   3  -1  -1  178.22    3.69
   3  -1  -1  169.71    3.70
   3  -1  -1  168.80    3.76
   3  -1  -1  181.66    3.74
  -3   1   1  182.54    3.78
   2  -1  -1  941.84   21.61
   2  -1  -1  922.04   20.82
   2  -1  -1  941.00   20.04
   2  -1  -1  945.91   21.91
  -2   1   1  936.92   20.11
  -2   1   1 1000.00   21.53
  -2   1   1  936.45   20.53
  -2   1   1  947.92   20.73
  -2   1   1  953.36   21.12
   1  -1  -1   97.79    2.09
   1  -1  -1   99.86    2.09
   1  -1  -1   97.21    2.13
   1  -1  -1  100.92    2.15
  -1   1   1   96.58    2.12
  -1   1   1   97.99    2.13
  -1   1   1   98.85    2.10
  -1   1   1  105.99    2.11
   0  -1  -1  100.96    2.20
   0  -1  -1   99.66    2.16
   0  -1  -1  102.18    2.20
   0  -1  -1  102.19    2.19
   0  -1  -1  110.62    2.19
   0   1   1  104.28    2.20
   0   1   1  102.49    2.17
   0   1   1  104.23    2.25
  -1  -1  -1    8.43    0.20
  -1  -1  -1    8.69    0.19
  -1  -1  -1    8.47    0.19
   1   1   1    8.63    0.20
   1   1   1    8.72    0.20
   1   1   1    8.82    0.19
   1   1   1    8.74    0.19
   1   1   1    8.55    0.19
  -2  -1  -1  179.30    3.79
  -2  -1  -1  181.55    3.85
   2   1   1  180.39    3.78
   2   1   1  180.99    3.83
   2   1   1  178.89    3.82
   2   1   1  176.02    3.82
   2   1   1  178.91    3.79
  -3  -1  -1   14.37    0.35
  -3  -1  -1   14.47    0.34
   3   1   1   15.30    0.33
   3   1   1   14.38    0.33
   3   1   1   15.48    0.35
   3   1   1   15.29    0.34
   3   1   1   15.03    0.34
  -4  -1  -1   12.16    0.30
   4   1   1   12.44    0.31
   4   1   1   12.49    0.30
   4   1   1   12.68    0.31
  -5  -1  -1    8.94    0.25
   5   1   1    9.35    0.24
   5   1   1    9.30    0.23
   5   1   1    9.09    0.26
   5   1   1    9.25    0.25
  -6  -1  -1    0.79    0.07
   6   1   1    0.89    0.06
   6   1   1    0.92    0.06
   6   1   1    0.91    0.08
   6   1   1    1.03    0.08
   7   1   1    3.38    0.13
   7   1   1    3.37    0.17
   7   1   1    3.46    0.16
   8   1   1   25.20    0.60
   8   1   1   26.65    0.61
   8   1   1   25.53    0.60
   8   1   1   26.85    0.62
   8   1   1   25.75    0.66
   9   1   1    6.52    0.22
   9   1   1    6.47    0.21
   9   1   1    6.34    0.21
  10   1   1   10.28    0.29
 -11  -1  -1    0.54    0.07
  11   1   1    0.51    0.06
 -12  -1  -1    4.20    0.14
  12   1   1    4.10    0.13
  12  -2  -1    0.52    0.05
 -12   2   1    0.54    0.05
  11  -2  -1    0.19    0.04
  11  -2  -1    0.24    0.05
  11  -2  -1    0.16    0.05
  10  -2  -1    3.04    0.13
  10  -2  -1    2.99    0.13
  10  -2  -1    3.34    0.14
  10  -2  -1    3.26    0.14
   9  -2  -1    0.43    0.06
   9  -2  -1    0.40    0.06
   9  -2  -1    0.37    0.06
   9  -2  -1    0.34    0.06
   8  -2  -1   12.01    0.32
   8  -2  -1   12.71    0.34
   8  -2  -1   12.92    0.33
   8  -2  -1   12.14    0.33
   7  -2  -1    2.56    0.11
   7  -2  -1    2.56    0.14
   7  -2  -1    2.81    0.11
  -7   2   1    2.67    0.14
   6  -2  -1    2.61    0.09
   6  -2  -1    2.60    0.13
   6  -2  -1    2.62    0.12
  -6   2   1    2.39    0.13
   5  -2  -1    0.32    0.05
   5  -2  -1    0.28    0.04
  -5   2   1    0.30    0.05
   4  -2  -1  136.70    2.95
   4  -2  -1  143.42    2.98
   4  -2  -1  141.88    2.98
  -4   2   1  144.22    2.99
   3  -2  -1  303.89    6.32
   3  -2  -1  287.96    6.30
   3  -2  -1  306.89    6.33
   3  -2  -1  295.59    6.21
  -3   2   1  307.52    6.38
  -3   2   1  298.37    6.24
  -3   2   1  288.60    6.26
   2  -2  -1   33.94    0.74
   2  -2  -1   34.32    0.73
   2  -2  -1   33.94    0.73
  -2   2   1   34.73    0.74
  -2   2   1   34.85    0.72
  -2   2   1   33.98    0.74
   1  -2  -1   23.19    0.49
   1  -2  -1   22.14    0.48
   1  -2  -1   22.29    0.50
   1  -2  -1   22.50    0.49
  -1   2   1   21.88    0.47
  -1   2   1   22.74    0.49
  -1   2   1   22.93    0.47
   0  -2  -1    3.45    0.09
   0  -2  -1    3.58    0.09
   0  -2  -1    3.31    0.09
   0   2   1    3.53    0.08
   0   2   1    3.43    0.09
   0   2   1    3.57    0.10
  -1  -2  -1   15.55    0.35
  -1  -2  -1   16.09    0.35
   1   2   1   15.16    0.34
   1   2   1   15.80    0.36
   1   2   1   15.44    0.35
   1   2   1   16.07    0.34
  -2  -2  -1  207.21    4.35
  -2  -2  -1  203.79    4.29
   2   2   1  200.45    4.33
   2   2   1  203.87    4.29
   2   2   1  202.50    4.29
   2   2   1  190.54    4.26
   2   2   1  206.82    4.30
  -3  -2  -1   19.53    0.46
  -3  -2  -1   19.81    0.45
   3   2   1   19.71    0.44
   3   2   1   19.64    0.44
   3   2   1   19.15    0.44
   3   2   1   19.58    0.44
   3   2   1   20.24    0.46
  -4  -2  -1    1.04    0.06
   4   2   1    0.91    0.06
   4   2   1    0.92    0.06
   4   2   1    0.93    0.07
  -5  -2  -1   67.13    1.47
   5   2   1   68.66    1.49
   5   2   1   66.71    1.46
   5   2   1   67.80    1.44
   5   2   1   68.79    1.47
  -6  -2  -1    5.59    0.19
   6   2   1    5.38    0.21
   6   2   1    5.54    0.18
   6   2   1    5.57    0.17
   6   2   1    6.05    0.20
   7   2   1   10.71    0.29
   7   2   1   10.99    0.32
   8   2   1    0.88    0.09
   8   2   1    0.82    0.08
  -9  -2  -1   11.20    0.31
   9   2   1   10.87    0.30
 -10  -2  -1    0.26    0.06
  10   2   1    0.29    0.06
 -11  -2  -1    4.45    0.16
  11   2   1    4.24    0.15
 -12  -2  -1    2.03    0.09
  12   2   1    2.12    0.08
  12  -3  -1    2.02    0.10
 -12   3   1    2.15    0.09
  11  -3  -1    3.53    0.14
  11  -3  -1    3.39    0.13
  11  -3  -1    3.31    0.13
  10  -3  -1    6.59    0.20
  10  -3  -1    6.25    0.20
  10  -3  -1    6.06    0.20
  10  -3  -1    6.40    0.21
   9  -3  -1    4.89    0.18
   9  -3  -1    5.02    0.18
   9  -3  -1    5.14    0.19
   9  -3  -1    5.03    0.18
   8  -3  -1    0.61    0.07
   8  -3  -1    0.52    0.06
   8  -3  -1    0.52    0.06
   8  -3  -1    0.42    0.07
   7  -3  -1    0.16    0.04
   7  -3  -1    0.14    0.04
   7  -3  -1    0.13    0.05
  -7   3   1    0.12    0.05
   6  -3  -1    4.68    0.17
   6  -3  -1    4.95    0.14
   6  -3  -1    5.04    0.18
  -6   3   1    4.78    0.19
   5  -3  -1   14.94    0.38
   5  -3  -1   15.27    0.34
   5  -3  -1   15.32    0.38
  -5   3   1   14.88    0.39
   4  -3  -1   12.00    0.30
   4  -3  -1   12.01    0.30
  -4   3   1   12.38    0.32
   3  -3  -1    8.34    0.21
   3  -3  -1    8.67    0.21
  -3   3   1    8.12    0.19
  -3   3   1    8.47    0.21
  -3   3   1    8.67    0.22
  -3   3   1    8.94    0.23
   2  -3  -1   97.37    2.07
   2  -3  -1   99.53    2.07
   2  -3  -1  102.49    2.08
   2  -3  -1   95.75    2.06
  -2   3   1   97.89    2.04
  -2   3   1   95.97    2.07
   1  -3  -1    0.39    0.03
   1  -3  -1    0.38    0.02
   1  -3  -1    0.41    0.03
   1  -3  -1    0.42    0.04
  -1   3   1    0.64    0.04
  -1   3   1    0.50    0.02
   0  -3  -1   97.19    1.90
   0  -3  -1   82.17    1.85
   0   3   1   87.44    1.86
   0   3   1   85.92    1.86
  -1  -3  -1   30.57    0.66
  -1  -3  -1   31.19    0.66
   1   3   1   28.78    0.64
   1   3   1   30.54    0.65
   1   3   1   30.15    0.67
   1   3   1   28.97    0.65
  -2  -3  -1  143.84    2.95
  -2  -3  -1  140.65    3.00
   2   3   1  141.80    2.92
   2   3   1  140.48    2.93
   2   3   1  138.83    3.03
   2   3   1  141.48    2.97
   2   3   1  129.89    2.92
  -3  -3  -1    8.67    0.22
  -3  -3  -1    7.77    0.23
   3   3   1    8.66    0.21
   3   3   1    9.17    0.22
   3   3   1    8.27    0.22
   3   3   1    8.38    0.23
   3   3   1    8.29    0.22
  -4  -3  -1   29.21    0.65
   4   3   1   28.02    0.64
   4   3   1   28.52    0.64
   4   3   1   28.06    0.67
  -5  -3  -1   25.40    0.60
   5   3   1   25.56    0.59
   5   3   1   25.31    0.59
  -6  -3  -1    2.42    0.12
   6   3   1    2.60    0.12
   6   3   1    2.60    0.12
  -7  -3  -1    3.77    0.15
   7   3   1    3.91    0.17
   7   3   1    3.60    0.13
  -8  -3  -1    2.07    0.12
   8   3   1    2.14    0.10
   8   3   1    2.12    0.10
  -9  -3  -1    1.36    0.11
   9   3   1    1.14    0.09
 -10  -3  -1    3.83    0.16
  10   3   1    3.69    0.14
 -11  -3  -1    0.83    0.08
  11   3   1    0.91    0.07
 -12  -3  -1    0.63    0.06
  11  -4  -1    1.18    0.08
  11  -4  -1    1.04    0.08
  11  -4  -1    1.14    0.08
  10  -4  -1    0.38    0.06
  10  -4  -1    0.38    0.06
  10  -4  -1    0.46    0.07
  10  -4  -1    0.37    0.06
   9  -4  -1    2.59    0.13
   9  -4  -1    2.45    0.13
   9  -4  -1    2.54    0.13
   9  -4  -1    2.33    0.12
   8  -4  -1    0.66    0.08
   8  -4  -1    0.70    0.07
   8  -4  -1    0.70    0.07
   8  -4  -1    0.76    0.07
   7  -4  -1    0.42    0.05
   7  -4  -1    0.49    0.06
   7  -4  -1    0.32    0.06
   7  -4  -1    0.26    0.05
  -7   4   1    0.27    0.07
   6  -4  -1    3.98    0.16
   6  -4  -1    3.82    0.12
   6  -4  -1    3.76    0.15
  -6   4   1    3.83    0.17
   5  -4  -1    0.60    0.04
   5  -4  -1    0.66    0.06
  -5   4   1    0.74    0.07
   4  -4  -1   41.17    0.91
  -4   4   1   41.51    0.93
   3  -4  -1    2.36    0.08
   3  -4  -1    2.27    0.08
  -3   4   1    2.44    0.10
  -3   4   1    2.44    0.10
   2  -4  -1    0.56    0.04
   2  -4  -1    0.51    0.03
   2  -4  -1    0.48    0.03
   2  -4  -1    0.53    0.05
  -2   4   1    0.55    0.05
  -2   4   1    0.47    0.03
   1  -4  -1   19.32    0.43
   1  -4  -1   18.75    0.43
   1  -4  -1   20.21    0.46
  -1   4   1   19.71    0.42
  -1   4   1   19.54    0.46
  -1   4   1   18.79    0.41
   0  -4  -1   12.18    0.28
   0  -4  -1   11.06    0.28
   0  -4  -1   11.91    0.30
   0   4   1   11.39    0.26
   0   4   1   12.26    0.30
   0   4   1   12.30    0.27
  -1  -4  -1   11.91    0.30
  -1  -4  -1   11.94    0.30
   1   4   1   11.87    0.28
   1   4   1   11.49    0.26
   1   4   1   12.19    0.31
  -2  -4  -1   32.61    0.74
  -2  -4  -1   33.27    0.73
   2   4   1   31.25    0.70
   2   4   1   33.47    0.72
   2   4   1   31.46    0.74
   2   4   1   32.92    0.71
  -3  -4  -1   29.41    0.66
  -3  -4  -1   30.49    0.69
  -3  -4  -1   31.08    0.70
   3   4   1   29.96    0.67
   3   4   1   29.10    0.69
   3   4   1   28.90    0.66
   3   4   1   30.84    0.67
  -4  -4  -1   61.05    1.35
   4   4   1   61.18    1.32
   4   4   1   61.62    1.33
  -5  -4  -1   22.40    0.54
   5   4   1   21.13    0.51
   5   4   1   20.92    0.52
  -6  -4  -1    0.23    0.06
   6   4   1    0.27    0.07
   6   4   1    0.32    0.04
   6   4   1    0.25    0.05
  -7  -4  -1    8.64    0.25
   7   4   1    8.29    0.23
   7   4   1    8.70    0.28
  -8  -4  -1    5.67    0.19
   8   4   1    5.72    0.18
  -9  -4  -1    7.33    0.23
   9   4   1    7.29    0.21
 -10  -4  -1    2.78    0.13
 -11  -4  -1    4.16    0.14
  11  -5  -1    0.20    0.04
  11  -5  -1    0.23    0.04
  10  -5  -1    0.71    0.07
  10  -5  -1    0.86    0.09
  10  -5  -1    0.80    0.07
   9  -5  -1    5.04    0.17
   9  -5  -1    4.99    0.18
   9  -5  -1    4.60    0.21
   9  -5  -1    5.12    0.19
   8  -5  -1    0.34    0.05
   8  -5  -1    0.27    0.05
   8  -5  -1    0.27    0.06
   7  -5  -1   19.11    0.47
   7  -5  -1   18.52    0.46
   7  -5  -1   19.08    0.44
  -7   5   1   18.31    0.52
   6  -5  -1    1.96    0.08
   6  -5  -1    2.06    0.10
  -6   5   1    2.16    0.13
   5  -5  -1    0.65    0.06
  -5   5   1    0.60    0.07
   4  -5  -1    1.60    0.07
  -4   5   1    1.51    0.09
   3  -5  -1    1.22    0.06
   3  -5  -1    1.09    0.08
  -3   5   1    1.09    0.07
   2  -5  -1   26.86    0.63
   2  -5  -1   26.73    0.59
  -2   5   1   26.40    0.62
  -2   5   1   25.85    0.57
   1  -5  -1    4.60    0.14
   1  -5  -1    4.62    0.16
  -1   5   1    4.84    0.13
  -1   5   1    4.43    0.16
   0  -5  -1    1.32    0.07
   0  -5  -1    1.40    0.08
   0  -5  -1    1.36    0.06
   0   5   1    1.32    0.06
   0   5   1    1.44    0.08
  -1  -5  -1    8.43    0.24
  -1  -5  -1    8.40    0.21
  -1  -5  -1    8.77    0.24
   1   5   1    8.70    0.22
   1   5   1    8.51    0.25
   1   5   1    8.94    0.22
  -2  -5  -1    1.85    0.10
  -2  -5  -1    1.98    0.08
  -2  -5  -1    2.06    0.10
   2   5   1    2.04    0.11
   2   5   1    1.89    0.08
   2   5   1    2.03    0.08
  -3  -5  -1    0.55    0.05
  -3  -5  -1    0.55    0.07
  -3  -5  -1    0.51    0.06
   3   5   1    0.53    0.07
   3   5   1    0.56    0.05
   3   5   1    0.47    0.04
   3   5   1    0.51    0.05
  -4  -5  -1    6.39    0.21
   4   5   1    6.28    0.19
   4   5   1    6.52    0.20
  -5  -5  -1    0.86    0.09
   5   5   1    0.77    0.07
   5   5   1    0.72    0.07
  -6  -5  -1    7.95    0.27
  -6  -5  -1    7.54    0.23
   6   5   1    7.93    0.21
   6   5   1    7.61    0.24
  -7  -5  -1    0.28    0.06
   7   5   1    0.33    0.05
  -8  -5  -1    4.31    0.17
   8   5   1    4.15    0.15
  -9  -5  -1    5.47    0.19
   9   5   1    5.19    0.17
 -10  -5  -1    0.63    0.07
 -11  -5  -1    0.08    0.04
  11  -6  -1    1.74    0.08
  11  -6  -1    1.76    0.08
  10  -6  -1    0.45    0.06
  10  -6  -1    0.29    0.05
   9  -6  -1    0.26    0.06
   9  -6  -1    0.28    0.05
   9  -6  -1    0.28    0.06
   8  -6  -1    5.73    0.20
   8  -6  -1    5.78    0.19
   8  -6  -1    5.87    0.18
   7  -6  -1    0.57    0.06
   7  -6  -1    0.54    0.07
   7  -6  -1    0.59    0.07
   6  -6  -1    3.00    0.13
   6  -6  -1    3.01    0.12
   6  -6  -1    2.91    0.10
  -6   6   1    2.82    0.16
   5  -6  -1   11.92    0.31
   5  -6  -1   11.58    0.30
  -5   6   1   11.75    0.35
   4  -6  -1    3.81    0.13
  -4   6   1    4.12    0.17
   3  -6  -1    1.04    0.09
   3  -6  -1    0.95    0.06
  -3   6   1    0.99    0.08
   2  -6  -1    0.85    0.06
   2  -6  -1    0.87    0.08
  -2   6   1    0.86    0.08
   1  -6  -1   24.33    0.56
   1  -6  -1   23.47    0.52
   1  -6  -1   25.24    0.60
  -1   6   1   24.15    0.54
  -1   6   1   24.43    0.60
   0  -6  -1    6.33    0.17
   0  -6  -1    6.74    0.20
   0  -6  -1    6.80    0.22
   0   6   1    6.82    0.23
   0   6   1    6.59    0.18
  -1  -6  -1   13.89    0.34
  -1  -6  -1   13.97    0.37
  -1  -6  -1   15.20    0.39
   1   6   1   14.20    0.35
   1   6   1   14.55    0.40
   1   6   1   14.39    0.35
  -2  -6  -1    5.55    0.20
  -2  -6  -1    5.44    0.20
  -2  -6  -1    5.55    0.16
   2   6   1    5.59    0.18
   2   6   1    5.58    0.21
   2   6   1    5.83    0.17
  -3  -6  -1   30.46    0.69
  -3  -6  -1   29.25    0.74
  -3  -6  -1   30.98    0.73
   3   6   1   30.40    0.74
   3   6   1   30.15    0.71
   3   6   1   30.91    0.70
  -4  -6  -1    0.32    0.05
  -4  -6  -1    0.26    0.06
   4   6   1    0.33    0.06
   4   6   1    0.29    0.05
  -5  -6  -1    0.35    0.07
   5   6   1    0.46    0.05
  -6  -6  -1    5.09    0.13
  -6  -6  -1    4.87    0.18
   6   6   1    5.02    0.16
  -7  -6  -1    0.38    0.07
   7   6   1    0.28    0.05
  -8  -6  -1    0.17    0.06
   8   6   1    0.28    0.05
  -9  -6  -1    8.08    0.24
   9   6   1    7.81    0.22
 -10  -6  -1    6.24    0.19
  10  -7  -1    1.39    0.09
  10  -7  -1    1.30    0.08
   9  -7  -1    5.37    0.19
   9  -7  -1    5.53    0.18
   8  -7  -1   17.70    0.45
   8  -7  -1   17.01    0.41
   8  -7  -1   17.63    0.44
   7  -7  -1    0.13    0.05
   7  -7  -1    0.19    0.04
   7  -7  -1    0.20    0.05
   6  -7  -1    4.99    0.18
   6  -7  -1    4.69    0.16
   5  -7  -1    0.18    0.04
   5  -7  -1    0.22    0.05
  -5   7   1    0.29    0.07
  -4   7   1    5.95    0.22
   3  -7  -1    5.68    0.22
   3  -7  -1    5.53    0.17
  -3   7   1    5.49    0.22
   2  -7  -1    8.27    0.23
   2  -7  -1    8.29    0.28
  -2   7   1    8.25    0.28
   1  -7  -1    6.70    0.24
   1  -7  -1    6.57    0.17
   1  -7  -1    6.54    0.20
  -1   7   1    6.84    0.25
   0  -7  -1   31.35    0.70
   0  -7  -1   32.12    0.75
   0  -7  -1   32.26    0.78
   0   7   1   32.26    0.79
   0   7   1   31.41    0.72
  -1  -7  -1    0.13    0.04
  -1  -7  -1    0.14    0.03
  -1  -7  -1    0.20    0.05
   1   7   1    0.13    0.04
   1   7   1    0.14    0.04
   1   7   1    0.13    0.05
  -2  -7  -1    4.05    0.14
  -2  -7  -1    3.72    0.17
  -2  -7  -1    4.01    0.17
   2   7   1    3.61    0.15
   2   7   1    3.94    0.19
   2   7   1    3.76    0.15
  -3  -7  -1    2.41    0.14
  -3  -7  -1    2.44    0.11
  -3  -7  -1    2.26    0.14
   3   7   1    2.49    0.10
   3   7   1    2.23    0.12
   3   7   1    2.73    0.18
  -4  -7  -1    2.72    0.13
  -4  -7  -1    2.71    0.16
   4   7   1    2.94    0.11
  -5  -7  -1    2.15    0.12
  -5  -7  -1    2.32    0.09
   5   7   1    2.07    0.11
  -6  -7  -1    1.08    0.06
  -6  -7  -1    1.08    0.10
   6   7   1    1.07    0.09
  -7  -7  -1    1.10    0.10
   7   7   1    1.05    0.09
  -8  -7  -1    1.62    0.11
   8   7   1    1.64    0.10
  -9  -7  -1    3.75    0.14
   9   7   1    3.67    0.13
 -10  -7  -1    6.97    0.19
  10  -8  -1    0.09    0.03
   9  -8  -1    5.03    0.16
   9  -8  -1    5.29    0.17
   8  -8  -1    8.93    0.25
   8  -8  -1    9.02    0.26
   7  -8  -1    3.08    0.13
   7  -8  -1    2.97    0.14
   7  -8  -1    2.95    0.11
   6  -8  -1    0.29    0.06
   5  -8  -1    5.15    0.19
   4  -8  -1    5.92    0.20
  -4   8   1    5.94    0.24
   3  -8  -1   41.51    1.02
   3  -8  -1   42.27    0.94
   2  -8  -1   15.00    0.45
   2  -8  -1   14.85    0.35
   1  -8  -1   34.96    0.86
   1  -8  -1   34.08    0.76
   0  -8  -1   11.99    0.31
   0  -8  -1   11.79    0.38
   0   8   1   13.26    0.41
  -1  -8  -1    1.30    0.08
  -1  -8  -1    1.35    0.12
  -1  -8  -1    1.25    0.08
  -2  -8  -1   20.59    0.49
  -2  -8  -1   19.37    0.51
  -2  -8  -1   19.10    0.54
  -2  -8  -1   20.29    0.55
   2   8   1   19.75    0.46
  -3  -8  -1    4.58    0.17
  -3  -8  -1    4.43    0.13
  -3  -8  -1    4.44    0.21
  -3  -8  -1    4.48    0.18
   3   8   1    4.58    0.15
  -4  -8  -1    7.45    0.20
  -4  -8  -1    7.71    0.24
   4   8   1    7.58    0.22
  -5  -8  -1    6.24    0.17
  -5  -8  -1    6.06    0.21
   5   8   1    6.21    0.19
  -6  -8  -1    4.75    0.18
  -6  -8  -1    4.69    0.13
   6   8   1    4.62    0.16
  -7  -8  -1   25.99    0.62
   7   8   1   26.46    0.61
  -8  -8  -1    2.64    0.12
   8   8   1    2.65    0.11
  -9  -8  -1    0.82    0.07
   9  -9  -1    5.10    0.16
   8  -9  -1    2.27    0.11
   7  -9  -1   18.71    0.47
   6  -9  -1    3.64    0.15
   5  -9  -1    1.23    0.10
   4  -9  -1    5.41    0.19
   3  -9  -1    0.97    0.09
   3  -9  -1    1.03    0.10
   3  -9  -1    1.02    0.06
   2  -9  -1    8.84    0.24
   2  -9  -1    8.41    0.26
   2  -9  -1    8.90    0.28
   1  -9  -1   19.94    0.46
   1  -9  -1   18.87    0.48
   1  -9  -1   19.05    0.51
   0  -9  -1    0.08    0.04
   0  -9  -1    0.12    0.05
   0  -9  -1    0.08    0.05
  -1  -9  -1    0.40    0.07
  -1  -9  -1    0.42    0.06
  -1  -9  -1    0.39    0.06
   1   9   1    0.36    0.05
  -2  -9  -1    0.71    0.08
  -2  -9  -1    0.63    0.07
  -2  -9  -1    0.55    0.08
   2   9   1    0.71    0.06
  -3  -9  -1    0.81    0.09
  -3  -9  -1    0.77    0.08
  -3  -9  -1    0.69    0.05
  -3  -9  -1    0.67    0.08
   3   9   1    0.64    0.06
  -4  -9  -1    5.97    0.21
  -4  -9  -1    5.96    0.17
   4   9   1    6.15    0.19
  -5  -9  -1    1.84    0.12
  -5  -9  -1    1.99    0.08
   5   9   1    2.13    0.11
  -6  -9  -1    7.30    0.23
  -6  -9  -1    7.76    0.19
   6   9   1    8.08    0.22
  -7  -9  -1   21.06    0.51
   7   9   1   21.99    0.50
  -8  -9  -1    2.44    0.10
   8   9   1    2.46    0.10
   8 -10  -1    0.28    0.04
   7 -10  -1    9.93    0.27
   6 -10  -1    0.07    0.04
   5 -10  -1    0.69    0.08
   4 -10  -1   25.42    0.61
   4 -10  -1   25.31    0.58
   3 -10  -1   40.94    0.96
   3 -10  -1   40.50    0.90
   3 -10  -1   40.63    0.93
   2 -10  -1   56.13    1.27
   2 -10  -1   55.98    1.24
   2 -10  -1   55.21    1.22
   1 -10  -1    1.43    0.12
   1 -10  -1    1.47    0.11
   1 -10  -1    1.58    0.09
   0 -10  -1    0.40    0.08
   0 -10  -1    0.46    0.06
   0 -10  -1    0.44    0.07
  -1 -10  -1    0.32    0.07
  -1 -10  -1    0.30    0.06
  -1 -10  -1    0.39    0.06
  -2 -10  -1    0.18    0.07
  -2 -10  -1    0.22    0.06
  -2 -10  -1    0.27    0.06
   2  10   1    0.20    0.05
  -3 -10  -1    3.16    0.15
  -3 -10  -1    3.22    0.11
  -3 -10  -1    2.98    0.14
  -3 -10  -1    3.33    0.17
   3  10   1    3.19    0.13
  -4 -10  -1    1.20    0.10
  -4 -10  -1    1.37    0.07
   4  10   1    1.11    0.09
  -5 -10  -1    0.26    0.05
  -5 -10  -1    0.24    0.03
   5  10   1    0.24    0.05
   6  10   1    0.65    0.06
   7  10   1    3.49    0.11
   5 -11  -1    0.72    0.07
   4 -11  -1    1.76    0.10
   3 -11  -1   19.85    0.52
   3 -11  -1   19.93    0.49
   3 -11  -1   19.62    0.47
   2 -11  -1   26.33    0.66
   2 -11  -1   26.51    0.62
   1 -11  -1    1.12    0.12
   1 -11  -1    1.22    0.09
   0 -11  -1    0.67    0.09
   0 -11  -1    0.62    0.07
  -1 -11  -1    0.22    0.06
  -1 -11  -1    0.28    0.07
  -2 -11  -1    0.47    0.07
  -2 -11  -1    0.54    0.09
  -2 -11  -1    0.51    0.05
   2  11   1    0.42    0.05
  -3 -11  -1   43.89    0.94
  -3 -11  -1   43.57    1.00
   3  11   1   42.33    0.94
  -4 -11  -1    1.39    0.07
   4  11   1    1.26    0.08
  -5 -11  -1    0.12    0.02
   5  11   1    0.20    0.04
   3 -12  -1   15.67    0.41
   2 -12  -1    0.30    0.07
   1 -12  -1    0.20    0.07
   0 -12  -1    3.92    0.18
  -1 -12  -1    0.06    0.03
  -1 -12  -1    0.17    0.07
  -2 -12  -1    2.26    0.14
  -2 -12  -1    2.02    0.08
  -3 -12  -1    9.42    0.22
  -3 -12  -1    9.10    0.27
  -4 -12  -1    1.38    0.05
   2 -13  -1    0.97    0.09
   1 -13  -1    1.12    0.10
   0 -13  -1    0.12    0.05
   0 -13  -1    0.12    0.03
  -1 -13  -1    0.11    0.03
  -1 -13  -1    0.19    0.05
  -2 -13  -1    2.32    0.07
   0 -12   2    2.15    0.11
   1 -12   2    0.73    0.08
   2 -12   2    2.03    0.11
   3  11  -2    7.78    0.21
  -3 -11   2    7.98    0.19
   2  11  -2    0.13    0.03
  -2 -11   2    0.12    0.05
  -2 -11   2    0.21    0.03
   1  11  -2    2.08    0.09
  -1 -11   2    2.15    0.12
  -1 -11   2    2.09    0.08
   0 -11   2    4.63    0.18
   1 -11   2    0.69    0.08
   2 -11   2   13.48    0.37
   3 -11   2    5.73    0.20
   5  10  -2    1.38    0.07
  -5 -10   2    1.20    0.04
   4  10  -2    0.75    0.07
  -4 -10   2    0.77    0.05
   3  10  -2    0.44    0.05
  -3 -10   2    0.50    0.07
  -3 -10   2    0.50    0.04
   2  10  -2    0.59    0.06
  -2 -10   2    0.60    0.05
  -2 -10   2    0.60    0.08
   1  10  -2    6.75    0.20
  -1 -10   2    6.82    0.24
  -1 -10   2    6.87    0.26
   0 -10   2    3.55    0.14
   0 -10   2    3.68    0.18
   0 -10   2    3.45    0.14
   1 -10   2    0.36    0.05
   1 -10   2    0.34    0.07
   2 -10   2    0.33    0.05
   2 -10   2    0.25    0.07
   3 -10   2    0.31    0.07
   4 -10   2    4.62    0.18
   6   9  -2    4.36    0.13
   5   9  -2    0.37    0.05
  -5  -9   2    0.35    0.03
   4   9  -2    0.20    0.05
  -4  -9   2    0.26    0.04
   3   9  -2    3.19    0.12
  -3  -9   2    2.96    0.10
  -3  -9   2    2.82    0.14
  -3  -9   2    2.75    0.15
  -2  -9   2    0.31    0.07
  -2  -9   2    0.21    0.06
  -2  -9   2    0.40    0.07
  -1  -9   2    1.85    0.14
  -1  -9   2    1.94    0.11
  -1  -9   2    1.78    0.11
   0  -9   2    0.22    0.07
   0  -9   2    0.18    0.05
   0  -9   2    0.18    0.05
   1  -9   2    5.41    0.19
   1  -9   2    5.69    0.23
   1  -9   2    5.81    0.18
   2  -9   2    3.47    0.17
   2  -9   2    3.53    0.13
   3  -9   2    0.31    0.07
   4  -9   2    7.65    0.26
   7   8  -2    4.43    0.13
   6   8  -2    1.89    0.09
   5   8  -2    2.15    0.11
  -5  -8   2    2.01    0.08
   4   8  -2    0.23    0.05
  -4  -8   2    0.16    0.03
  -3  -8   2    3.29    0.15
  -3  -8   2    2.95    0.16
  -3  -8   2    3.09    0.11
  -2  -8   2   42.06    1.00
  -2  -8   2   44.10    0.97
  -2  -8   2   42.98    0.98
  -1  -8   2    1.85    0.11
  -1  -8   2    1.91    0.11
  -1  -8   2    1.80    0.13
   0  -8   2    4.96    0.20
   0  -8   2    4.75    0.17
   0  -8   2    4.83    0.17
   1  -8   2    0.70    0.07
   1  -8   2    0.66    0.06
   1  -8   2    0.81    0.09
   2  -8   2    6.74    0.19
   2  -8   2    6.67    0.24
   3  -8   2    6.16    0.23
   4  -8   2    1.65    0.13
   8   7  -2    2.24    0.08
   7   7  -2    3.48    0.12
   6   7  -2    0.42    0.06
  -6  -7   2    0.42    0.04
   5   7  -2    2.99    0.13
  -5  -7   2    2.93    0.10
   4   7  -2    0.69    0.07
  -4  -7   2    0.72    0.06
  -3  -7   2   79.96    1.72
  -3  -7   2   74.73    1.72
  -3  -7   2   80.45    1.71
  -3  -7   2   79.14    1.67
  -2  -7   2   64.16    1.62
  -2  -7   2   60.65    1.39
  -2  -7   2   62.17    1.37
  -2  -7   2   63.84    1.38
  -1  -7   2    0.79    0.09
  -1  -7   2    0.85    0.11
  -1  -7   2    0.84    0.07
  -1  -7   2    0.82    0.07
   0  -7   2   16.93    0.49
   0  -7   2   17.27    0.41
   0  -7   2   16.89    0.42
   0  -7   2   17.11    0.45
   1  -7   2    2.96    0.15
   1  -7   2    3.13    0.12
   1  -7   2    3.34    0.17
   1  -7   2    3.16    0.11
   2  -7   2    0.37    0.05
   2  -7   2    0.29    0.06
   2  -7   2    0.31    0.07
   3  -7   2    7.08    0.23
   3  -7   2    6.76    0.26
  10  -7   2    1.06    0.08
   8   6  -2    1.12    0.07
   7   6  -2    0.07    0.04
   6   6  -2    9.84    0.27
  -6  -6   2    9.46    0.23
   5   6  -2    0.37    0.05
  -5  -6   2    0.45    0.04
  -4  -6   2    0.16    0.05
  -4  -6   2    0.18    0.03
  -3  -6   2   45.03    1.00
  -3  -6   2   43.20    1.06
   2   6  -2   13.85    0.38
  -2  -6   2   14.93    0.37
  -2  -6   2   14.09    0.36
  -2  -6   2   14.31    0.42
  -2  -6   2   13.94    0.42
   1   6  -2   25.41    0.60
   1   6  -2   25.18    0.60
   1   6  -2   24.84    0.65
  -1  -6   2   23.99    0.62
  -1  -6   2   25.86    0.58
  -1  -6   2   25.83    0.65
   0   6  -2   12.47    0.38
   0   6  -2   12.78    0.32
   0   6  -2   12.89    0.33
   0  -6   2   12.81    0.31
   0  -6   2   12.29    0.34
   0  -6   2   12.52    0.37
  -1   6  -2    6.55    0.20
  -1   6  -2    6.49    0.18
  -1   6  -2    6.66    0.25
   1  -6   2    6.85    0.24
   1  -6   2    6.67    0.17
   1  -6   2    6.39    0.20
  -2   6  -2    8.22    0.23
  -2   6  -2    8.05    0.20
  -2   6  -2    8.27    0.28
   2  -6   2    8.08    0.27
   2  -6   2    8.10    0.22
  -3   6  -2   10.89    0.34
  -3   6  -2   10.67    0.29
   3  -6   2   11.06    0.34
   7  -6   2    2.26    0.11
   8  -6   2    0.60    0.07
   9  -6   2    0.89    0.08
  10  -6   2    0.67    0.06
   7   5  -2    3.63    0.13
   6   5  -2   14.70    0.36
  -6  -5   2   14.53    0.33
   5   5  -2    5.26    0.20
   5   5  -2    5.27    0.17
  -5  -5   2    5.58    0.15
   4   5  -2   52.70    1.21
  -4  -5   2   53.89    1.25
  -4  -5   2   54.63    1.18
   3   5  -2   38.89    0.88
   3   5  -2   37.00    1.01
   3   5  -2   38.22    0.89
   3   5  -2   38.75    0.88
  -3  -5   2   40.05    0.93
  -3  -5   2   40.40    0.87
  -3  -5   2   38.48    0.93
   2   5  -2   25.62    0.60
   2   5  -2   24.99    0.64
   2   5  -2   25.31    0.60
   2   5  -2   25.28    0.60
  -2  -5   2   26.45    0.59
  -2  -5   2   25.14    0.64
  -2  -5   2   25.75    0.64
   1   5  -2   26.76    0.61
   1   5  -2   25.77    0.60
   1   5  -2   25.99    0.60
   1   5  -2   26.85    0.65
  -1  -5   2   26.70    0.65
  -1  -5   2   26.50    0.64
  -1  -5   2   25.51    0.59
   0   5  -2    2.28    0.12
   0   5  -2    2.28    0.09
   0   5  -2    2.19    0.10
   0   5  -2    2.35    0.09
   0  -5   2    2.40    0.14
   0  -5   2    2.30    0.10
   0  -5   2    2.29    0.08
   0  -5   2    2.34    0.12
  -1   5  -2    6.65    0.19
  -1   5  -2    6.67    0.17
  -1   5  -2    6.74    0.19
  -1   5  -2    6.88    0.23
   1  -5   2    6.57    0.22
   1  -5   2    6.69    0.19
   1  -5   2    6.68    0.25
  -2   5  -2    6.36    0.18
  -2   5  -2    6.39    0.19
  -2   5  -2    6.52    0.22
   2  -5   2    6.37    0.24
   2  -5   2    6.23    0.21
   2  -5   2    6.48    0.17
  -3   5  -2   10.63    0.32
  -3   5  -2   10.46    0.27
  -3   5  -2   10.74    0.29
   3  -5   2   10.84    0.31
   4  -5   2   29.96    0.73
   6  -5   2    0.27    0.05
   7  -5   2    0.60    0.06
   8  -5   2    7.26    0.22
   8  -5   2    7.95    0.28
   9  -5   2    0.89    0.08
   9  -5   2    1.00    0.09
   9  -5   2    0.92    0.07
   9  -5   2    0.91    0.08
  10  -5   2    1.71    0.10
  10  -5   2    1.75    0.10
  10  -5   2    1.73    0.09
  11  -5   2    0.11    0.04
   8   4  -2    0.63    0.10
   6   4  -2    3.26    0.12
  -6  -4   2    3.20    0.09
   5   4  -2    0.71    0.08
   5   4  -2    0.80    0.06
  -5  -4   2    0.77    0.10
   4   4  -2    7.96    0.25
   4   4  -2    8.03    0.24
  -4  -4   2    8.36    0.28
   3   4  -2    8.46    0.25
   3   4  -2    8.86    0.24
   3   4  -2    8.45    0.26
   3   4  -2    9.02    0.25
  -3  -4   2    8.88    0.28
  -3  -4   2    8.90    0.28
  -3  -4   2    8.79    0.24
   2   4  -2    8.30    0.26
   2   4  -2    8.34    0.24
   2   4  -2    8.71    0.23
   2   4  -2    8.63    0.24
  -2  -4   2    8.92    0.26
  -2  -4   2    8.49    0.28
  -2  -4   2    8.87    0.27
  -2  -4   2    9.05    0.23
   1   4  -2    0.33    0.04
   1   4  -2    0.43    0.04
   1   4  -2    0.35    0.04
  -1  -4   2    0.30    0.06
  -1  -4   2    0.40    0.06
  -1  -4   2    0.36    0.04
  -1  -4   2    0.46    0.05
   0   4  -2   26.85    0.59
   0   4  -2   26.97    0.60
   0   4  -2   26.44    0.60
   0  -4   2   26.29    0.58
   0  -4   2   27.87    0.67
   0  -4   2   26.59    0.63
   0  -4   2   27.19    0.62
  -1   4  -2   11.29    0.26
  -1   4  -2   11.35    0.28
  -1   4  -2   11.59    0.28
   1  -4   2   11.63    0.28
   1  -4   2   10.89    0.30
   1  -4   2   11.38    0.34
  -2   4  -2   22.90    0.53
  -2   4  -2   23.27    0.53
   2  -4   2   23.45    0.51
   2  -4   2   23.45    0.59
   2  -4   2   23.64    0.56
  -3   4  -2   67.88    1.42
   3  -4   2   65.57    1.45
   3  -4   2   65.64    1.44
   3  -4   2   67.34    1.49
  -4   4  -2   66.30    1.45
  -4   4  -2   66.91    1.42
   4  -4   2   66.48    1.45
   4  -4   2   65.65    1.44
   4  -4   2   66.38    1.46
   5  -4   2    3.08    0.13
   6  -4   2   10.21    0.25
   6  -4   2   10.01    0.31
   6  -4   2    9.93    0.26
   7  -4   2    0.56    0.06
   7  -4   2    0.63    0.07
   7  -4   2    0.50    0.06
   8  -4   2   16.69    0.41
   8  -4   2   15.97    0.38
   8  -4   2   16.21    0.41
   8  -4   2   15.45    0.41
   9  -4   2   16.75    0.42
   9  -4   2   16.34    0.42
   9  -4   2   15.81    0.42
   9  -4   2   16.41    0.40
  10  -4   2    1.53    0.10
  10  -4   2    1.41    0.08
  10  -4   2    1.58    0.10
  10  -4   2    1.49    0.11
  11  -4   2    3.15    0.12
  11  -4   2    3.10    0.12
  11  -4   2    3.26    0.12
  10   3  -2    6.19    0.18
 -10  -3   2    5.88    0.18
   9   3  -2    2.63    0.12
  -9  -3   2    2.70    0.12
   8   3  -2    1.41    0.09
  -8  -3   2    1.39    0.10
   7   3  -2    0.28    0.05
  -7  -3   2    0.30    0.06
   6   3  -2    0.14    0.04
   6   3  -2    0.11    0.05
  -6  -3   2    0.05    0.05
   5   3  -2    8.63    0.25
   5   3  -2    8.60    0.27
  -5  -3   2    8.59    0.29
   4   3  -2    1.55    0.09
   4   3  -2    1.42    0.08
  -4  -3   2    1.63    0.11
   3   3  -2    1.08    0.06
   3   3  -2    1.11    0.07
   3   3  -2    1.09    0.07
   3   3  -2    1.11    0.07
  -3  -3   2    1.06    0.08
  -3  -3   2    1.08    0.06
  -3  -3   2    1.14    0.08
   2   3  -2    6.79    0.19
   2   3  -2    7.00    0.19
   2   3  -2    6.79    0.19
  -2  -3   2    6.86    0.21
  -2  -3   2    6.75    0.18
  -2  -3   2    6.98    0.22
  -2  -3   2    7.05    0.21
   1   3  -2   37.87    0.82
   1   3  -2   37.69    0.82
   1   3  -2   37.30    0.82
  -1  -3   2   36.62    0.81
  -1  -3   2   37.87    0.87
  -1  -3   2   38.64    0.84
  -1  -3   2   37.44    0.84
   0   3  -2   23.74    0.53
   0   3  -2   23.85    0.52
   0   3  -2   23.83    0.53
   0  -3   2   23.83    0.55
   0  -3   2   23.95    0.54
   0  -3   2   23.26    0.57
  -1   3  -2   10.70    0.25
  -1   3  -2   10.47    0.25
   1  -3   2   10.56    0.29
   1  -3   2   10.67    0.25
   1  -3   2    9.89    0.24
   1  -3   2   10.25    0.26
   2  -3   2    7.48    0.21
   2  -3   2    7.62    0.21
   2  -3   2    7.93    0.21
   2  -3   2    7.47    0.17
   2  -3   2    8.02    0.24
   3  -3   2   52.14    1.15
   3  -3   2   52.99    1.17
   3  -3   2   53.51    1.14
   3  -3   2   52.08    1.15
  -4   3  -2   17.87    0.43
   4  -3   2   18.52    0.44
   4  -3   2   17.91    0.43
   5  -3   2    0.43    0.06
   5  -3   2    0.40    0.04
   6  -3   2   76.99    1.64
   6  -3   2   76.34    1.69
   7  -3   2    4.09    0.18
   7  -3   2    4.07    0.12
   7  -3   2    3.99    0.14
   8  -3   2    0.28    0.05
   8  -3   2    0.21    0.05
   8  -3   2    0.19    0.04
   8  -3   2    0.13    0.05
   9  -3   2    1.04    0.09
   9  -3   2    1.11    0.08
   9  -3   2    1.01    0.09
   9  -3   2    1.20    0.10
  10  -3   2    0.34    0.06
  10  -3   2    0.44    0.06
  10  -3   2    0.37    0.06
  10  -3   2    0.37    0.06
  11  -3   2    2.00    0.10
  11  -3   2    2.04    0.11
  11  -3   2    2.02    0.10
 -12   3  -2    0.23    0.04
  12  -3   2    0.18    0.04
  12  -3   2    0.17    0.04
  11   2  -2    0.65    0.05
 -11  -2   2    0.55    0.06
  10   2  -2    0.90    0.08
 -10  -2   2    0.75    0.08
   9   2  -2    0.50    0.06
  -9  -2   2    0.59    0.07
   8   2  -2    7.33    0.22
  -8  -2   2    7.33    0.23
   7   2  -2    2.51    0.11
   7   2  -2    2.51    0.12
  -6  -2   2    0.25    0.06
   5   2  -2   35.47    0.82
  -5  -2   2   34.81    0.83
   4   2  -2    0.59    0.05
   4   2  -2    0.67    0.06
  -4  -2   2    0.63    0.07
   3   2  -2   86.65    1.83
   3   2  -2   84.74    1.82
   3   2  -2   85.29    1.81
  -3  -2   2   87.19    1.85
  -3  -2   2   84.82    1.86
  -3  -2   2   85.54    1.85
   2   2  -2    9.97    0.25
   2   2  -2    9.57    0.24
   2   2  -2    9.89    0.24
  -2  -2   2    9.68    0.27
  -2  -2   2    9.94    0.27
  -2  -2   2    9.75    0.26
   1   2  -2   90.67    1.93
   1   2  -2   89.86    1.95
   1   2  -2   91.30    1.95
   1   2  -2   91.97    1.94
  -1  -2   2   93.93    1.97
  -1  -2   2   93.22    1.95
  -1  -2   2   94.05    1.96
   0   2  -2  164.56    3.43
   0   2  -2  172.70    3.40
   0   2  -2  168.78    3.44
   0  -2   2  163.12    3.45
   0  -2   2  145.22    3.37
   0  -2   2  152.86    3.43
   0  -2   2  163.74    3.54
  -1   2  -2   12.05    0.28
   1  -2   2   11.32    0.27
   1  -2   2   12.63    0.31
   1  -2   2   12.47    0.27
   1  -2   2   12.12    0.29
   1  -2   2   11.75    0.28
   2  -2   2    3.01    0.11
   2  -2   2    2.86    0.09
   2  -2   2    2.92    0.09
   2  -2   2    2.93    0.10
   3  -2   2   12.80    0.30
   3  -2   2   10.28    0.29
   3  -2   2   12.87    0.31
   3  -2   2   12.42    0.27
   3  -2   2   12.51    0.29
  -4   2  -2    0.68    0.05
   4  -2   2    0.71    0.06
   4  -2   2    0.62    0.05
   4  -2   2    0.77    0.06
   4  -2   2    0.70    0.04
  -5   2  -2    6.04    0.15
   5  -2   2    6.23    0.19
   5  -2   2    5.91    0.17
   5  -2   2    5.66    0.17
   6  -2   2    3.94    0.16
   6  -2   2    3.75    0.13
   6  -2   2    3.66    0.10
   7  -2   2    0.83    0.09
   7  -2   2    1.01    0.07
   7  -2   2    0.90    0.06
   8  -2   2    1.30    0.09
   8  -2   2    1.36    0.08
   8  -2   2    1.34    0.09
   8  -2   2    1.24    0.12
   8  -2   2    1.32    0.09
   9  -2   2    3.22    0.14
   9  -2   2    3.30    0.13
   9  -2   2    3.27    0.14
   9  -2   2    3.17    0.14
  10  -2   2    0.45    0.07
  10  -2   2    0.64    0.08
  10  -2   2    0.55    0.07
  10  -2   2    0.50    0.07
  11  -2   2    2.96    0.13
  11  -2   2    3.00    0.13
  11  -2   2    3.02    0.13
 -12   2  -2    0.84    0.07
  12  -2   2    0.86    0.07
  12  -2   2    0.83    0.06
  11   1  -2    1.12    0.07
 -11  -1   2    1.06    0.07
  10   1  -2    3.51    0.14
 -10  -1   2    3.37    0.14
   9   1  -2   24.18    0.57
  -9  -1   2   23.62    0.57
   8   1  -2    1.89    0.11
   8   1  -2    1.98    0.11
   7   1  -2    3.22    0.12
   7   1  -2    2.92    0.13
   7   1  -2    3.14    0.16
  -7  -1   2    3.11    0.17
   6   1  -2    1.44    0.10
  -6  -1   2    1.43    0.11
   5   1  -2   12.56    0.33
  -5  -1   2   12.18    0.35
   4   1  -2   26.36    0.61
   4   1  -2   25.11    0.59
   4   1  -2   27.48    0.67
  -4  -1   2   26.79    0.63
   3   1  -2   87.47    1.88
   3   1  -2   88.17    1.91
   3   1  -2   89.21    1.89
   3   1  -2   86.49    1.87
  -3  -1   2   91.92    1.90
  -3  -1   2   90.50    1.91
  -3  -1   2   88.66    1.89
   2   1  -2   18.20    0.41
   2   1  -2   18.40    0.41
   2   1  -2   17.62    0.42
   2   1  -2   17.69    0.40
  -2  -1   2   18.32    0.43
  -2  -1   2   18.45    0.42
  -2  -1   2   17.67    0.42
   1   1  -2  113.32    2.32
   1   1  -2  109.64    2.35
   1   1  -2  109.78    2.35
   1   1  -2  105.94    2.32
  -1  -1   2  112.89    2.39
  -1  -1   2  110.35    2.37
  -1  -1   2  111.31    2.33
   0   1  -2  335.26    7.19
   0   1  -2  344.67    7.18
   0   1  -2  355.19    7.16
   0  -1   2  309.14    7.16
   0  -1   2  369.06    7.33
   0  -1   2  344.92    7.21
   0  -1   2  343.67    7.22
   0  -1   2  328.85    7.19
   1  -1   2   25.30    0.54
   1  -1   2   22.39    0.53
   1  -1   2   25.09    0.56
   1  -1   2   25.21    0.54
   1  -1   2   26.04    0.53
   1  -1   2   24.17    0.53
   2  -1   2  120.52    2.55
   2  -1   2  118.70    2.55
   2  -1   2  124.43    2.59
   2  -1   2  120.41    2.62
   2  -1   2  117.95    2.53
   2  -1   2  124.46    2.55
  -3   1  -2    4.83    0.13
   3  -1   2    4.87    0.13
   3  -1   2    4.58    0.14
   3  -1   2    4.96    0.14
   3  -1   2    5.11    0.12
   3  -1   2    5.05    0.14
  -4   1  -2    0.29    0.02
  -4   1  -2    0.16    0.02
   4  -1   2    0.20    0.03
   4  -1   2    0.54    0.05
   4  -1   2    0.17    0.03
   4  -1   2    0.30    0.03
   5  -1   2    0.28    0.04
   5  -1   2    0.35    0.04
   5  -1   2    0.31    0.03
   5  -1   2    0.34    0.05
   6  -1   2   12.13    0.32
   6  -1   2   11.70    0.28
   6  -1   2   12.27    0.33
   7  -1   2   15.60    0.39
   7  -1   2   16.15    0.44
   7  -1   2   16.12    0.38
   7  -1   2   16.47    0.43
   8  -1   2   14.36    0.37
   8  -1   2   14.54    0.36
   8  -1   2   14.68    0.36
   8  -1   2   14.52    0.42
   8  -1   2   14.01    0.37
   9  -1   2    2.83    0.13
   9  -1   2    2.88    0.13
   9  -1   2    2.99    0.13
   9  -1   2    2.55    0.13
  10  -1   2    8.19    0.25
  10  -1   2    8.06    0.25
  10  -1   2    8.35    0.25
  10  -1   2    8.38    0.25
  11  -1   2    0.82    0.08
  11  -1   2    0.62    0.07
  11  -1   2    0.63    0.07
 -12   1  -2    0.17    0.04
  12  -1   2    0.15    0.04
  12  -1   2    0.13    0.04
  11   0  -2    2.71    0.11
 -11   0   2    2.63    0.11
  10   0  -2    5.00    0.17
   9   0  -2   10.40    0.30
   9   0  -2   10.62    0.29
   8   0  -2    1.13    0.09
   8   0  -2    1.19    0.09
   7   0  -2    1.06    0.08
   7   0  -2    1.18    0.10
   7   0  -2    1.10    0.08
   7   0  -2    1.21    0.08
  -7   0   2    1.17    0.11
   6   0  -2    6.88    0.23
   6   0  -2    7.05    0.20
  -6   0   2    7.12    0.24
   5   0  -2    1.91    0.08
   5   0  -2    1.93    0.11
   5   0  -2    1.85    0.10
  -5   0   2    1.98    0.11
   4   0  -2    2.64    0.09
   4   0  -2    2.79    0.11
   4   0  -2    2.66    0.12
   4   0  -2    2.72    0.09
  -4   0   2    2.74    0.12
   3   0  -2   44.02    0.95
   3   0  -2   42.17    0.91
   3   0  -2   41.98    0.92
   3   0  -2   43.39    0.93
  -3   0   2   43.88    0.95
  -3   0   2   41.61    0.95
  -3   0   2   43.26    0.92
   2   0  -2   23.44    0.54
   2   0  -2   24.31    0.54
   2   0  -2   25.08    0.55
  -2   0   2   24.82    0.56
  -2   0   2   25.18    0.55
  -2   0   2   24.10    0.54
   1   0  -2   42.04    0.93
   1   0  -2   43.50    0.91
   1   0  -2   42.36    0.92
  -1   0   2   43.68    0.93
  -1   0   2   43.76    0.93
  -1   0   2   44.45    0.93
   0   0  -2   45.30    0.94
   0   0  -2   45.30    0.94
   0   0  -2   44.39    0.95
   0   0   2   42.92    0.95
   0   0   2   45.40    0.96
   0   0   2   44.32    0.95
   0   0   2   44.67    0.94
   0   0   2   45.32    0.94
  -1   0  -2   32.74    0.66
   1   0   2   31.31    0.67
   1   0   2   31.26    0.69
   1   0   2   30.80    0.67
   1   0   2   31.54    0.67
   1   0   2   31.50    0.67
  -2   0  -2   41.96    0.84
  -2   0  -2   40.30    0.84
   2   0   2   40.35    0.86
   2   0   2   39.13    0.87
   2   0   2   40.77    0.86
   2   0   2   41.01    0.85
   2   0   2   37.81    0.85
  -3   0  -2    2.14    0.06
  -3   0  -2    2.09    0.06
   3   0   2    2.05    0.07
   3   0   2    2.49    0.08
   3   0   2    2.19    0.07
   3   0   2    2.20    0.08
   3   0   2    1.99    0.07
  -4   0  -2   32.13    0.67
  -4   0  -2   30.00    0.67
   4   0   2   30.82    0.68
   4   0   2   32.00    0.69
   4   0   2   29.92    0.67
   4   0   2   31.45    0.69
   5   0   2   43.77    0.98
   5   0   2   44.80    0.95
   5   0   2   45.70    0.99
   5   0   2   44.94    0.99
   6   0   2    0.34    0.04
   6   0   2    0.33    0.05
   6   0   2    0.32    0.04
   6   0   2    0.30    0.05
   7   0   2   18.55    0.49
   7   0   2   18.73    0.50
   7   0   2   19.46    0.44
   8   0   2    0.50    0.08
   8   0   2    0.57    0.07
   8   0   2    0.47    0.06
   8   0   2    0.43    0.06
   8   0   2    0.49    0.06
   9   0   2    1.16    0.09
   9   0   2    1.01    0.09
   9   0   2    1.11    0.09
   9   0   2    1.08    0.09
  10   0   2    6.29    0.21
  10   0   2    6.26    0.21
  10   0   2    6.19    0.20
 -11   0  -2    2.20    0.12
  11   0   2    2.24    0.12
  11   0   2    2.20    0.11
 -12   0  -2    2.67    0.11
  12   0   2    2.79    0.11
  11  -1  -2    0.38    0.05
 -11   1   2    0.43    0.06
  10  -1  -2    0.37    0.06
  10  -1  -2    0.39    0.06
   9  -1  -2    7.88    0.24
   9  -1  -2    7.91    0.24
   8  -1  -2    1.25    0.09
   8  -1  -2    1.37    0.09
   8  -1  -2    1.44    0.09
   8  -1  -2    1.49    0.10
   7  -1  -2   11.79    0.31
   7  -1  -2   12.31    0.31
   7  -1  -2   12.10    0.35
   7  -1  -2   12.14    0.31
  -7   1   2   12.29    0.37
   6  -1  -2    0.97    0.09
   6  -1  -2    0.97    0.07
   6  -1  -2    1.23    0.09
  -6   1   2    0.96    0.09
   5  -1  -2    3.25    0.14
   5  -1  -2    3.09    0.10
   5  -1  -2    3.16    0.13
  -5   1   2    3.12    0.14
   4  -1  -2  137.14    2.89
   4  -1  -2  137.99    2.86
   4  -1  -2  136.19    2.90
  -4   1   2  136.45    2.90
   3  -1  -2   20.26    0.43
   3  -1  -2   20.23    0.45
   3  -1  -2   19.59    0.46
  -3   1   2   19.00    0.43
  -3   1   2   20.02    0.47
   2  -1  -2   95.43    2.00
   2  -1  -2   94.79    2.00
   2  -1  -2   95.29    2.00
   2  -1  -2   99.66    2.02
  -2   1   2   90.46    2.00
  -2   1   2   95.73    2.02
  -2   1   2   98.00    2.02
   1  -1  -2    6.09    0.14
   1  -1  -2    6.04    0.13
   1  -1  -2    6.06    0.15
   1  -1  -2    6.18    0.16
  -1   1   2    6.06    0.16
  -1   1   2    6.03    0.15
  -1   1   2    6.12    0.16
   0  -1  -2   75.63    1.57
   0  -1  -2   77.09    1.59
   0  -1  -2   76.28    1.61
   0   1   2   67.72    1.58
   0   1   2   76.42    2.04
   0   1   2   72.00    1.57
   0   1   2   78.37    1.57
  -1  -1  -2   95.65    1.94
  -1  -1  -2   88.24    1.94
   1   1   2   93.64    1.94
   1   1   2   90.60    2.00
   1   1   2   93.83    1.97
   1   1   2   87.19    1.92
  -2  -1  -2   29.05    0.62
  -2  -1  -2   28.09    0.60
  -2  -1  -2   28.47    0.63
   2   1   2   29.11    0.63
   2   1   2   28.55    0.62
   2   1   2   29.43    0.63
   2   1   2   28.65    0.62
   2   1   2   28.90    0.61
  -3  -1  -2   14.40    0.32
  -3  -1  -2   13.81    0.31
  -3  -1  -2   13.06    0.33
   3   1   2   13.98    0.33
   3   1   2   14.15    0.33
   3   1   2   14.43    0.33
   3   1   2   14.65    0.33
  -4  -1  -2    2.16    0.07
   4   1   2    2.14    0.09
   4   1   2    2.14    0.09
   4   1   2    2.20    0.08
   4   1   2    2.10    0.07
  -5  -1  -2    8.67    0.23
   5   1   2    9.04    0.25
   5   1   2    9.04    0.25
   5   1   2    9.00    0.24
   5   1   2    9.00    0.22
   6   1   2    8.95    0.23
   6   1   2    8.51    0.24
   6   1   2    8.76    0.27
   6   1   2    8.91    0.26
   7   1   2   14.79    0.36
   7   1   2   14.10    0.41
   7   1   2   14.55    0.40
   8   1   2    2.11    0.14
   8   1   2    2.16    0.11
   8   1   2    2.08    0.11
   8   1   2    2.14    0.11
   8   1   2    2.02    0.10
   9   1   2    0.46    0.07
   9   1   2    0.60    0.07
   9   1   2    0.46    0.06
  10   1   2    9.76    0.27
  10   1   2    9.41    0.28
  10   1   2    9.41    0.26
 -11  -1  -2    8.00    0.24
  11   1   2    7.65    0.23
 -12  -1  -2    1.53    0.09
  12   1   2    1.48    0.08
  11  -2  -2    0.81    0.07
  11  -2  -2    0.80    0.07
  10  -2  -2    4.61    0.17
  10  -2  -2    4.11    0.15
  10  -2  -2    4.64    0.17
   9  -2  -2    0.48    0.07
   9  -2  -2    0.43    0.06
   9  -2  -2    0.49    0.07
   9  -2  -2    0.44    0.06
   8  -2  -2    1.66    0.10
   8  -2  -2    1.65    0.11
   8  -2  -2    1.60    0.09
   8  -2  -2    1.80    0.10
   7  -2  -2    5.09    0.18
   7  -2  -2    5.16    0.17
   7  -2  -2    4.91    0.16
   7  -2  -2    4.90    0.20
  -7   2   2    5.27    0.21
   6  -2  -2    8.53    0.23
   6  -2  -2    8.49    0.26
   6  -2  -2    8.55    0.27
  -6   2   2    8.66    0.28
   5  -2  -2   40.88    0.91
   5  -2  -2   39.78    0.93
   5  -2  -2   40.48    0.88
  -5   2   2   41.55    0.94
   4  -2  -2  148.76    3.15
   4  -2  -2  152.98    3.19
   4  -2  -2  151.00    3.17
  -4   2   2  151.35    3.19
   3  -2  -2  295.14    6.24
   3  -2  -2  284.24    6.16
  -3   2   2  300.77    6.21
  -3   2   2  288.44    6.15
   2  -2  -2  295.12    5.94
   2  -2  -2  271.70    5.89
   2  -2  -2  276.23    5.86
  -2   2   2  288.07    5.96
  -2   2   2  266.76    5.94
  -2   2   2  270.59    5.92
   1  -2  -2    5.72    0.13
   1  -2  -2    5.45    0.15
   1  -2  -2    5.56    0.13
   1  -2  -2    5.79    0.15
  -1   2   2    5.54    0.15
  -1   2   2    5.68    0.16
  -1   2   2    5.96    0.15
   0  -2  -2   74.96    1.51
   0  -2  -2   69.70    1.52
   0  -2  -2   70.22    1.52
   0   2   2   70.94    1.52
   0   2   2   70.38    1.53
   0   2   2   75.55    1.52
  -1  -2  -2  141.99    3.05
  -1  -2  -2  140.17    2.99
  -1  -2  -2  140.76    2.98
   1   2   2  141.91    3.00
   1   2   2  142.03    3.06
   1   2   2  142.11    3.03
   1   2   2  135.72    2.94
  -2  -2  -2   14.19    0.34
  -2  -2  -2   14.26    0.32
   2   2   2   14.58    0.34
   2   2   2   14.91    0.33
   2   2   2   14.63    0.36
   2   2   2   14.45    0.32
   2   2   2   14.48    0.33
  -3  -2  -2   60.22    1.34
  -3  -2  -2   62.07    1.32
   3   2   2   65.35    1.36
   3   2   2   63.33    1.34
   3   2   2   60.95    1.33
   3   2   2   61.39    1.32
   3   2   2   63.92    1.33
  -4  -2  -2    8.66    0.22
   4   2   2    9.00    0.22
   4   2   2    8.78    0.23
   4   2   2    8.39    0.23
   4   2   2    8.82    0.23
   4   2   2    8.77    0.24
  -5  -2  -2    3.60    0.12
   5   2   2    3.79    0.13
   5   2   2    3.67    0.15
   5   2   2    3.80    0.12
   5   2   2    3.73    0.13
   6   2   2   54.26    1.19
   6   2   2   52.64    1.18
   6   2   2   53.05    1.22
   6   2   2   54.56    1.16
   7   2   2   28.58    0.69
   7   2   2   28.56    0.65
   7   2   2   27.86    0.74
   8   2   2   16.75    0.41
   8   2   2   16.63    0.47
   8   2   2   17.29    0.43
   8   2   2   16.67    0.41
  -9  -2  -2    1.66    0.11
   9   2   2    1.65    0.10
 -10  -2  -2    0.14    0.06
  10   2   2    0.17    0.05
 -11  -2  -2    7.50    0.23
  11   2   2    7.52    0.22
 -12  -2  -2    2.99    0.11
  12   2   2    2.88    0.10
  11  -3  -2    0.57    0.06
  11  -3  -2    0.52    0.05
  11  -3  -2    0.58    0.06
  10  -3  -2    2.50    0.12
  10  -3  -2    2.68    0.12
  10  -3  -2    2.61    0.13
   9  -3  -2    2.26    0.12
   9  -3  -2    2.37    0.12
   9  -3  -2    2.48    0.12
   9  -3  -2    2.45    0.13
   8  -3  -2   19.69    0.48
   8  -3  -2   19.19    0.49
   8  -3  -2   19.57    0.48
   8  -3  -2   20.62    0.49
   7  -3  -2    0.40    0.05
   7  -3  -2    0.45    0.07
   7  -3  -2    0.38    0.06
   7  -3  -2    0.42    0.05
   7  -3  -2    0.49    0.06
  -7   3   2    0.46    0.08
   6  -3  -2   24.47    0.56
   6  -3  -2   25.13    0.62
   6  -3  -2   24.66    0.60
  -6   3   2   24.50    0.62
   5  -3  -2   91.20    1.96
   5  -3  -2   93.79    1.97
   5  -3  -2   89.62    1.93
  -5   3   2   90.44    1.98
   4  -3  -2   47.19    1.01
   4  -3  -2   45.25    0.99
   4  -3  -2   47.87    1.03
  -4   3   2   45.51    1.03
   3  -3  -2  127.19    2.63
  -3   3   2  115.27    2.60
  -3   3   2  126.45    2.60
   2  -3  -2    1.32    0.06
   2  -3  -2    1.53    0.06
   2  -3  -2    1.48    0.05
  -2   3   2    1.42    0.05
  -2   3   2    1.69    0.07
  -2   3   2    1.43    0.07
   1  -3  -2    7.38    0.20
   1  -3  -2    8.08    0.21
   1  -3  -2    8.05    0.20
  -1   3   2    7.97    0.21
  -1   3   2    7.81    0.17
  -1   3   2    7.67    0.18
   0  -3  -2   90.27    1.81
   0  -3  -2   83.66    1.79
   0  -3  -2   81.55    1.77
   0   3   2   84.15    1.78
   0   3   2   82.43    1.77
   0   3   2   80.90    1.76
  -1  -3  -2    9.21    0.23
  -1  -3  -2    9.23    0.22
   1   3   2    8.71    0.20
   1   3   2    8.83    0.21
   1   3   2    8.98    0.22
   1   3   2    8.85    0.23
  -2  -3  -2    4.26    0.13
  -2  -3  -2    4.36    0.12
   2   3   2    4.22    0.12
   2   3   2    4.11    0.13
   2   3   2    4.28    0.12
   2   3   2    4.04    0.11
   2   3   2    4.12    0.13
  -3  -3  -2   58.48    1.24
  -3  -3  -2   56.02    1.26
   3   3   2   56.61    1.24
   3   3   2   58.78    1.23
   3   3   2   59.23    1.26
   3   3   2   57.70    1.26
   3   3   2   58.17    1.24
  -4  -3  -2    0.87    0.06
   4   3   2    0.91    0.06
   4   3   2    0.90    0.08
   4   3   2    0.84    0.06
   4   3   2    0.88    0.07
  -5  -3  -2   19.72    0.48
   5   3   2   20.68    0.48
   5   3   2   19.53    0.46
   5   3   2   20.14    0.51
   5   3   2   20.17    0.48
   6   3   2    4.28    0.14
   6   3   2    4.31    0.16
   6   3   2    4.10    0.15
   7   3   2    3.45    0.16
   7   3   2    3.29    0.12
  -8  -3  -2    3.17    0.14
   8   3   2    2.79    0.12
   8   3   2    3.09    0.12
  -9  -3  -2    0.46    0.07
   9   3   2    0.40    0.05
   9   3   2    0.45    0.06
 -10  -3  -2    1.99    0.12
  10   3   2    1.80    0.10
 -11  -3  -2    9.56    0.26
  11   3   2    9.07    0.25
 -12  -3  -2    2.69    0.10
  11  -4  -2    0.98    0.07
  11  -4  -2    1.10    0.07
  11  -4  -2    1.12    0.08
  10  -4  -2    2.05    0.11
  10  -4  -2    2.08    0.11
  10  -4  -2    1.85    0.10
   9  -4  -2    0.33    0.06
   9  -4  -2    0.26    0.06
   9  -4  -2    0.26    0.06
   9  -4  -2    0.34    0.06
   8  -4  -2    0.12    0.05
   8  -4  -2    0.29    0.05
   8  -4  -2    0.23    0.06
   8  -4  -2    0.15    0.05
   7  -4  -2    0.74    0.07
   7  -4  -2    0.84    0.08
   7  -4  -2    1.08    0.08
   7  -4  -2    0.85    0.07
  -7   4   2    0.76    0.10
   6  -4  -2   13.25    0.32
   6  -4  -2   13.20    0.37
   6  -4  -2   12.97    0.33
  -6   4   2   13.05    0.38
   5  -4  -2    5.80    0.16
   5  -4  -2    5.88    0.19
  -5   4   2    5.89    0.21
   4  -4  -2   25.41    0.58
   4  -4  -2   27.93    0.62
  -4   4   2   27.16    0.63
   3  -4  -2   14.67    0.35
  -3   4   2   14.30    0.36
  -3   4   2   14.23    0.36
   2  -4  -2   11.19    0.29
   2  -4  -2   11.03    0.27
  -2   4   2   10.95    0.29
   1  -4  -2   19.13    0.44
   1  -4  -2   19.24    0.45
  -1   4   2   18.61    0.41
  -1   4   2   19.06    0.45
   0  -4  -2   33.64    0.74
   0  -4  -2   33.16    0.74
   0   4   2   33.97    0.76
   0   4   2   33.43    0.72
  -1  -4  -2    6.08    0.17
  -1  -4  -2    6.03    0.17
   1   4   2    5.68    0.13
   1   4   2    6.12    0.18
   1   4   2    6.07    0.15
  -2  -4  -2   65.59    1.40
  -2  -4  -2   62.80    1.41
   2   4   2   67.58    1.39
   2   4   2   67.56    1.39
   2   4   2   65.51    1.42
   2   4   2   62.80    1.37
  -3  -4  -2    7.36    0.22
  -3  -4  -2    6.97    0.19
   3   4   2    6.47    0.18
   3   4   2    6.93    0.19
   3   4   2    6.62    0.21
   3   4   2    6.86    0.19
  -4  -4  -2    8.45    0.24
   4   4   2    8.42    0.26
   4   4   2    8.39    0.22
   4   4   2    8.55    0.23
  -5  -4  -2   11.86    0.32
   5   4   2   11.99    0.31
   5   4   2   11.71    0.31
   6   4   2    0.52    0.07
   6   4   2    0.56    0.07
  -7  -4  -2    0.25    0.05
   7   4   2    0.13    0.05
   7   4   2    0.23    0.04
  -8  -4  -2    0.91    0.09
   8   4   2    0.95    0.08
  -9  -4  -2    3.73    0.16
   9   4   2    3.76    0.14
 -10  -4  -2    0.90    0.09
 -11  -4  -2    0.42    0.06
  11  -5  -2    1.46    0.08
  11  -5  -2    1.48    0.08
  10  -5  -2    0.22    0.05
  10  -5  -2    0.25    0.05
   9  -5  -2    4.09    0.16
   9  -5  -2    4.14    0.16
   9  -5  -2    4.09    0.15
   8  -5  -2    3.57    0.15
   8  -5  -2    3.25    0.13
   8  -5  -2    3.45    0.15
   7  -5  -2    2.08    0.12
   7  -5  -2    2.06    0.11
   7  -5  -2    2.06    0.10
   6  -5  -2    0.96    0.07
   6  -5  -2    0.95    0.06
  -6   5   2    1.02    0.10
   5  -5  -2    1.40    0.09
   5  -5  -2    1.25    0.06
  -5   5   2    1.46    0.10
   4  -5  -2    3.99    0.11
   4  -5  -2    4.10    0.14
  -4   5   2    4.32    0.16
   3  -5  -2    1.00    0.04
   3  -5  -2    1.04    0.06
  -3   5   2    1.12    0.07
  -3   5   2    1.03    0.08
   2  -5  -2    2.16    0.11
   2  -5  -2    2.21    0.09
  -2   5   2    2.13    0.10
   1  -5  -2   30.24    0.69
   1  -5  -2   31.05    0.68
  -1   5   2   29.05    0.65
  -1   5   2   29.94    0.70
   0  -5  -2   11.36    0.30
   0  -5  -2   11.26    0.26
   0  -5  -2   11.39    0.29
   0   5   2   11.38    0.27
   0   5   2   11.61    0.31
  -1  -5  -2  108.55    2.33
  -1  -5  -2  112.47    2.36
  -1  -5  -2  113.03    2.36
   1   5   2  109.87    2.38
   1   5   2  110.93    2.33
  -2  -5  -2   65.55    1.42
  -2  -5  -2   64.89    1.43
  -2  -5  -2   64.47    1.39
   2   5   2   65.86    1.40
   2   5   2   65.76    1.44
   2   5   2   64.53    1.40
  -3  -5  -2   27.30    0.66
  -3  -5  -2   26.84    0.61
  -3  -5  -2   27.97    0.64
   3   5   2   26.92    0.65
   3   5   2   26.69    0.62
   3   5   2   27.53    0.62
  -4  -5  -2    4.78    0.17
   4   5   2    5.10    0.20
   4   5   2    4.81    0.16
   4   5   2    4.81    0.16
  -5  -5  -2    0.96    0.08
   5   5   2    1.50    0.09
   5   5   2    1.06    0.07
   6   5   2    5.28    0.16
   6   5   2    5.14    0.19
  -7  -5  -2   13.15    0.35
   7   5   2   13.19    0.33
  -8  -5  -2    7.76    0.24
   8   5   2    7.76    0.22
  -9  -5  -2    2.17    0.13
   9   5   2    2.03    0.10
 -10  -5  -2    0.86    0.09
  10   5   2    0.58    0.06
 -11  -5  -2    0.03    0.04
  11  -6  -2    0.86    0.06
  10  -6  -2    1.66    0.09
  10  -6  -2    1.79    0.10
   9  -6  -2    3.42    0.13
   9  -6  -2    3.50    0.14
   9  -6  -2    3.59    0.15
   8  -6  -2    6.47    0.22
   8  -6  -2    6.55    0.20
   8  -6  -2    6.72    0.21
   7  -6  -2    0.25    0.06
   7  -6  -2    0.31    0.05
   7  -6  -2    0.29    0.05
   6  -6  -2    1.87    0.10
   6  -6  -2    1.82    0.09
   6  -6  -2    2.19    0.11
  -6   6   2    1.79    0.13
   5  -6  -2    3.75    0.12
  -5   6   2    3.64    0.17
   4  -6  -2   31.08    0.68
   4  -6  -2   31.14    0.72
  -4   6   2   32.94    0.76
   3  -6  -2    0.86    0.06
   3  -6  -2    0.84    0.04
  -3   6   2    0.88    0.08
   2  -6  -2   11.13    0.31
   2  -6  -2   10.35    0.25
   2  -6  -2   10.74    0.28
  -2   6   2   10.63    0.31
   1  -6  -2    0.61    0.05
   1  -6  -2    0.44    0.06
   1  -6  -2    0.53    0.04
  -1   6   2    0.47    0.04
  -1   6   2    0.38    0.06
   0  -6  -2   13.82    0.35
   0  -6  -2   13.90    0.36
   0  -6  -2   13.07    0.32
   0   6   2   13.75    0.38
   0   6   2   13.37    0.32
  -1  -6  -2   15.44    0.37
  -1  -6  -2   15.77    0.41
  -1  -6  -2   15.98    0.41
   1   6   2   16.02    0.38
   1   6   2   15.62    0.43
  -2  -6  -2   14.61    0.35
  -2  -6  -2   14.73    0.38
  -2  -6  -2   14.34    0.39
   2   6   2   14.85    0.36
   2   6   2   13.99    0.36
   2   6   2   14.53    0.40
  -3  -6  -2    3.19    0.15
  -3  -6  -2    3.35    0.14
  -3  -6  -2    3.14    0.12
   3   6   2    3.32    0.13
   3   6   2    3.26    0.15
   3   6   2    3.13    0.13
  -4  -6  -2   20.50    0.53
   4   6   2   20.97    0.51
  -5  -6  -2    1.53    0.11
   5   6   2    1.63    0.09
  -6  -6  -2   33.42    0.73
   6   6   2   34.47    0.76
  -7  -6  -2    8.75    0.26
   7   6   2    8.87    0.25
  -8  -6  -2    0.48    0.07
   8   6   2    0.43    0.06
  -9  -6  -2    2.68    0.14
   9   6   2    2.69    0.11
 -10  -6  -2    0.25    0.05
  10   6   2    0.20    0.04
 -11  -6  -2    0.20    0.04
  10  -7  -2    1.82    0.09
  10  -7  -2    1.76    0.09
   9  -7  -2    0.12    0.05
   9  -7  -2    0.11    0.05
   8  -7  -2   11.88    0.32
   8  -7  -2   11.97    0.33
   8  -7  -2   11.48    0.30
   7  -7  -2    4.26    0.16
   7  -7  -2    4.18    0.17
   7  -7  -2    4.17    0.14
   6  -7  -2   16.33    0.39
   6  -7  -2   16.70    0.41
   6  -7  -2   16.81    0.43
   5  -7  -2    8.06    0.23
   5  -7  -2    8.06    0.24
   5  -7  -2    7.95    0.21
  -5   7   2    7.80    0.27
   4  -7  -2    2.60    0.12
   4  -7  -2    2.66    0.09
  -4   7   2    2.77    0.15
   3  -7  -2    0.21    0.04
   3  -7  -2    0.27    0.03
   3  -7  -2    0.19    0.06
  -3   7   2    0.21    0.06
   2  -7  -2   10.30    0.25
   2  -7  -2   10.50    0.29
   2  -7  -2   10.58    0.32
  -2   7   2   10.57    0.33
   1  -7  -2    1.56    0.11
   1  -7  -2    1.66    0.07
   1  -7  -2    1.47    0.09
  -1   7   2    1.50    0.11
   0  -7  -2    1.92    0.08
   0  -7  -2    1.96    0.10
   0  -7  -2    1.89    0.12
   0   7   2    1.94    0.09
   0   7   2    1.94    0.13
  -1  -7  -2   36.13    0.84
  -1  -7  -2   34.76    0.78
  -1  -7  -2   35.39    0.83
   1   7   2   34.56    0.80
   1   7   2   35.85    0.86
   1   7   2   35.13    0.79
  -2  -7  -2    4.07    0.18
  -2  -7  -2    4.57    0.18
  -2  -7  -2    4.32    0.15
   2   7   2    4.39    0.15
   2   7   2    4.32    0.20
   2   7   2    4.01    0.15
  -3  -7  -2    0.21    0.05
  -3  -7  -2    0.30    0.05
   3   7   2    0.22    0.06
   3   7   2    0.25    0.08
   3   7   2    0.39    0.06
  -4  -7  -2    3.39    0.16
   4   7   2    3.35    0.12
  -5  -7  -2    0.28    0.04
  -5  -7  -2    0.23    0.06
  -5  -7  -2    0.32    0.06
   5   7   2    0.28    0.05
  -6  -7  -2    2.30    0.08
  -6  -7  -2    2.34    0.12
   6   7   2    2.29    0.11
  -7  -7  -2    7.29    0.24
   7   7   2    7.66    0.22
  -8  -7  -2   16.98    0.43
   8   7   2   17.01    0.42
  -9  -7  -2    0.72    0.07
   9   7   2    0.49    0.06
 -10  -7  -2    0.55    0.06
  10   7   2    0.52    0.05
  10  -8  -2    4.65    0.19
  10  -8  -2    4.53    0.14
   9  -8  -2    0.23    0.05
   9  -8  -2    0.21    0.04
   8  -8  -2    4.37    0.17
   8  -8  -2    4.01    0.15
   8  -8  -2    4.13    0.16
   7  -8  -2    0.69    0.07
   7  -8  -2    0.66    0.07
   7  -8  -2    0.64    0.08
   6  -8  -2   11.37    0.29
   6  -8  -2   11.45    0.31
   5  -8  -2    2.17    0.12
   5  -8  -2    1.68    0.08
   5  -8  -2    1.61    0.11
   4  -8  -2    1.96    0.08
   4  -8  -2    1.88    0.11
  -4   8   2    1.93    0.13
   3  -8  -2    3.80    0.19
   3  -8  -2    3.79    0.12
   3  -8  -2    3.69    0.15
   2  -8  -2    6.57    0.18
   2  -8  -2    6.56    0.25
   1  -8  -2    5.27    0.19
   1  -8  -2    6.01    0.23
   1  -8  -2    5.62    0.16
   0  -8  -2   11.80    0.35
   0  -8  -2   12.91    0.38
   0  -8  -2   12.56    0.31
  -1  -8  -2    0.53    0.06
  -1  -8  -2    0.59    0.09
  -1  -8  -2    0.50    0.07
   1   8   2    0.60    0.06
   1   8   2    0.56    0.07
  -2  -8  -2   17.16    0.42
  -2  -8  -2   16.53    0.47
   2   8   2   16.00    0.39
  -3  -8  -2    6.04    0.20
  -3  -8  -2    5.82    0.21
  -3  -8  -2    6.09    0.24
  -3  -8  -2    6.05    0.20
   3   8   2    5.79    0.17
  -4  -8  -2    1.47    0.10
  -4  -8  -2    1.41    0.07
   4   8   2    1.50    0.09
  -5  -8  -2    1.09    0.10
  -5  -8  -2    1.02    0.06
   5   8   2    1.13    0.09
  -6  -8  -2    6.21    0.16
  -6  -8  -2    5.97    0.21
   6   8   2    6.27    0.19
  -7  -8  -2    1.61    0.11
   7   8   2    1.52    0.10
  -8  -8  -2    3.68    0.15
   8   8   2    3.37    0.13
  -9  -8  -2    0.26    0.05
   9   8   2    0.20    0.04
   9  -9  -2    2.63    0.10
   9  -9  -2    2.66    0.11
   8  -9  -2    1.18    0.08
   8  -9  -2    1.20    0.09
   7  -9  -2    1.33    0.09
   7  -9  -2    1.36    0.08
   7  -9  -2    1.48    0.10
   6  -9  -2    0.89    0.09
   6  -9  -2    0.83    0.07
   5  -9  -2    6.59    0.19
   5  -9  -2    6.81    0.22
   4  -9  -2   41.79    0.91
   4  -9  -2   40.97    0.94
   3  -9  -2   28.86    0.64
   3  -9  -2   27.28    0.68
   3  -9  -2   27.56    0.66
   2  -9  -2    0.14    0.05
   2  -9  -2    0.12    0.06
   2  -9  -2    0.14    0.04
   1  -9  -2    0.16    0.06
   1  -9  -2    0.29    0.06
   1  -9  -2    0.20    0.04
   1  -9  -2    0.26    0.07
   0  -9  -2    0.24    0.05
   0  -9  -2    0.34    0.06
   0  -9  -2    0.24    0.06
   0  -9  -2    0.29    0.07
  -1  -9  -2    3.61    0.15
  -1  -9  -2    3.94    0.15
  -1  -9  -2    3.75    0.20
  -1  -9  -2    3.80    0.17
  -2  -9  -2   30.60    0.70
  -2  -9  -2   28.98    0.72
  -2  -9  -2   29.59    0.70
   2   9   2   29.22    0.66
  -3  -9  -2    3.28    0.15
  -3  -9  -2    3.20    0.16
  -3  -9  -2    3.32    0.11
  -3  -9  -2    3.53    0.15
   3   9   2    3.31    0.13
  -4  -9  -2    1.30    0.10
  -4  -9  -2    1.36    0.08
   4   9   2    1.65    0.10
  -5  -9  -2   33.72    0.80
  -5  -9  -2   34.72    0.75
   5   9   2   34.71    0.78
  -6  -9  -2    5.85    0.20
  -6  -9  -2    5.78    0.15
   6   9   2    5.72    0.18
  -7  -9  -2   12.54    0.34
   7   9   2   13.36    0.33
  -8  -9  -2    0.66    0.06
   8   9   2    0.55    0.05
   8 -10  -2    0.21    0.04
   7 -10  -2    8.71    0.25
   6 -10  -2    3.73    0.15
   5 -10  -2    0.19    0.04
   5 -10  -2    0.14    0.06
   4 -10  -2   18.16    0.44
   4 -10  -2   18.68    0.47
   3 -10  -2    4.46    0.19
   3 -10  -2    4.59    0.17
   3 -10  -2    4.36    0.15
   2 -10  -2    6.54    0.20
   2 -10  -2    6.46    0.22
   2 -10  -2    6.17    0.24
   1 -10  -2   12.36    0.37
   1 -10  -2   12.40    0.33
   1 -10  -2   12.36    0.34
   0 -10  -2    3.78    0.16
   0 -10  -2    4.12    0.16
   0 -10  -2    4.09    0.19
  -1 -10  -2    0.31    0.06
  -1 -10  -2    0.36    0.07
  -1 -10  -2    0.40    0.07
  -2 -10  -2   18.75    0.48
  -2 -10  -2   18.24    0.50
  -2 -10  -2   18.81    0.44
  -2 -10  -2   18.63    0.47
   2  10   2   18.52    0.44
  -3 -10  -2   11.86    0.29
  -3 -10  -2   11.35    0.33
  -3 -10  -2   11.83    0.33
  -3 -10  -2   12.07    0.36
   3  10   2   11.72    0.30
  -4 -10  -2   12.60    0.35
  -4 -10  -2   12.99    0.31
   4  10   2   12.98    0.33
  -5 -10  -2    2.93    0.10
  -5 -10  -2    2.74    0.13
   5  10   2    2.78    0.12
  -6 -10  -2    3.30    0.14
   6  10   2    3.37    0.12
  -7 -10  -2    3.36    0.13
   7  10   2    3.60    0.12
   7 -11  -2    7.42    0.21
   6 -11  -2    8.95    0.25
   5 -11  -2   13.41    0.35
   4 -11  -2   30.39    0.70
   4 -11  -2   31.51    0.72
   3 -11  -2    0.16    0.05
   3 -11  -2    0.12    0.06
   3 -11  -2    0.13    0.04
   2 -11  -2    0.44    0.07
   2 -11  -2    0.44    0.08
   2 -11  -2    0.35    0.06
   1 -11  -2    0.30    0.06
   1 -11  -2    0.33    0.08
   1 -11  -2    0.21    0.05
   0 -11  -2    3.17    0.15
   0 -11  -2    3.09    0.17
   0 -11  -2    3.00    0.14
  -1 -11  -2    2.29    0.13
  -1 -11  -2    2.55    0.13
  -1 -11  -2    2.50    0.16
  -2 -11  -2    0.38    0.05
  -2 -11  -2    0.30    0.06
  -2 -11  -2    0.36    0.08
  -2 -11  -2    0.35    0.06
  -3 -11  -2    3.79    0.18
  -3 -11  -2    3.90    0.16
  -3 -11  -2    3.93    0.13
   3  11   2    3.76    0.13
  -4 -11  -2    1.78    0.08
  -4 -11  -2    1.73    0.10
   4  11   2    1.63    0.09
  -5 -11  -2    0.27    0.05
  -5 -11  -2    0.25    0.03
   5  11   2    0.27    0.04
  -6 -11  -2    2.22    0.10
   6  11   2    2.35    0.09
   6 -12  -2    9.36    0.25
   5 -12  -2   16.43    0.40
   4 -12  -2    7.75    0.22
   3 -12  -2    0.33    0.07
   3 -12  -2    0.24    0.05
   2 -12  -2    0.69    0.07
   2 -12  -2    0.61    0.09
   1 -12  -2    0.65    0.07
   1 -12  -2    0.65    0.09
   0 -12  -2    3.06    0.17
   0 -12  -2    3.08    0.13
  -1 -12  -2   16.15    0.41
  -1 -12  -2   16.07    0.38
  -1 -12  -2   17.19    0.45
  -2 -12  -2    0.22    0.05
  -2 -12  -2    0.20    0.03
  -2 -12  -2    0.28    0.07
  -3 -12  -2    6.87    0.18
  -3 -12  -2    6.61    0.20
  -3 -12  -2    6.71    0.23
  -4 -12  -2    0.85    0.05
   4  12   2    0.96    0.06
   3 -13  -2    0.21    0.05
   2 -13  -2    1.13    0.10
   1 -13  -2    0.99    0.10
   0 -13  -2    9.71    0.28
   0 -13  -2    9.00    0.22
  -1 -13  -2    0.18    0.03
  -1 -13  -2    0.11    0.06
  -2 -13  -2    1.98    0.12
  -2 -13  -2    1.94    0.07
  -3 -13  -2    5.22    0.13
  -2 -11   3    5.28    0.13
  -1 -11   3    0.14    0.02
  -1 -11   3    0.16    0.05
   0 -11   3    3.11    0.14
   1 -11   3    0.72    0.08
   2 -11   3    0.22    0.05
   3 -11   3    5.35    0.18
   4  10  -3    1.80    0.08
  -4 -10   3    1.84    0.06
   3  10  -3    3.37    0.12
  -3 -10   3    3.43    0.10
   2  10  -3    0.27    0.04
  -2 -10   3    0.17    0.05
  -2 -10   3    0.21    0.03
   1  10  -3    0.37    0.05
  -1 -10   3    0.34    0.07
   0 -10   3   14.13    0.36
   0 -10   3   14.33    0.40
   1 -10   3    2.81    0.12
   1 -10   3    2.98    0.15
   2 -10   3    5.66    0.21
   3 -10   3    3.69    0.17
   4 -10   3    1.09    0.09
   5   9  -3    0.48    0.05
  -5  -9   3    0.33    0.03
   4   9  -3    2.94    0.11
  -4  -9   3    2.94    0.09
   3   9  -3    1.48    0.09
  -3  -9   3    1.34    0.07
  -3  -9   3    1.31    0.10
  -2  -9   3    0.57    0.07
  -2  -9   3    0.56    0.08
  -2  -9   3    0.56    0.05
  -1  -9   3    2.16    0.14
  -1  -9   3    1.94    0.11
  -1  -9   3    1.90    0.11
   0  -9   3    0.19    0.05
   0  -9   3    0.19    0.05
   0  -9   3    0.27    0.07
   1  -9   3    0.34    0.08
   1  -9   3    0.26    0.05
   1  -9   3    0.26    0.05
   2  -9   3    4.04    0.14
   2  -9   3    4.23    0.16
   2  -9   3    4.17    0.19
   3  -9   3    8.90    0.28
   3  -9   3    7.69    0.22
   4  -9   3   16.05    0.43
   6   8  -3    0.37    0.04
   5   8  -3    0.64    0.06
  -5  -8   3    0.54    0.05
   4   8  -3   10.64    0.29
  -4  -8   3   11.19    0.27
  -3  -8   3    0.19    0.05
  -3  -8   3    0.15    0.06
  -3  -8   3    0.27    0.04
  -2  -8   3    0.19    0.06
  -2  -8   3    0.24    0.06
  -2  -8   3    0.17    0.06
  -1  -8   3    3.36    0.17
  -1  -8   3    3.39    0.15
  -1  -8   3    3.53    0.15
   0  -8   3    8.31    0.24
   0  -8   3    8.21    0.25
   0  -8   3    8.25    0.28
   1  -8   3    1.74    0.09
   1  -8   3    1.75    0.13
   1  -8   3    1.81    0.11
   2  -8   3   13.81    0.36
   2  -8   3   13.37    0.34
   2  -8   3   13.92    0.39
   3  -8   3    0.69    0.09
   4  -8   3    4.20    0.18
   7   7  -3    3.02    0.10
   6   7  -3    2.36    0.11
   5   7  -3    3.04    0.13
  -5  -7   3    3.09    0.10
   4   7  -3   20.77    0.49
  -4  -7   3   20.42    0.47
  -3  -7   3    0.60    0.07
  -3  -7   3    0.59    0.08
  -3  -7   3    0.59    0.08
  -3  -7   3    0.69    0.06
  -2  -7   3    7.18    0.23
  -2  -7   3    7.35    0.25
  -1  -7   3    0.14    0.05
  -1  -7   3    0.12    0.05
  -1  -7   3    0.14    0.04
   0  -7   3    4.30    0.15
   0  -7   3    4.04    0.15
   0  -7   3    4.07    0.23
   0  -7   3    4.01    0.18
   1  -7   3   14.42    0.37
   1  -7   3   14.63    0.36
   1  -7   3   14.61    0.40
   1  -7   3   14.26    0.44
   2  -7   3    0.38    0.05
   2  -7   3    0.35    0.04
   2  -7   3    0.32    0.06
   3  -7   3    1.29    0.09
   3  -7   3    1.31    0.11
   4  -7   3    0.37    0.07
   7   6  -3    0.02    0.03
   6   6  -3    9.29    0.25
  -6  -6   3    8.96    0.22
   5   6  -3   93.84    2.00
  -5  -6   3   93.85    1.98
  -4  -6   3   61.17    1.36
  -4  -6   3   61.80    1.32
  -3  -6   3    1.62    0.10
  -3  -6   3    1.87    0.11
  -3  -6   3    1.54    0.07
  -2  -6   3    0.65    0.07
  -2  -6   3    0.66    0.08
  -2  -6   3    0.62    0.09
  -2  -6   3    0.71    0.07
  -1  -6   3    0.31    0.05
  -1  -6   3    0.18    0.04
  -1  -6   3    0.23    0.06
   0  -6   3    5.15    0.16
   0  -6   3    5.10    0.21
   1  -6   3    1.26    0.11
   1  -6   3    1.10    0.06
   1  -6   3    1.17    0.08
   2  -6   3    0.10    0.05
   2  -6   3    0.09    0.04
   3  -6   3    0.44    0.06
   9  -6   3    7.37    0.21
  10  -6   3    8.04    0.22
   6   5  -3    5.56    0.18
  -6  -5   3    5.44    0.14
   5   5  -3   15.30    0.38
  -5  -5   3   16.03    0.36
   4   5  -3   16.67    0.45
  -4  -5   3   16.21    0.50
  -4  -5   3   16.98    0.42
  -4  -5   3   17.18    0.39
   3   5  -3   24.90    0.60
  -3  -5   3   24.75    0.59
  -3  -5   3   24.60    0.58
  -3  -5   3   24.14    0.64
   2   5  -3    0.17    0.05
   2   5  -3    0.21    0.05
   2   5  -3    0.19    0.04
  -2  -5   3    0.15    0.05
  -2  -5   3    0.23    0.04
  -2  -5   3    0.24    0.04
  -2  -5   3    0.21    0.06
   1   5  -3   25.78    0.62
   1   5  -3   26.58    0.68
   1   5  -3   26.76    0.63
   1   5  -3   26.16    0.62
  -1  -5   3   27.13    0.61
  -1  -5   3   27.67    0.67
  -1  -5   3   26.50    0.66
  -1  -5   3   26.64    0.71
   0   5  -3   28.80    0.68
   0   5  -3   29.38    0.73
   0   5  -3   29.47    0.68
   0   5  -3   29.61    0.67
   0  -5   3   29.37    0.72
   0  -5   3   29.04    0.70
   0  -5   3   30.23    0.77
   0  -5   3   29.69    0.65
  -1   5  -3    6.17    0.17
  -1   5  -3    6.23    0.19
  -1   5  -3    6.23    0.19
   1  -5   3    5.97    0.21
   1  -5   3    6.24    0.19
   1  -5   3    6.12    0.16
   1  -5   3    6.35    0.26
  -2   5  -3   30.35    0.69
  -2   5  -3   29.51    0.68
  -2   5  -3   30.15    0.65
   2  -5   3   29.66    0.72
   2  -5   3   29.56    0.77
   2  -5   3   29.47    0.67
  -3   5  -3   17.44    0.43
  -3   5  -3   17.53    0.48
  -3   5  -3   17.41    0.43
   3  -5   3   17.31    0.39
   3  -5   3   17.39    0.51
  -4   5  -3    0.89    0.07
  -4   5  -3    1.04    0.09
  -4   5  -3    0.93    0.10
   7  -5   3    7.98    0.23
   8  -5   3    1.42    0.10
   8  -5   3    1.20    0.11
   9  -5   3    6.76    0.21
   9  -5   3    6.60    0.21
  10  -5   3    6.03    0.19
  10  -5   3    6.22    0.19
  11  -5   3    0.14    0.04
   8   4  -3    1.65    0.10
   7   4  -3    1.10    0.08
   6   4  -3   40.82    0.91
  -6  -4   3   41.41    0.88
   5   4  -3   27.25    0.63
   5   4  -3   28.80    0.69
  -5  -4   3   26.90    0.73
  -5  -4   3   28.49    0.61
   4   4  -3   29.49    0.70
  -4  -4   3   29.09    0.73
  -4  -4   3   28.34    0.66
   3   4  -3    0.86    0.08
   3   4  -3    1.00    0.08
   3   4  -3    0.97    0.07
  -3  -4   3    1.03    0.07
  -3  -4   3    1.18    0.13
  -3  -4   3    1.04    0.10
   2   4  -3   33.87    0.77
   2   4  -3   33.24    0.76
   2   4  -3   32.57    0.76
  -2  -4   3   34.37    0.80
  -2  -4   3   33.68    0.75
  -2  -4   3   33.43    0.80
  -2  -4   3   32.95    0.83
   1   4  -3   87.07    1.86
   1   4  -3   86.20    1.85
   1   4  -3   86.78    1.85
  -1  -4   3   85.02    1.84
  -1  -4   3   85.48    1.93
  -1  -4   3   88.59    1.89
  -1  -4   3   87.61    1.89
   0   4  -3    6.76    0.19
   0   4  -3    6.75    0.20
   0   4  -3    6.52    0.18
   0  -4   3    6.90    0.25
   0  -4   3    6.80    0.22
   0  -4   3    6.67    0.17
   0  -4   3    6.91    0.21
  -1   4  -3    3.15    0.11
  -1   4  -3    3.17    0.10
  -1   4  -3    3.08    0.11
   1  -4   3    3.24    0.11
   1  -4   3    2.91    0.15
   1  -4   3    2.82    0.09
   1  -4   3    3.15    0.13
  -2   4  -3   38.49    0.84
  -2   4  -3   37.33    0.84
   2  -4   3   38.11    0.91
   2  -4   3   37.17    0.86
   2  -4   3   37.97    0.83
  -3   4  -3    0.55    0.05
  -3   4  -3    0.54    0.05
   3  -4   3    0.48    0.07
   3  -4   3    0.49    0.03
   3  -4   3    0.44    0.07
  -4   4  -3    4.72    0.15
   4  -4   3    4.72    0.17
   4  -4   3    4.48    0.19
   4  -4   3    4.67    0.17
   5  -4   3    7.37    0.24
   6  -4   3    8.49    0.23
   6  -4   3    8.36    0.28
   7  -4   3    0.30    0.05
   7  -4   3    0.23    0.05
   7  -4   3    0.20    0.06
   8  -4   3    0.52    0.07
   8  -4   3    0.57    0.07
   9  -4   3    3.71    0.13
   9  -4   3    3.80    0.16
   9  -4   3    3.88    0.15
  10  -4   3    2.56    0.13
  10  -4   3    2.43    0.12
  11  -4   3    1.15    0.08
  11  -4   3    1.14    0.08
  10   3  -3    0.79    0.06
   9   3  -3    1.51    0.09
   8   3  -3    1.92    0.11
   7   3  -3   10.62    0.28
   6   3  -3    2.11    0.10
   5   3  -3    0.87    0.09
   5   3  -3    0.95    0.07
  -5  -3   3    0.85    0.10
   4   3  -3   16.29    0.42
   4   3  -3   15.77    0.40
  -4  -3   3   16.11    0.44
   3   3  -3    9.02    0.25
   3   3  -3    8.82    0.26
   3   3  -3    9.21    0.26
  -3  -3   3    8.99    0.29
  -3  -3   3    9.37    0.28
  -3  -3   3    8.89    0.29
  -3  -3   3    9.19    0.24
   2   3  -3   27.45    0.64
   2   3  -3   28.07    0.63
   2   3  -3   27.82    0.64
  -2  -3   3   28.74    0.67
  -2  -3   3   27.47    0.69
  -2  -3   3   27.79    0.63
  -2  -3   3   28.19    0.67
   1   3  -3   32.10    0.71
   1   3  -3   31.94    0.72
   1   3  -3   31.73    0.71
  -1  -3   3   31.80    0.70
  -1  -3   3   31.97    0.74
  -1  -3   3   32.37    0.74
  -1  -3   3   32.24    0.77
   0   3  -3   66.77    1.39
   0   3  -3   63.88    1.39
   0   3  -3   66.04    1.40
   0  -3   3   66.13    1.41
   0  -3   3   62.67    1.37
   0  -3   3   66.09    1.46
   0  -3   3   64.85    1.41
  -1   3  -3   88.87    1.88
  -1   3  -3   90.24    1.88
  -1   3  -3   90.84    1.86
   1  -3   3   86.32    1.94
   1  -3   3   86.58    1.89
   1  -3   3   89.31    1.88
  -2   3  -3  106.62    2.24
  -2   3  -3  106.80    2.24
   2  -3   3  102.94    2.25
   2  -3   3  106.78    2.22
   2  -3   3  107.06    2.30
   2  -3   3  105.10    2.25
   3  -3   3    3.51    0.10
   3  -3   3    4.04    0.16
   3  -3   3    3.66    0.14
   3  -3   3    3.51    0.13
   3  -3   3    2.85    0.12
   4  -3   3    8.04    0.23
   4  -3   3    8.00    0.24
   4  -3   3    7.61    0.25
   5  -3   3   28.41    0.67
   5  -3   3   28.30    0.61
   5  -3   3   26.88    0.65
  -6   3  -3   46.48    0.99
   6  -3   3   45.76    1.01
   6  -3   3   46.41    1.07
   7  -3   3   13.98    0.41
   7  -3   3   14.41    0.36
   7  -3   3   13.78    0.36
   8  -3   3    0.30    0.06
   8  -3   3    0.10    0.03
   8  -3   3    0.14    0.05
   9  -3   3   29.17    0.67
   9  -3   3   29.48    0.70
   9  -3   3   30.19    0.70
   9  -3   3   30.44    0.70
  10  -3   3    3.88    0.16
  10  -3   3    3.72    0.15
  10  -3   3    3.58    0.14
  10  -3   3    3.49    0.14
  11  -3   3    0.66    0.07
  11  -3   3    0.70    0.07
  11  -3   3    0.74    0.07
  12  -3   3    0.36    0.06
  12  -3   3    0.39    0.05
  10   2  -3    2.36    0.10
   9   2  -3    2.23    0.11
   8   2  -3    0.08    0.05
   7   2  -3    6.51    0.20
   6   2  -3   22.42    0.57
   6   2  -3   22.06    0.52
  -6  -2   3   21.74    0.59
   5   2  -3    4.92    0.18
  -5  -2   3    4.85    0.20
   4   2  -3   13.68    0.35
   4   2  -3   12.95    0.33
  -4  -2   3   13.01    0.37
   3   2  -3    8.82    0.24
   3   2  -3    8.71    0.24
   3   2  -3    8.78    0.23
  -3  -2   3    8.43    0.23
  -3  -2   3    8.31    0.26
  -3  -2   3    8.59    0.27
  -3  -2   3    8.86    0.26
   2   2  -3    0.35    0.05
   2   2  -3    0.42    0.04
   2   2  -3    0.42    0.04
  -2  -2   3    0.31    0.05
  -2  -2   3    0.47    0.06
  -2  -2   3    0.37    0.04
  -2  -2   3    0.43    0.06
   1   2  -3   22.73    0.51
   1   2  -3   22.29    0.50
   1   2  -3   22.53    0.50
  -1  -2   3   21.93    0.49
  -1  -2   3   22.22    0.55
  -1  -2   3   22.08    0.52
  -1  -2   3   21.98    0.52
   0   2  -3    9.25    0.23
   0   2  -3    9.49    0.24
   0   2  -3    9.40    0.23
   0  -2   3    9.56    0.27
   0  -2   3    9.25    0.24
   0  -2   3    9.38    0.24
  -1   2  -3   53.55    1.14
  -1   2  -3   54.76    1.12
   1  -2   3   51.52    1.15
   1  -2   3   52.12    1.14
   1  -2   3   54.39    1.14
   1  -2   3   53.25    1.19
   2  -2   3   10.24    0.24
   2  -2   3   10.74    0.29
   2  -2   3   10.09    0.25
   2  -2   3    9.67    0.24
   2  -2   3   10.54    0.26
   2  -2   3   10.49    0.27
   3  -2   3    0.36    0.05
   3  -2   3    0.28    0.03
   3  -2   3    0.42    0.05
   3  -2   3    0.29    0.04
   3  -2   3    0.26    0.03
   3  -2   3    0.25    0.03
   4  -2   3   43.70    0.92
   4  -2   3   44.03    0.97
   4  -2   3   41.55    0.97
   4  -2   3   43.22    0.95
  -5   2  -3    7.55    0.18
   5  -2   3    7.68    0.20
   5  -2   3    7.70    0.23
   5  -2   3    7.39    0.22
  -6   2  -3   17.79    0.41
   6  -2   3   17.80    0.43
   6  -2   3   17.72    0.47
   7  -2   3    3.83    0.14
   7  -2   3    3.68    0.17
   7  -2   3    3.84    0.12
   8  -2   3   16.09    0.41
   8  -2   3   16.06    0.38
   8  -2   3   16.41    0.40
   8  -2   3   15.60    0.40
   9  -2   3    0.99    0.09
   9  -2   3    1.26    0.11
   9  -2   3    1.04    0.09
   9  -2   3    1.11    0.08
  10  -2   3    8.73    0.25
  10  -2   3    9.27    0.27
  10  -2   3    8.63    0.26
  10  -2   3    9.27    0.26
  11  -2   3    2.58    0.12
  11  -2   3    2.50    0.11
  11  -2   3    2.74    0.13
 -12   2  -3    1.53    0.08
  12  -2   3    1.45    0.08
  12  -2   3    1.49    0.08
  11   1  -3    0.22    0.04
  10   1  -3    4.96    0.16
 -10  -1   3    4.80    0.16
   9   1  -3    0.02    0.04
  -9  -1   3    0.11    0.05
   8   1  -3    5.11    0.18
   7   1  -3    4.19    0.15
   7   1  -3    4.28    0.16
   6   1  -3    3.93    0.17
  -6  -1   3    3.88    0.19
   5   1  -3    2.10    0.11
  -5  -1   3    2.10    0.12
   4   1  -3    4.45    0.16
  -4  -1   3    4.26    0.17
   3   1  -3    1.35    0.06
   3   1  -3    1.28    0.07
   3   1  -3    1.26    0.07
  -3  -1   3    1.29    0.08
  -3  -1   3    1.17    0.08
  -3  -1   3    1.40    0.08
   2   1  -3   44.30    0.96
   2   1  -3   44.02    0.94
   2   1  -3   43.38    0.95
  -2  -1   3   44.61    0.98
  -2  -1   3   41.46    0.98
  -2  -1   3   45.15    0.97
   1   1  -3    0.21    0.03
   1   1  -3    0.27    0.04
   1   1  -3    0.19    0.03
   1   1  -3    0.17    0.02
  -1  -1   3    0.21    0.03
  -1  -1   3    0.22    0.03
  -1  -1   3    0.26    0.04
   0   1  -3   90.00    1.87
   0   1  -3   87.53    1.86
   0   1  -3   88.02    1.84
   0  -1   3   85.50    1.84
   0  -1   3   91.53    1.85
   0  -1   3   87.90    1.84
   0  -1   3   81.35    1.85
   0  -1   3   87.73    1.87
  -1   1  -3    4.91    0.12
  -1   1  -3    4.83    0.13
   1  -1   3    5.18    0.14
   1  -1   3    5.03    0.16
   1  -1   3    4.49    0.13
   1  -1   3    4.67    0.13
   1  -1   3    4.96    0.14
  -2   1  -3   35.29    0.71
   2  -1   3   32.21    0.72
   2  -1   3   32.00    0.72
   2  -1   3   34.16    0.72
   2  -1   3   34.11    0.76
   2  -1   3   33.52    0.74
   2  -1   3   34.06    0.74
  -3   1  -3   40.65    0.89
   3  -1   3   41.97    0.91
   3  -1   3   39.78    0.89
   3  -1   3   41.57    0.92
   3  -1   3   42.86    0.91
   3  -1   3   42.70    0.89
  -4   1  -3    6.07    0.15
   4  -1   3    5.61    0.18
   4  -1   3    5.80    0.17
   4  -1   3    6.09    0.18
   4  -1   3    6.16    0.16
  -5   1  -3   14.12    0.32
   5  -1   3   13.25    0.30
   5  -1   3   14.16    0.34
   5  -1   3   13.14    0.34
   5  -1   3   14.19    0.36
   6  -1   3    4.00    0.14
   6  -1   3    3.90    0.14
   6  -1   3    3.81    0.16
   6  -1   3    3.88    0.11
   7  -1   3    0.09    0.05
   7  -1   3    0.15    0.03
   7  -1   3    0.22    0.05
   7  -1   3    0.15    0.04
   8  -1   3    2.53    0.11
   8  -1   3    2.25    0.11
   8  -1   3    2.31    0.11
   8  -1   3    2.47    0.12
   8  -1   3    2.42    0.15
   9  -1   3    0.23    0.05
   9  -1   3    0.32    0.06
   9  -1   3    0.34    0.06
   9  -1   3    0.30    0.06
  10  -1   3    5.12    0.19
  10  -1   3    5.34    0.18
  10  -1   3    5.07    0.18
  10  -1   3    5.17    0.18
  11  -1   3    1.62    0.11
  11  -1   3    1.61    0.10
  11  -1   3    1.51    0.10
 -12   1  -3    2.42    0.10
  12  -1   3    2.64    0.10
  12  -1   3    2.66    0.11
  11   0  -3    7.80    0.20
 -11   0   3    7.69    0.20
  10   0  -3    0.10    0.04
 -10   0   3    0.06    0.04
   9   0  -3    5.76    0.19
   9   0  -3    5.37    0.19
   8   0  -3    1.26    0.09
   8   0  -3    0.98    0.09
   7   0  -3    3.16    0.17
   7   0  -3    3.13    0.13
   7   0  -3    3.37    0.13
  -7   0   3    3.06    0.17
   6   0  -3    4.95    0.19
  -6   0   3    5.13    0.21
   5   0  -3    2.76    0.13
   5   0  -3    2.66    0.10
  -5   0   3    2.64    0.13
   4   0  -3   18.37    0.44
   4   0  -3   17.69    0.48
   4   0  -3   17.30    0.41
  -4   0   3   18.01    0.45
   3   0  -3   38.43    0.87
   3   0  -3   36.57    0.82
   3   0  -3   38.40    0.84
  -3   0   3   38.70    0.85
  -3   0   3   39.57    0.86
   2   0  -3   12.99    0.33
   2   0  -3   12.88    0.31
  -2   0   3   13.04    0.32
  -2   0   3   13.03    0.32
  -2   0   3   13.28    0.33
   1   0  -3    4.71    0.12
   1   0  -3    5.02    0.14
   1   0  -3    5.10    0.13
   1   0  -3    4.76    0.13
  -1   0   3    4.86    0.14
  -1   0   3    4.74    0.15
  -1   0   3    4.95    0.15
   0   0  -3   80.12    1.69
   0   0  -3   81.53    1.70
   0   0  -3   81.60    1.72
   0   0   3   80.39    1.69
   0   0   3   78.41    1.71
   0   0   3   79.54    1.69
   0   0   3   80.31    1.70
  -1   0  -3    0.41    0.03
   1   0   3    0.38    0.03
   1   0   3    0.34    0.04
   1   0   3    0.38    0.03
   1   0   3    0.40    0.04
   1   0   3    0.37    0.02
   1   0   3    0.34    0.03
  -2   0  -3    8.52    0.19
   2   0   3    8.24    0.21
   2   0   3    8.65    0.21
   2   0   3    8.56    0.23
   2   0   3    8.26    0.21
   2   0   3    7.91    0.21
  -3   0  -3    4.66    0.12
  -3   0  -3    4.74    0.12
   3   0   3    4.81    0.14
   3   0   3    5.16    0.14
   3   0   3    4.91    0.14
   3   0   3    4.81    0.15
  -4   0  -3   16.60    0.37
   4   0   3   16.13    0.38
   4   0   3   16.48    0.39
   4   0   3   15.49    0.38
   4   0   3   16.10    0.38
  -5   0  -3   31.77    0.70
   5   0   3   32.61    0.73
   5   0   3   31.60    0.73
   5   0   3   31.81    0.72
   5   0   3   32.27    0.69
   6   0   3    0.25    0.05
   6   0   3    0.35    0.05
   6   0   3    0.27    0.05
   6   0   3    0.44    0.04
   7   0   3    6.04    0.22
   7   0   3    6.08    0.22
   7   0   3    6.36    0.18
   7   0   3    5.76    0.18
   8   0   3    0.34    0.06
   8   0   3    0.26    0.05
   8   0   3    0.46    0.06
   8   0   3    0.32    0.05
   8   0   3    0.41    0.08
   9   0   3    3.44    0.15
   9   0   3    3.22    0.14
   9   0   3    3.32    0.14
   9   0   3    3.27    0.14
  10   0   3   12.33    0.33
  10   0   3   11.65    0.33
  10   0   3   11.79    0.32
  10   0   3   11.89    0.32
 -11   0  -3    3.69    0.15
  11   0   3    3.72    0.15
  11   0   3    3.81    0.14
 -12   0  -3    0.17    0.04
  12   0   3    0.17    0.04
  12   0   3    0.11    0.04
  11  -1  -3    1.57    0.08
 -11   1   3    1.49    0.08
  10  -1  -3    0.75    0.07
  10  -1  -3    0.72    0.07
   9  -1  -3    0.49    0.07
   9  -1  -3    0.43    0.06
   8  -1  -3    0.19    0.05
   8  -1  -3    0.20    0.05
   7  -1  -3    0.44    0.06
   7  -1  -3    0.26    0.03
   7  -1  -3    0.33    0.06
   7  -1  -3    0.26    0.05
   7  -1  -3    0.29    0.06
  -7   1   3    0.23    0.07
   6  -1  -3    6.49    0.19
   6  -1  -3    6.49    0.22
  -6   1   3    6.10    0.23
   5  -1  -3   95.22    1.99
   5  -1  -3   88.63    2.02
   5  -1  -3   91.50    1.96
  -5   1   3   94.26    2.01
   4  -1  -3    2.46    0.10
   4  -1  -3    2.26    0.08
   4  -1  -3    2.41    0.12
  -4   1   3    2.29    0.11
   3  -1  -3   29.67    0.65
   3  -1  -3   29.48    0.67
  -3   1   3   29.77    0.67
  -3   1   3   27.68    0.65
   2  -1  -3    3.93    0.11
   2  -1  -3    3.79    0.09
   2  -1  -3    3.79    0.11
   2  -1  -3    4.03    0.13
  -2   1   3    3.92    0.13
  -2   1   3    3.82    0.13
  -2   1   3    3.88    0.12
   1  -1  -3   12.55    0.29
   1  -1  -3   12.63    0.28
   1  -1  -3   12.62    0.29
   1  -1  -3   12.89    0.31
  -1   1   3   13.14    0.31
  -1   1   3   12.19    0.31
  -1   1   3   12.77    0.28
  -1   1   3   12.13    0.30
   0  -1  -3   30.19    0.65
   0  -1  -3   30.53    0.64
   0  -1  -3   29.11    0.63
   0   1   3   29.77    0.66
   0   1   3   29.51    0.63
   0   1   3   28.38    0.65
  -1  -1  -3    0.84    0.04
  -1  -1  -3    0.77    0.04
   1   1   3    0.86    0.04
   1   1   3    0.91    0.04
   1   1   3    0.85    0.03
   1   1   3    0.87    0.05
  -2  -1  -3  319.56    7.35
  -2  -1  -3  350.97    7.36
   2   1   3  349.22    7.41
   2   1   3  365.05    7.37
   2   1   3  348.39    7.50
   2   1   3  363.68    7.37
  -3  -1  -3   84.64    1.77
   3   1   3   84.24    1.78
   3   1   3   82.18    1.79
   3   1   3   84.33    1.78
   3   1   3   85.12    1.78
  -4  -1  -3    0.29    0.03
   4   1   3    0.31    0.04
   4   1   3    0.34    0.04
   4   1   3    0.28    0.04
   4   1   3    0.28    0.03
   4   1   3    0.31    0.04
   5   1   3    1.58    0.08
   5   1   3    1.50    0.09
   5   1   3    1.54    0.06
   5   1   3    1.53    0.09
   6   1   3    0.83    0.06
   6   1   3    0.79    0.08
   6   1   3    0.76    0.07
   6   1   3    0.80    0.08
   7   1   3    4.06    0.18
   7   1   3    4.42    0.18
   7   1   3    4.03    0.16
   7   1   3    4.08    0.14
   8   1   3    4.13    0.15
   8   1   3    4.35    0.16
   8   1   3    4.35    0.20
   8   1   3    4.24    0.15
   8   1   3    4.56    0.16
   8   1   3    4.29    0.16
   9   1   3    4.52    0.17
   9   1   3    4.46    0.17
   9   1   3    4.27    0.16
 -10  -1  -3    1.69    0.12
  10   1   3    1.62    0.10
  10   1   3    1.71    0.12
  10   1   3    1.57    0.11
 -11  -1  -3    0.71    0.08
  11   1   3    0.79    0.08
  11   1   3    0.69    0.07
 -12  -1  -3    0.31    0.05
  12   1   3    0.21    0.04
  11  -2  -3    1.26    0.08
 -11   2   3    1.37    0.08
  10  -2  -3    3.57    0.14
  10  -2  -3    3.15    0.13
   9  -2  -3   16.05    0.42
   9  -2  -3   16.28    0.41
   9  -2  -3   16.54    0.42
   8  -2  -3    0.28    0.06
   8  -2  -3    0.30    0.03
   8  -2  -3    0.18    0.05
   8  -2  -3    0.23    0.05
   8  -2  -3    0.38    0.06
   7  -2  -3    0.22    0.05
   7  -2  -3    0.19    0.03
   7  -2  -3    0.22    0.05
   7  -2  -3    0.18    0.04
   7  -2  -3    0.16    0.05
   7  -2  -3    0.16    0.04
  -7   2   3    0.20    0.06
   6  -2  -3    3.24    0.12
   6  -2  -3    3.20    0.14
   6  -2  -3    3.17    0.16
  -6   2   3    3.34    0.16
   5  -2  -3    1.30    0.07
   5  -2  -3    1.33    0.08
   5  -2  -3    1.47    0.10
  -5   2   3    1.60    0.10
   4  -2  -3   55.59    1.24
   4  -2  -3   56.37    1.22
   4  -2  -3   56.20    1.20
  -4   2   3   56.15    1.24
   3  -2  -3  143.17    2.94
   3  -2  -3  139.95    2.96
   3  -2  -3  142.03    2.93
  -3   2   3  132.95    2.94
  -3   2   3  141.94    2.96
   2  -2  -3   52.55    1.12
   2  -2  -3   54.23    1.14
  -2   2   3   49.29    1.14
  -2   2   3   53.35    1.14
  -2   2   3   53.72    1.14
   1  -2  -3    0.76    0.04
   1  -2  -3    0.83    0.05
  -1   2   3    0.75    0.05
  -1   2   3    0.82    0.05
  -1   2   3    1.01    0.06
  -1   2   3    0.81    0.03
   0  -2  -3   67.71    1.44
   0  -2  -3   66.97    1.42
   0  -2  -3   69.82    1.41
   0   2   3   67.26    1.45
   0   2   3   67.60    1.41
   0   2   3   68.50    1.44
   0   2   3   65.15    1.42
  -1  -2  -3    2.15    0.08
  -1  -2  -3    2.32    0.07
  -1  -2  -3    2.16    0.07
   1   2   3    2.56    0.10
   1   2   3    2.40    0.08
   1   2   3    2.24    0.07
   1   2   3    2.23    0.07
  -2  -2  -3   40.14    0.89
  -2  -2  -3   39.24    0.85
  -2  -2  -3   41.72    0.87
   2   2   3   41.19    0.90
   2   2   3   40.54    0.87
   2   2   3   39.29    0.87
   2   2   3   41.25    0.89
   2   2   3   41.65    0.87
  -3  -2  -3    2.67    0.09
  -3  -2  -3    2.65    0.10
  -3  -2  -3    2.52    0.07
   3   2   3    2.70    0.10
   3   2   3    2.66    0.09
   3   2   3    2.73    0.11
   3   2   3    2.75    0.09
   4   2   3   32.58    0.73
   4   2   3   32.25    0.73
   4   2   3   32.94    0.73
   4   2   3   32.80    0.74
   5   2   3   24.97    0.57
   5   2   3   25.61    0.59
   5   2   3   25.38    0.59
   5   2   3   25.50    0.61
   6   2   3    9.97    0.25
   6   2   3    9.44    0.27
   6   2   3    9.98    0.28
   6   2   3    9.18    0.29
   7   2   3   25.19    0.62
   7   2   3   24.36    0.64
   7   2   3   26.49    0.60
   7   2   3   23.87    0.60
   8   2   3   10.26    0.28
   8   2   3   10.61    0.34
   8   2   3   10.48    0.29
   8   2   3   11.03    0.30
   8   2   3   10.76    0.29
   8   2   3   11.04    0.28
  -9  -2  -3    1.99    0.12
   9   2   3    2.07    0.12
   9   2   3    2.08    0.11
   9   2   3    2.15    0.11
   9   2   3    2.16    0.12
 -10  -2  -3    2.67    0.14
  10   2   3    2.80    0.13
 -11  -2  -3    6.94    0.21
  11   2   3    6.79    0.21
 -12  -2  -3    0.08    0.04
  12   2   3    0.06    0.04
  11  -3  -3    0.91    0.07
  11  -3  -3    0.87    0.07
  10  -3  -3    0.42    0.06
  10  -3  -3    0.41    0.06
  10  -3  -3    0.36    0.05
   9  -3  -3    0.51    0.07
   9  -3  -3    0.56    0.07
   9  -3  -3    0.61    0.07
   9  -3  -3    0.50    0.04
   9  -3  -3    0.43    0.06
   8  -3  -3    1.71    0.11
   8  -3  -3    1.63    0.10
   8  -3  -3    1.79    0.10
   8  -3  -3    1.84    0.10
   7  -3  -3   28.38    0.65
   7  -3  -3   27.85    0.66
   7  -3  -3   29.08    0.67
   7  -3  -3   29.47    0.66
  -7   3   3   27.93    0.73
   6  -3  -3  106.03    2.28
   6  -3  -3  106.59    2.35
   6  -3  -3  106.87    2.31
   6  -3  -3  110.49    2.28
  -6   3   3  106.87    2.35
   5  -3  -3  121.13    2.50
   5  -3  -3  117.83    2.53
   5  -3  -3  117.22    2.55
  -5   3   3  118.59    2.56
   4  -3  -3  111.64    2.37
   4  -3  -3  114.22    2.40
   4  -3  -3  110.52    2.35
  -4   3   3  112.02    2.40
   3  -3  -3   20.35    0.48
   3  -3  -3   20.44    0.45
   3  -3  -3   20.17    0.46
  -3   3   3   20.28    0.48
  -3   3   3   19.53    0.47
   2  -3  -3   80.10    1.64
   2  -3  -3   81.15    1.67
  -2   3   3   72.76    1.68
  -2   3   3   78.40    1.67
   1  -3  -3   44.89    0.96
   1  -3  -3   46.56    0.99
   1  -3  -3   45.10    0.96
  -1   3   3   46.27    0.98
  -1   3   3   45.51    0.95
  -1   3   3   45.95    1.02
  -1   3   3   44.59    0.99
   0  -3  -3   12.85    0.30
   0  -3  -3   12.25    0.27
   0  -3  -3   12.51    0.28
   0  -3  -3   12.30    0.30
   0   3   3   12.37    0.33
   0   3   3   12.49    0.30
   0   3   3   12.48    0.28
  -1  -3  -3   39.20    0.83
  -1  -3  -3   37.99    0.81
  -1  -3  -3   35.60    0.81
   1   3   3   37.56    0.79
   1   3   3   38.17    0.83
   1   3   3   36.92    0.86
   1   3   3   38.00    0.80
  -2  -3  -3   15.84    0.37
  -2  -3  -3   16.74    0.39
   2   3   3   16.50    0.37
   2   3   3   16.73    0.39
   2   3   3   16.51    0.42
   2   3   3   16.31    0.37
   2   3   3   16.04    0.36
  -3  -3  -3    1.91    0.09
  -3  -3  -3    1.91    0.07
   3   3   3    1.95    0.07
   3   3   3    1.99    0.07
   3   3   3    2.00    0.08
   3   3   3    2.06    0.11
   3   3   3    1.94    0.09
  -4  -3  -3   46.83    1.01
   4   3   3   46.09    1.01
   4   3   3   46.73    1.04
   4   3   3   44.87    0.99
   4   3   3   47.24    1.01
   5   3   3   20.09    0.51
   5   3   3   19.88    0.47
   5   3   3   20.75    0.49
   5   3   3   20.47    0.49
   6   3   3   30.34    0.72
   6   3   3   31.48    0.73
   6   3   3   31.85    0.70
   7   3   3    8.76    0.25
   7   3   3    8.57    0.27
   7   3   3    9.01    0.24
  -8  -3  -3    0.52    0.07
   8   3   3    0.50    0.06
   8   3   3    0.59    0.06
  -9  -3  -3    0.32    0.06
   9   3   3    0.25    0.05
   9   3   3    0.24    0.05
 -10  -3  -3    7.17    0.23
  10   3   3    6.88    0.21
 -11  -3  -3   10.89    0.30
  11   3   3   11.30    0.29
 -12  -3  -3    0.33    0.05
  11  -4  -3    4.14    0.14
  11  -4  -3    4.27    0.13
  10  -4  -3    5.62    0.18
  10  -4  -3    5.88    0.18
  10  -4  -3    6.01    0.19
   9  -4  -3    0.85    0.08
   9  -4  -3    0.82    0.05
   9  -4  -3    0.90    0.08
   9  -4  -3    0.80    0.08
   9  -4  -3    0.78    0.07
   8  -4  -3    2.67    0.13
   8  -4  -3    2.51    0.12
   8  -4  -3    2.40    0.12
   8  -4  -3    2.35    0.12
   7  -4  -3   12.02    0.32
   7  -4  -3   12.50    0.32
   7  -4  -3   11.91    0.32
   7  -4  -3   12.57    0.34
   6  -4  -3   33.88    0.77
   6  -4  -3   35.11    0.77
  -6   4   3   34.25    0.84
   5  -4  -3   95.89    2.09
   5  -4  -3   94.74    2.04
  -5   4   3   98.28    2.10
   4  -4  -3   22.02    0.50
   4  -4  -3   22.32    0.54
  -4   4   3   22.26    0.55
   3  -4  -3    4.60    0.15
   3  -4  -3    4.21    0.12
  -3   4   3    4.58    0.15
  -3   4   3    3.90    0.16
   2  -4  -3    0.36    0.04
   2  -4  -3    0.33    0.03
  -2   4   3    0.37    0.05
  -2   4   3    0.54    0.06
   1  -4  -3    2.80    0.11
   1  -4  -3    2.60    0.10
  -1   4   3    2.65    0.11
  -1   4   3    2.53    0.07
   0  -4  -3   33.07    0.73
   0  -4  -3   33.10    0.73
   0   4   3   31.73    0.70
   0   4   3   33.66    0.76
  -1  -4  -3  133.66    2.87
  -1  -4  -3  136.05    2.85
   1   4   3  133.46    2.82
   1   4   3  137.59    2.92
  -2  -4  -3    2.71    0.11
  -2  -4  -3    2.69    0.09
   2   4   3    2.54    0.12
   2   4   3    2.66    0.09
   2   4   3    2.48    0.08
   2   4   3    2.52    0.10
   2   4   3    2.66    0.09
  -3  -4  -3   33.71    0.74
  -3  -4  -3   33.27    0.77
   3   4   3   33.93    0.73
   3   4   3   33.64    0.75
   3   4   3   33.79    0.75
   3   4   3   33.51    0.79
  -4  -4  -3    6.32    0.18
   4   4   3    6.24    0.19
   4   4   3    6.28    0.18
   4   4   3    6.12    0.23
   5   4   3    2.57    0.11
   5   4   3    2.61    0.11
   6   4   3    0.54    0.07
   6   4   3    0.50    0.06
  -7  -4  -3    0.15    0.05
   7   4   3    0.14    0.05
   7   4   3    0.27    0.05
  -8  -4  -3   12.26    0.33
   8   4   3   12.21    0.32
  -9  -4  -3    3.69    0.16
   9   4   3    3.37    0.14
 -10  -4  -3    3.77    0.16
  10   4   3    3.50    0.13
 -11  -4  -3    5.14    0.17
 -12  -4  -3    0.12    0.04
  11  -5  -3    0.05    0.03
  10  -5  -3    1.95    0.10
  10  -5  -3    1.97    0.10
   9  -5  -3    0.89    0.09
   9  -5  -3    0.91    0.08
   9  -5  -3    0.93    0.09
   8  -5  -3    7.20    0.23
   8  -5  -3    7.06    0.22
   8  -5  -3    7.51    0.23
   7  -5  -3    3.80    0.14
   7  -5  -3    3.62    0.15
   6  -5  -3   10.31    0.28
   6  -5  -3   10.28    0.27
   6  -5  -3    9.88    0.29
  -6   5   3   10.49    0.33
   5  -5  -3    4.17    0.13
   5  -5  -3    4.17    0.17
  -5   5   3    4.45    0.18
   4  -5  -3    0.15    0.04
  -4   5   3    0.16    0.05
   3  -5  -3   37.51    0.82
   3  -5  -3   37.51    0.85
  -3   5   3   39.04    0.87
  -3   5   3   37.74    0.89
   2  -5  -3    8.38    0.23
   2  -5  -3    7.99    0.20
  -2   5   3    8.19    0.24
  -2   5   3    8.58    0.25
   1  -5  -3   12.30    0.31
   1  -5  -3   11.73    0.28
   1  -5  -3   12.67    0.32
  -1   5   3   12.23    0.33
   0  -5  -3   25.31    0.57
   0  -5  -3   26.32    0.61
   0  -5  -3   27.11    0.61
   0   5   3   25.44    0.57
   0   5   3   26.20    0.62
  -1  -5  -3   29.46    0.66
  -1  -5  -3   28.14    0.62
  -1  -5  -3   28.14    0.65
   1   5   3   27.95    0.67
   1   5   3   27.92    0.62
  -2  -5  -3   43.84    0.95
  -2  -5  -3   44.57    0.97
  -2  -5  -3   43.98    0.99
   2   5   3   45.18    0.96
   2   5   3   43.77    0.97
   2   5   3   43.10    1.00
  -3  -5  -3   17.85    0.41
  -3  -5  -3   17.30    0.45
  -3  -5  -3   17.43    0.43
   3   5   3   18.36    0.42
   3   5   3   17.50    0.43
   3   5   3   17.39    0.46
  -4  -5  -3    0.32    0.05
   4   5   3    0.29    0.04
   4   5   3    0.21    0.07
   5   5   3    5.23    0.18
   6   5   3    1.72    0.09
  -7  -5  -3    2.52    0.12
   7   5   3    2.24    0.10
  -8  -5  -3    7.22    0.23
   8   5   3    7.09    0.21
  -9  -5  -3    1.15    0.11
   9   5   3    0.94    0.08
 -10  -5  -3    3.38    0.15
  10   5   3    3.32    0.13
 -11  -5  -3    5.78    0.18
  11  -6  -3    0.20    0.03
  10  -6  -3    0.07    0.04
  10  -6  -3    0.07    0.04
   9  -6  -3    0.94    0.09
   9  -6  -3    1.09    0.09
   9  -6  -3    1.02    0.09
   8  -6  -3    0.22    0.06
   8  -6  -3    0.29    0.05
   8  -6  -3    0.28    0.06
   7  -6  -3    0.56    0.06
   7  -6  -3    0.53    0.07
   7  -6  -3    0.58    0.07
   6  -6  -3    8.77    0.26
   6  -6  -3    8.49    0.24
   6  -6  -3    8.64    0.24
  -6   6   3    8.29    0.30
   5  -6  -3    0.15    0.03
   5  -6  -3    0.13    0.04
  -5   6   3    0.13    0.05
   4  -6  -3    1.53    0.09
   4  -6  -3    1.62    0.07
  -4   6   3    1.60    0.11
   3  -6  -3   12.64    0.33
   3  -6  -3   12.37    0.30
  -3   6   3   12.89    0.35
  -3   6   3   12.87    0.37
   2  -6  -3    1.43    0.06
   2  -6  -3    1.48    0.08
   2  -6  -3    1.62    0.10
  -2   6   3    1.60    0.10
   1  -6  -3   27.09    0.66
   1  -6  -3   27.64    0.60
   1  -6  -3   26.96    0.64
  -1   6   3   28.05    0.67
   0  -6  -3   14.43    0.38
   0  -6  -3   14.06    0.34
   0  -6  -3   14.76    0.38
   0   6   3   14.33    0.34
   0   6   3   15.00    0.40
  -1  -6  -3   68.88    1.46
  -1  -6  -3   67.21    1.50
  -1  -6  -3   68.26    1.50
   1   6   3   69.56    1.46
   1   6   3   67.86    1.52
  -2  -6  -3   46.08    1.01
  -2  -6  -3   46.35    1.04
  -2  -6  -3   46.05    1.05
   2   6   3   45.13    1.02
   2   6   3   46.57    1.01
   2   6   3   46.93    1.07
  -3  -6  -3   18.86    0.54
  -3  -6  -3   17.15    0.45
  -3  -6  -3   17.66    0.43
   3   6   3   18.59    0.44
   3   6   3   18.23    0.49
   3   6   3   17.62    0.45
  -4  -6  -3    3.64    0.15
   4   6   3    3.75    0.15
   4   6   3    3.54    0.18
   5   6   3   24.96    0.57
  -6  -6  -3    9.52    0.27
   6   6   3    9.55    0.25
  -7  -6  -3    5.97    0.21
   7   6   3    6.44    0.19
  -8  -6  -3    1.09    0.10
   8   6   3    1.03    0.09
  -9  -6  -3    0.41    0.07
   9   6   3    0.35    0.05
 -10  -6  -3    9.07    0.26
  10   6   3    8.83    0.24
 -11  -6  -3   19.70    0.46
  10  -7  -3    0.10    0.04
  10  -7  -3    0.15    0.04
   9  -7  -3    0.76    0.07
   9  -7  -3    0.63    0.07
   8  -7  -3    0.29    0.06
   8  -7  -3    0.28    0.05
   8  -7  -3    0.29    0.06
   7  -7  -3    7.57    0.22
   7  -7  -3    7.13    0.22
   6  -7  -3    7.86    0.25
   6  -7  -3    7.68    0.23
   6  -7  -3    7.89    0.22
   5  -7  -3    9.39    0.24
   5  -7  -3    9.28    0.25
  -5   7   3    8.94    0.31
   4  -7  -3    1.23    0.07
   4  -7  -3    1.15    0.07
  -4   7   3    1.15    0.10
   3  -7  -3    0.18    0.04
   3  -7  -3    0.09    0.03
  -3   7   3    0.09    0.05
   2  -7  -3    0.61    0.08
   2  -7  -3    0.59    0.06
   2  -7  -3    0.51    0.05
  -2   7   3    0.63    0.08
   1  -7  -3   25.57    0.57
   1  -7  -3   25.28    0.64
   1  -7  -3   25.52    0.62
  -1   7   3   26.08    0.65
   0  -7  -3    7.34    0.20
   0  -7  -3    7.55    0.25
   0  -7  -3    7.67    0.24
   0   7   3    7.47    0.26
  -1  -7  -3   21.58    0.54
  -1  -7  -3   21.73    0.54
  -1  -7  -3   21.50    0.50
   1   7   3   21.02    0.50
   1   7   3   21.44    0.57
  -2  -7  -3   37.09    0.87
  -2  -7  -3   37.48    0.83
  -2  -7  -3   36.63    0.88
   2   7   3   37.59    0.90
   2   7   3   37.60    0.84
   2   7   3   35.98    0.84
  -3  -7  -3    3.97    0.17
  -3  -7  -3    4.10    0.15
   3   7   3    3.87    0.15
   3   7   3    3.96    0.19
  -4  -7  -3   34.94    0.85
   4   7   3   36.52    0.79
  -5  -7  -3    3.84    0.15
  -5  -7  -3    3.74    0.11
   5   7   3    3.70    0.13
  -6  -7  -3    0.29    0.03
  -6  -7  -3    0.29    0.06
   6   7   3    0.25    0.05
  -7  -7  -3    1.06    0.10
   7   7   3    1.25    0.09
  -8  -7  -3    0.36    0.07
   8   7   3    0.43    0.06
  -9  -7  -3    0.36    0.07
   9   7   3    0.29    0.05
 -10  -7  -3    0.21    0.05
  10   7   3    0.17    0.04
  10  -8  -3    1.07    0.07
   9  -8  -3    0.63    0.07
   9  -8  -3    0.56    0.06
   8  -8  -3    0.24    0.06
   8  -8  -3    0.23    0.05
   7  -8  -3    5.26    0.19
   7  -8  -3    5.21    0.17
   7  -8  -3    5.14    0.18
   6  -8  -3    0.33    0.06
   6  -8  -3    0.21    0.06
   6  -8  -3    0.31    0.05
   5  -8  -3    0.40    0.06
   5  -8  -3    0.37    0.06
   5  -8  -3    0.34    0.05
   4  -8  -3    0.17    0.05
   4  -8  -3    0.29    0.05
   4  -8  -3    0.24    0.04
  -4   8   3    0.29    0.07
   3  -8  -3    6.09    0.17
   3  -8  -3    5.91    0.20
  -3   8   3    6.10    0.23
   2  -8  -3    6.78    0.19
   2  -8  -3    7.06    0.26
   1  -8  -3    0.19    0.05
   1  -8  -3    0.32    0.07
   1  -8  -3    0.21    0.04
   0  -8  -3    1.86    0.12
   0  -8  -3    1.91    0.09
   0  -8  -3    2.04    0.13
  -1  -8  -3    5.17    0.20
  -1  -8  -3    5.21    0.17
  -1  -8  -3    4.92    0.20
   1   8   3    4.88    0.18
  -2  -8  -3    0.24    0.06
  -2  -8  -3    0.26    0.06
  -2  -8  -3    0.21    0.05
   2   8   3    0.17    0.05
  -3  -8  -3    0.56    0.07
  -3  -8  -3    0.59    0.07
  -3  -8  -3    0.57    0.08
   3   8   3    0.46    0.05
  -4  -8  -3    0.27    0.06
  -4  -8  -3    0.32    0.04
  -4  -8  -3    0.27    0.06
   4   8   3    0.26    0.05
  -5  -8  -3    1.64    0.07
  -5  -8  -3    1.58    0.11
   5   8   3    1.67    0.10
  -6  -8  -3    5.56    0.20
  -6  -8  -3    5.58    0.14
   6   8   3    5.60    0.18
  -7  -8  -3    0.96    0.09
   7   8   3    0.92    0.08
  -8  -8  -3    0.70    0.08
   8   8   3    0.68    0.07
  -9  -8  -3   11.38    0.30
   9   8   3   11.23    0.28
 -10  -8  -3    3.39    0.11
   9  -9  -3    1.22    0.08
   9  -9  -3    1.12    0.07
   8  -9  -3    0.75    0.07
   8  -9  -3    0.85    0.08
   7  -9  -3    5.11    0.18
   7  -9  -3    5.01    0.16
   7  -9  -3    5.29    0.17
   6  -9  -3    0.20    0.06
   6  -9  -3    0.15    0.04
   6  -9  -3    0.25    0.05
   5  -9  -3    5.12    0.19
   5  -9  -3    5.03    0.16
   4  -9  -3    2.46    0.11
   4  -9  -3    2.43    0.13
   3  -9  -3   16.34    0.42
   3  -9  -3   15.89    0.45
   3  -9  -3   16.70    0.40
   2  -9  -3   54.40    1.24
   2  -9  -3   56.02    1.21
   2  -9  -3   51.98    1.30
   2  -9  -3   55.92    1.19
   1  -9  -3    1.07    0.11
   1  -9  -3    0.99    0.09
   1  -9  -3    1.00    0.11
   1  -9  -3    1.02    0.08
   0  -9  -3    6.37    0.26
   0  -9  -3    6.56    0.23
   0  -9  -3    6.52    0.21
   0  -9  -3    6.70    0.20
  -1  -9  -3    3.30    0.16
  -1  -9  -3    3.16    0.14
  -1  -9  -3    3.26    0.18
  -1  -9  -3    3.26    0.14
  -2  -9  -3    2.83    0.15
  -2  -9  -3    2.32    0.15
  -2  -9  -3    2.51    0.12
  -2  -9  -3    2.64    0.13
  -3  -9  -3    5.31    0.22
  -3  -9  -3    5.73    0.16
  -3  -9  -3    5.61    0.20
  -3  -9  -3    6.11    0.20
   3   9   3    5.57    0.17
  -4  -9  -3    1.94    0.08
  -4  -9  -3    1.86    0.12
  -4  -9  -3    1.44    0.16
   4   9   3    1.83    0.10
  -5  -9  -3    1.68    0.08
  -5  -9  -3    1.80    0.12
   5   9   3    1.67    0.10
  -6  -9  -3    0.40    0.07
  -6  -9  -3    0.29    0.03
   6   9   3    0.33    0.06
  -7  -9  -3    0.73    0.08
   7   9   3    0.66    0.07
  -8  -9  -3    4.45    0.16
   8   9   3    4.56    0.15
  -9  -9  -3    0.14    0.04
   9   9   3    0.12    0.03
   8 -10  -3    1.47    0.09
   7 -10  -3    0.08    0.04
   6 -10  -3   25.53    0.60
   6 -10  -3   24.36    0.58
   5 -10  -3    1.48    0.09
   5 -10  -3    1.67    0.11
   4 -10  -3    1.34    0.10
   4 -10  -3    1.44    0.09
   3 -10  -3    0.27    0.07
   3 -10  -3    0.29    0.05
   3 -10  -3    0.30    0.06
   2 -10  -3    0.18    0.07
   2 -10  -3    0.23    0.05
   2 -10  -3    0.12    0.05
   1 -10  -3    0.37    0.07
   1 -10  -3    0.39    0.06
   1 -10  -3    0.33    0.08
   0 -10  -3   25.17    0.60
   0 -10  -3   24.74    0.63
   0 -10  -3   24.50    0.60
  -1 -10  -3    0.30    0.06
  -1 -10  -3    0.27    0.06
  -1 -10  -3    0.21    0.07
  -2 -10  -3    1.91    0.14
  -2 -10  -3    1.65    0.08
  -2 -10  -3    1.97    0.12
  -2 -10  -3    1.90    0.11
  -3 -10  -3   38.48    0.84
  -3 -10  -3   38.83    0.88
  -3 -10  -3   37.77    0.89
  -3 -10  -3   39.16    0.91
   3  10   3   37.72    0.85
  -4 -10  -3    8.13    0.21
  -4 -10  -3    7.96    0.27
  -4 -10  -3    8.20    0.25
   4  10   3    7.47    0.22
  -5 -10  -3   18.13    0.46
  -5 -10  -3   18.26    0.41
   5  10   3   17.99    0.43
  -6 -10  -3    2.88    0.13
   6  10   3    2.98    0.12
  -7 -10  -3    0.59    0.07
   7  10   3    0.47    0.05
  -8 -10  -3    4.67    0.15
   8  10   3    4.73    0.14
   7 -11  -3    5.37    0.17
   6 -11  -3   20.56    0.50
   5 -11  -3    1.30    0.10
   4 -11  -3    1.35    0.09
   4 -11  -3    1.59    0.11
   3 -11  -3    7.65    0.24
   3 -11  -3    7.10    0.25
   3 -11  -3    7.18    0.22
   2 -11  -3    0.30    0.06
   2 -11  -3    0.27    0.08
   2 -11  -3    0.20    0.05
   1 -11  -3    4.12    0.17
   1 -11  -3    3.94    0.16
   1 -11  -3    3.99    0.20
   0 -11  -3    0.25    0.06
   0 -11  -3    0.18    0.07
   0 -11  -3    0.13    0.05
  -1 -11  -3    2.59    0.17
  -1 -11  -3    2.35    0.13
  -1 -11  -3    2.54    0.14
  -2 -11  -3    6.29    0.25
  -2 -11  -3    6.31    0.18
  -2 -11  -3    6.05    0.21
  -3 -11  -3    9.79    0.32
  -3 -11  -3   10.01    0.29
  -3 -11  -3    9.92    0.25
  -4 -11  -3    6.01    0.23
  -4 -11  -3    6.85    0.18
  -4 -11  -3    6.60    0.21
   4  11   3    6.59    0.19
  -5 -11  -3    1.37    0.06
  -5 -11  -3    1.28    0.10
   5  11   3    1.33    0.08
  -6 -11  -3    0.52    0.06
   6  11   3    0.55    0.05
  -7 -11  -3    2.16    0.09
   6 -12  -3   13.66    0.33
   5 -12  -3    2.97    0.12
   4 -12  -3    1.28    0.09
   3 -12  -3    3.32    0.14
   3 -12  -3    3.26    0.16
   2 -12  -3    0.15    0.05
   2 -12  -3    0.20    0.07
   1 -12  -3    5.92    0.23
   1 -12  -3    6.03    0.20
   0 -12  -3    0.90    0.11
   0 -12  -3    0.78    0.08
  -1 -12  -3    2.50    0.10
  -1 -12  -3    2.67    0.16
  -1 -12  -3    2.54    0.13
  -2 -12  -3    0.82    0.10
  -2 -12  -3    0.88    0.06
  -2 -12  -3    0.63    0.07
  -3 -12  -3    0.30    0.06
  -3 -12  -3    0.31    0.07
  -3 -12  -3    0.32    0.04
  -4 -12  -3   12.13    0.32
  -4 -12  -3   12.70    0.29
  -5 -12  -3    0.29    0.05
   5  12   3    0.33    0.05
   4 -13  -3    0.60    0.06
   3 -13  -3    0.11    0.05
   3 -13  -3    0.19    0.04
   2 -13  -3    4.14    0.14
   2 -13  -3    4.19    0.17
   1 -13  -3    7.71    0.22
   1 -13  -3    8.28    0.26
   0 -13  -3    2.20    0.08
   0 -13  -3    2.33    0.10
   0 -13  -3    2.37    0.14
  -1 -13  -3    5.85    0.21
  -1 -13  -3    5.70    0.15
  -1 -13  -3    5.73    0.18
  -2 -13  -3    2.49    0.08
  -2 -13  -3    2.44    0.13
  -2 -13  -3    2.31    0.10
  -3 -13  -3    0.51    0.04
  -3 -13  -3    0.39    0.05
  -3 -13  -3    0.49    0.06
   1 -11   4    8.33    0.23
   2 -11   4    1.36    0.08
  -3 -10   4    0.18    0.02
   2  10  -4    1.28    0.07
  -2 -10   4    1.18    0.08
  -2 -10   4    1.23    0.05
   1  10  -4    0.32    0.04
  -1 -10   4    0.37    0.03
  -1 -10   4    0.44    0.06
   0  10  -4    2.97    0.11
   0 -10   4    3.13    0.15
   1 -10   4   12.37    0.34
   1 -10   4   11.42    0.30
   2 -10   4    1.16    0.10
   3 -10   4    5.41    0.19
   4 -10   4    6.37    0.20
   4   9  -4    3.29    0.11
  -4  -9   4    3.42    0.10
   3   9  -4    1.37    0.08
  -3  -9   4    1.42    0.06
   2   9  -4    8.26    0.22
  -2  -9   4    8.00    0.21
  -2  -9   4    8.02    0.26
  -1  -9   4    1.05    0.11
  -1  -9   4    0.84    0.08
   0  -9   4   26.81    0.66
   0  -9   4   26.38    0.62
   1  -9   4    0.63    0.09
   1  -9   4    0.65    0.07
   1  -9   4    0.55    0.07
   2  -9   4    0.55    0.06
   2  -9   4    0.55    0.06
   2  -9   4    0.54    0.08
   3  -9   4    5.86    0.22
   4  -9   4   14.60    0.40
   5   8  -4    0.18    0.04
  -5  -8   4    0.20    0.03
   4   8  -4    4.77    0.15
  -4  -8   4    4.79    0.13
   3   8  -4    4.42    0.15
  -3  -8   4    4.21    0.13
  -3  -8   4    4.53    0.23
  -2  -8   4    1.22    0.10
  -2  -8   4    1.19    0.11
  -2  -8   4    1.22    0.07
  -2  -8   4    1.12    0.09
  -1  -8   4    3.00    0.14
  -1  -8   4    2.75    0.16
  -1  -8   4    2.62    0.13
   0  -8   4    6.43    0.21
   0  -8   4    6.23    0.24
   0  -8   4    6.14    0.20
   1  -8   4   13.34    0.39
   1  -8   4   13.64    0.35
   1  -8   4   13.30    0.36
   2  -8   4   10.89    0.30
   2  -8   4   11.16    0.34
   2  -8   4   10.60    0.28
   3  -8   4   10.17    0.27
   3  -8   4   10.46    0.32
   3  -8   4   10.59    0.29
   4  -8   4    1.58    0.13
   6   7  -4    4.19    0.13
   5   7  -4    0.13    0.04
  -5  -7   4    0.05    0.03
   4   7  -4    0.59    0.06
  -4  -7   4    0.78    0.06
  -3  -7   4    3.51    0.15
  -3  -7   4    3.52    0.12
  -3  -7   4    3.63    0.26
  -3  -7   4    3.32    0.15
  -2  -7   4    3.67    0.16
  -2  -7   4    3.60    0.15
  -2  -7   4    3.35    0.17
  -1  -7   4    1.68    0.10
  -1  -7   4    1.65    0.11
  -1  -7   4    1.53    0.12
   0  -7   4    8.36    0.24
   0  -7   4    8.22    0.28
   0  -7   4    8.34    0.25
   1  -7   4    0.44    0.06
   1  -7   4    0.56    0.07
   1  -7   4    0.55    0.09
   2  -7   4    1.92    0.13
   2  -7   4    1.95    0.11
   2  -7   4    1.82    0.09
   3  -7   4    6.52    0.21
   3  -7   4    6.47    0.23
   4  -7   4    0.33    0.07
   6   6  -4    8.60    0.23
   5   6  -4    2.89    0.12
  -5  -6   4    2.85    0.10
  -4  -6   4    6.18    0.18
  -4  -6   4    6.56    0.22
  -3  -6   4    0.14    0.05
  -3  -6   4    0.10    0.05
  -3  -6   4    0.25    0.04
  -2  -6   4    8.98    0.26
  -2  -6   4    8.89    0.26
  -2  -6   4    8.20    0.27
  -1  -6   4    5.36    0.18
  -1  -6   4    5.04    0.24
  -1  -6   4    5.24    0.20
  -1  -6   4    5.19    0.18
   0  -6   4    1.87    0.09
   0  -6   4    1.65    0.13
   0  -6   4    1.77    0.12
   0  -6   4    1.74    0.10
   1  -6   4   17.65    0.42
   1  -6   4   16.87    0.46
   2  -6   4    7.88    0.26
   2  -6   4    7.82    0.23
   2  -6   4    7.81    0.21
   3  -6   4    1.46    0.09
   3  -6   4    1.43    0.11
   4  -6   4    9.59    0.29
   4  -6   4    9.33    0.26
   6   5  -4    9.74    0.26
   5   5  -4   22.49    0.53
  -5  -5   4   23.13    0.51
  -4  -5   4    7.66    0.24
  -4  -5   4    7.83    0.20
   3   5  -4    9.10    0.29
  -3  -5   4    9.31    0.23
  -3  -5   4    9.16    0.27
   2   5  -4    9.02    0.28
  -2  -5   4    8.87    0.31
  -2  -5   4    8.28    0.31
  -2  -5   4    8.98    0.26
  -2  -5   4    8.79    0.25
   1   5  -4    3.65    0.15
  -1  -5   4    3.98    0.14
  -1  -5   4    3.97    0.14
  -1  -5   4    3.96    0.18
   0   5  -4    3.50    0.15
   0   5  -4    3.51    0.14
   0  -5   4    3.40    0.16
   0  -5   4    3.42    0.13
   0  -5   4    3.44    0.12
   0  -5   4    3.32    0.15
  -1   5  -4    5.73    0.17
  -1   5  -4    5.58    0.19
   1  -5   4    5.75    0.22
   1  -5   4    5.54    0.19
   1  -5   4    5.71    0.18
   1  -5   4    5.57    0.16
  -2   5  -4    3.05    0.13
  -2   5  -4    2.98    0.11
   2  -5   4    2.99    0.12
   2  -5   4    2.98    0.12
  -3   5  -4   28.30    0.67
  -3   5  -4   28.25    0.62
   3  -5   4   27.28    0.64
   3  -5   4   27.80    0.63
  -4   5  -4   35.51    0.83
   4  -5   4   36.04    0.80
   8  -5   4   16.85    0.43
   8  -5   4   16.80    0.42
   9  -5   4   15.45    0.39
   9  -5   4   15.43    0.40
  10  -5   4    0.42    0.05
  10  -5   4    0.35    0.05
   8   4  -4   26.11    0.63
   7   4  -4    1.26    0.08
   6   4  -4    6.96    0.21
   5   4  -4   38.80    0.88
   5   4  -4   38.67    0.87
  -5  -4   4   41.05    0.86
   4   4  -4    2.69    0.14
  -4  -4   4    2.61    0.09
  -4  -4   4    2.61    0.12
  -4  -4   4    2.58    0.17
   3   4  -4   35.16    0.84
  -3  -4   4   35.47    0.80
  -3  -4   4   35.65    0.87
  -3  -4   4   35.97    0.82
   2   4  -4   19.50    0.49
   2   4  -4   18.96    0.49
   2   4  -4   20.08    0.50
  -2  -4   4   19.68    0.57
  -2  -4   4   19.80    0.54
  -2  -4   4   20.77    0.53
  -2  -4   4   20.72    0.48
   1   4  -4   10.53    0.29
   1   4  -4   10.30    0.29
   1   4  -4   10.60    0.30
  -1  -4   4   10.29    0.36
  -1  -4   4   11.11    0.28
  -1  -4   4   10.60    0.32
  -1  -4   4   10.78    0.32
   0   4  -4   22.18    0.53
   0   4  -4   22.35    0.53
   0   4  -4   21.98    0.52
   0  -4   4   21.66    0.61
   0  -4   4   22.58    0.51
   0  -4   4   22.16    0.56
   0  -4   4   22.29    0.55
  -1   4  -4   12.73    0.33
  -1   4  -4   12.82    0.31
  -1   4  -4   12.82    0.33
   1  -4   4   12.52    0.35
   1  -4   4   12.59    0.34
   1  -4   4   12.89    0.40
   1  -4   4   12.56    0.30
  -2   4  -4    1.07    0.06
  -2   4  -4    0.99    0.07
  -2   4  -4    1.14    0.07
   2  -4   4    1.00    0.11
   2  -4   4    1.04    0.07
  -3   4  -4    3.13    0.12
  -3   4  -4    3.21    0.13
   3  -4   4    3.01    0.11
   3  -4   4    3.60    0.18
  -4   4  -4    7.10    0.21
  -4   4  -4    7.07    0.22
   4  -4   4    6.84    0.18
   4  -4   4    6.55    0.26
   5  -4   4    0.49    0.06
   6  -4   4    9.17    0.26
   6  -4   4    8.78    0.30
   7  -4   4    1.26    0.10
   8  -4   4    2.17    0.11
   8  -4   4    2.10    0.12
   9  -4   4    4.65    0.15
   9  -4   4    5.27    0.18
   9  -4   4    5.34    0.19
  10  -4   4    0.25    0.06
  10  -4   4    0.24    0.05
  11  -4   4    0.89    0.07
  11  -4   4    0.81    0.07
   9   3  -4    2.60    0.10
   8   3  -4   18.05    0.43
   7   3  -4    2.74    0.12
   6   3  -4    1.06    0.08
   5   3  -4   14.72    0.37
   5   3  -4   16.02    0.56
  -5  -3   4   15.29    0.35
   4   3  -4    0.19    0.05
  -4  -3   4    0.13    0.04
  -4  -3   4    0.14    0.06
   3   3  -4   34.60    0.80
   3   3  -4   36.24    0.82
  -3  -3   4   35.15    0.85
  -3  -3   4   35.08    0.80
   2   3  -4    0.40    0.06
   2   3  -4    0.37    0.05
   2   3  -4    0.34    0.05
  -2  -3   4    0.42    0.07
  -2  -3   4    0.37    0.05
  -2  -3   4    0.37    0.07
  -2  -3   4    0.41    0.06
   1   3  -4   19.49    0.47
   1   3  -4   20.24    0.48
   1   3  -4   19.62    0.47
  -1  -3   4   19.81    0.54
  -1  -3   4   20.22    0.46
  -1  -3   4   19.94    0.51
  -1  -3   4   20.22    0.50
   0   3  -4   31.31    0.72
   0   3  -4   31.95    0.71
   0   3  -4   32.37    0.73
   0  -3   4   32.72    0.79
   0  -3   4   31.44    0.70
   0  -3   4   32.47    0.74
   0  -3   4   31.35    0.74
  -1   3  -4   12.68    0.30
  -1   3  -4   12.31    0.32
  -1   3  -4   12.79    0.31
   1  -3   4   13.01    0.32
   1  -3   4   12.52    0.38
   1  -3   4   12.34    0.33
   1  -3   4   11.79    0.28
  -2   3  -4   29.84    0.65
  -2   3  -4   30.39    0.67
  -2   3  -4   29.99    0.68
   2  -3   4   29.78    0.69
   2  -3   4   29.95    0.67
   2  -3   4   28.92    0.74
  -3   3  -4    0.31    0.05
   3  -3   4    0.34    0.06
   3  -3   4    0.35    0.05
   3  -3   4    0.36    0.04
   4  -3   4    1.53    0.09
   4  -3   4    1.36    0.11
   4  -3   4    1.53    0.10
   4  -3   4    1.48    0.06
   5  -3   4   11.43    0.32
   5  -3   4   11.52    0.34
   6  -3   4    3.54    0.13
   6  -3   4    3.80    0.17
   7  -3   4    4.41    0.16
   7  -3   4    4.27    0.15
   7  -3   4    4.18    0.20
   8  -3   4    0.70    0.08
   8  -3   4    0.77    0.06
   8  -3   4    0.76    0.07
   9  -3   4    3.39    0.15
   9  -3   4    3.27    0.12
   9  -3   4    3.32    0.14
  10  -3   4    4.63    0.17
  10  -3   4    4.69    0.18
  11  -3   4    4.61    0.16
  11  -3   4    4.38    0.15
  12  -3   4    1.50    0.08
  10   2  -4    1.94    0.08
   9   2  -4   11.82    0.30
   8   2  -4    6.47    0.20
   7   2  -4    1.95    0.11
   6   2  -4    0.74    0.07
   5   2  -4    3.90    0.17
   5   2  -4    4.27    0.15
  -5  -2   4    3.93    0.19
   4   2  -4    9.70    0.28
  -4  -2   4    9.03    0.30
   3   2  -4    4.77    0.17
   3   2  -4    4.66    0.15
  -3  -2   4    4.50    0.15
  -3  -2   4    4.94    0.19
   2   2  -4   31.90    0.72
   2   2  -4   30.96    0.69
   2   2  -4   30.37    0.71
  -2  -2   4   30.78    0.70
  -2  -2   4   30.90    0.75
  -2  -2   4   32.69    0.74
  -2  -2   4   30.60    0.75
   1   2  -4   25.92    0.58
   1   2  -4   25.47    0.58
   1   2  -4   25.77    0.59
  -1  -2   4   25.75    0.61
  -1  -2   4   25.29    0.64
  -1  -2   4   26.19    0.61
  -1  -2   4   25.01    0.57
   0   2  -4   46.08    0.99
   0   2  -4   44.93    0.99
   0   2  -4   46.06    1.00
   0  -2   4   46.65    1.05
   0  -2   4   44.31    0.98
   0  -2   4   45.98    1.01
   0  -2   4   45.47    1.01
  -1   2  -4    7.74    0.21
  -1   2  -4    7.76    0.19
  -1   2  -4    7.37    0.20
   1  -2   4    8.02    0.25
   1  -2   4    7.76    0.21
   1  -2   4    7.07    0.18
   1  -2   4    7.66    0.21
   1  -2   4    7.72    0.22
  -2   2  -4   69.73    1.50
  -2   2  -4   70.84    1.47
   2  -2   4   69.87    1.51
   2  -2   4   68.56    1.55
   2  -2   4   70.03    1.49
  -3   2  -4    2.48    0.07
   3  -2   4    2.39    0.10
   3  -2   4    2.34    0.11
   3  -2   4    2.46    0.13
   3  -2   4    2.38    0.09
   4  -2   4   21.71    0.49
   4  -2   4   21.25    0.51
   4  -2   4   20.78    0.54
   4  -2   4   21.48    0.52
  -5   2  -4   31.48    0.68
   5  -2   4   31.34    0.73
   5  -2   4   31.20    0.70
   5  -2   4   31.58    0.75
  -6   2  -4   27.86    0.62
   6  -2   4   28.16    0.69
   6  -2   4   26.51    0.66
   6  -2   4   28.29    0.64
   7  -2   4   15.37    0.39
   7  -2   4   15.66    0.38
   7  -2   4   15.66    0.45
   7  -2   4   15.25    0.36
   8  -2   4    1.95    0.09
   8  -2   4    1.96    0.11
   8  -2   4    1.87    0.11
   9  -2   4    0.94    0.09
   9  -2   4    1.09    0.10
   9  -2   4    1.00    0.08
  10  -2   4    3.11    0.14
  10  -2   4    2.95    0.15
  11  -2   4    1.99    0.11
  11  -2   4    1.90    0.10
  12  -2   4    4.84    0.15
  12  -2   4    4.88    0.15
  10   1  -4    0.23    0.04
   9   1  -4    0.14    0.04
   8   1  -4    2.24    0.12
   7   1  -4    7.65    0.23
   6   1  -4    5.30    0.21
   6   1  -4    5.39    0.17
  -6  -1   4    5.48    0.23
   5   1  -4    0.14    0.05
  -5  -1   4    0.10    0.05
   4   1  -4   40.97    0.95
  -4  -1   4   42.34    0.98
   3   1  -4    2.33    0.10
   3   1  -4    2.09    0.08
  -3  -1   4    2.09    0.11
   2   1  -4    1.49    0.08
   2   1  -4    1.42    0.08
   2   1  -4    1.50    0.06
  -2  -1   4    1.59    0.10
  -2  -1   4    1.56    0.10
  -2  -1   4    1.63    0.07
  -2  -1   4    1.58    0.09
   1   1  -4    9.11    0.22
   1   1  -4    9.40    0.24
   1   1  -4    8.78    0.23
  -1  -1   4    9.09    0.26
  -1  -1   4    8.91    0.27
  -1  -1   4    9.04    0.24
  -1  -1   4    9.03    0.22
   0   1  -4    0.63    0.05
   0   1  -4    0.52    0.04
   0   1  -4    0.62    0.04
   0  -1   4    0.54    0.05
   0  -1   4    0.49    0.04
   0  -1   4    0.58    0.05
   0  -1   4    0.55    0.05
   0  -1   4    0.62    0.06
  -1   1  -4   73.46    1.50
  -1   1  -4   72.67    1.51
   1  -1   4   70.84    1.56
   1  -1   4   72.40    1.52
   1  -1   4   66.17    1.50
   1  -1   4   70.35    1.52
  -2   1  -4   21.82    0.47
   2  -1   4   21.37    0.50
   2  -1   4   21.70    0.53
   2  -1   4   20.97    0.49
   2  -1   4   21.58    0.50
  -3   1  -4   36.45    0.76
   3  -1   4   35.48    0.78
   3  -1   4   36.42    0.80
   3  -1   4   35.95    0.80
   3  -1   4   34.09    0.82
  -4   1  -4    3.06    0.09
   4  -1   4    2.95    0.13
   4  -1   4    3.00    0.11
   4  -1   4    2.98    0.12
   4  -1   4    2.94    0.12
  -5   1  -4   28.23    0.63
   5  -1   4   29.24    0.65
   5  -1   4   28.73    0.68
   5  -1   4   28.36    0.66
   5  -1   4   28.00    0.61
  -6   1  -4    0.30    0.04
   6  -1   4    0.36    0.06
   6  -1   4    0.31    0.04
   6  -1   4    0.30    0.06
   6  -1   4    0.33    0.05
   7  -1   4   10.66    0.28
   7  -1   4   10.91    0.27
   7  -1   4   10.44    0.33
   7  -1   4   10.55    0.28
   8  -1   4    0.10    0.04
   8  -1   4    0.09    0.05
   8  -1   4    0.06    0.04
   9  -1   4    6.25    0.20
   9  -1   4    6.00    0.21
   9  -1   4    6.02    0.19
  10  -1   4    7.65    0.23
  10  -1   4    7.92    0.24
  10  -1   4    8.02    0.24
  10  -1   4    7.58    0.23
 -11   1  -4    7.95    0.23
  11  -1   4    8.18    0.24
  11  -1   4    8.24    0.24
  12  -1   4    9.20    0.24
  12  -1   4    9.39    0.25
  11   0  -4    1.02    0.06
  10   0  -4    2.38    0.10
   9   0  -4    1.50    0.10
   8   0  -4    0.16    0.05
   7   0  -4   10.95    0.29
   6   0  -4    0.09    0.04
   6   0  -4    0.23    0.06
  -6   0   4    0.07    0.05
   5   0  -4    2.20    0.12
  -5   0   4    2.14    0.13
   4   0  -4   26.05    0.62
  -4   0   4   26.47    0.64
   3   0  -4    9.06    0.25
  -3   0   4    9.24    0.27
  -3   0   4    9.24    0.30
   2   0  -4   94.96    1.98
   2   0  -4   94.94    1.98
   2   0  -4   92.34    1.96
  -2   0   4   93.81    2.01
  -2   0   4   93.27    2.00
  -2   0   4   90.84    2.01
   1   0  -4    0.15    0.03
   1   0  -4    0.13    0.03
   1   0  -4    0.19    0.02
  -1   0   4    0.23    0.04
  -1   0   4    0.16    0.04
  -1   0   4    0.19    0.03
   0   0  -4    2.32    0.08
   0   0  -4    2.36    0.08
   0   0   4    2.26    0.09
   0   0   4    2.29    0.10
   0   0   4    2.25    0.08
   0   0   4    2.25    0.08
  -1   0  -4    8.88    0.21
  -1   0  -4    8.39    0.21
   1   0   4    8.37    0.22
   1   0   4    8.41    0.21
   1   0   4    8.17    0.20
   1   0   4    8.64    0.25
  -2   0  -4    4.86    0.13
   2   0   4    5.17    0.15
   2   0   4    5.05    0.17
   2   0   4    5.11    0.15
  -3   0  -4   53.00    1.13
   3   0   4   54.49    1.15
   3   0   4   52.76    1.15
   3   0   4   53.10    1.17
   3   0   4   51.94    1.15
  -4   0  -4   27.81    0.61
   4   0   4   27.70    0.63
   4   0   4   28.31    0.64
   4   0   4   26.56    0.64
   4   0   4   28.13    0.63
   4   0   4   27.04    0.59
  -5   0  -4  102.23    2.12
   5   0   4  101.13    2.16
   5   0   4   98.29    2.10
   5   0   4  102.71    2.15
   5   0   4   98.02    2.15
  -6   0  -4   11.16    0.29
   6   0   4   11.56    0.31
   6   0   4   11.21    0.27
   6   0   4   11.08    0.32
   6   0   4   11.00    0.31
   7   0   4    2.84    0.11
   7   0   4    2.52    0.13
   7   0   4    2.61    0.15
   7   0   4    3.01    0.12
   7   0   4    2.79    0.11
   8   0   4    1.77    0.10
   8   0   4    1.93    0.10
   8   0   4    1.80    0.10
   8   0   4    1.81    0.16
   8   0   4    1.71    0.10
   8   0   4    1.68    0.10
   9   0   4    1.50    0.10
   9   0   4    1.44    0.10
   9   0   4    1.50    0.11
  10   0   4   10.51    0.29
  10   0   4   10.45    0.29
  10   0   4    9.99    0.29
  10   0   4    9.82    0.29
 -11   0  -4    3.68    0.14
  11   0   4    3.79    0.15
  11   0   4    3.85    0.15
 -12   0  -4    2.90    0.11
  12   0   4    2.88    0.11
  12   0   4    2.82    0.11
  11  -1  -4    2.72    0.10
  10  -1  -4    0.32    0.05
 -10   1   4    0.27    0.05
   9  -1  -4    2.51    0.12
   9  -1  -4    2.45    0.12
   8  -1  -4    7.66    0.23
   8  -1  -4    7.90    0.23
   7  -1  -4    2.48    0.11
   7  -1  -4    2.47    0.12
   6  -1  -4    4.07    0.14
   6  -1  -4    3.92    0.17
  -6   1   4    3.97    0.19
   5  -1  -4    1.83    0.10
   5  -1  -4    1.55    0.08
  -5   1   4    1.91    0.12
   4  -1  -4    5.07    0.17
   4  -1  -4    4.76    0.15
  -4   1   4    4.72    0.18
   3  -1  -4   21.02    0.52
   3  -1  -4   21.44    0.49
   3  -1  -4   20.81    0.48
  -3   1   4   20.46    0.51
  -3   1   4   21.00    0.51
   2  -1  -4    0.35    0.04
   2  -1  -4    0.37    0.04
   2  -1  -4    0.33    0.05
  -2   1   4    0.40    0.05
  -2   1   4    0.37    0.05
  -2   1   4    0.40    0.05
   1  -1  -4    1.14    0.06
   1  -1  -4    1.06    0.06
   1  -1  -4    1.13    0.04
   1  -1  -4    1.23    0.06
  -1   1   4    1.09    0.07
  -1   1   4    1.18    0.05
  -1   1   4    1.15    0.07
  -1   1   4    1.26    0.06
   0  -1  -4   36.83    0.78
   0  -1  -4   35.09    0.80
   0  -1  -4   36.16    0.79
   0   1   4   36.40    0.78
   0   1   4   36.12    0.82
   0   1   4   36.91    0.81
  -1  -1  -4    2.21    0.08
  -1  -1  -4    2.26    0.08
  -1  -1  -4    2.15    0.07
   1   1   4    2.27    0.08
   1   1   4    2.29    0.09
   1   1   4    2.16    0.06
   1   1   4    2.22    0.10
  -2  -1  -4   22.76    0.51
   2   1   4   23.39    0.52
   2   1   4   23.35    0.55
   2   1   4   22.86    0.52
   2   1   4   22.97    0.53
  -3  -1  -4  197.19    4.17
   3   1   4  192.37    4.14
   3   1   4  198.18    4.14
   3   1   4  203.75    4.15
   3   1   4  193.87    4.19
  -4  -1  -4   10.17    0.25
   4   1   4   10.00    0.27
   4   1   4   10.18    0.27
   4   1   4   10.09    0.28
   4   1   4   10.28    0.26
   4   1   4    9.75    0.24
  -5  -1  -4   18.34    0.44
   5   1   4   18.33    0.42
   5   1   4   19.49    0.47
   5   1   4   19.20    0.46
   5   1   4   18.55    0.45
   6   1   4    0.48    0.05
   6   1   4    0.40    0.06
   6   1   4    0.47    0.06
   6   1   4    0.51    0.07
   7   1   4    0.33    0.05
   7   1   4    0.19    0.06
   7   1   4    0.21    0.04
   7   1   4    0.30    0.05
   7   1   4    0.23    0.06
   7   1   4    0.19    0.05
   8   1   4    2.36    0.12
   8   1   4    2.31    0.11
   8   1   4    2.28    0.15
   8   1   4    2.32    0.11
   8   1   4    2.33    0.11
   9   1   4   13.47    0.35
   9   1   4   13.05    0.34
   9   1   4   12.53    0.34
   9   1   4   12.88    0.34
   9   1   4   12.47    0.33
 -10  -1  -4    0.81    0.08
  10   1   4    0.87    0.08
  10   1   4    0.70    0.08
  10   1   4    0.66    0.07
 -11  -1  -4    0.42    0.06
  11   1   4    0.36    0.06
  11   1   4    0.35    0.06
 -12  -1  -4    0.08    0.04
  12   1   4    0.14    0.04
  12   1   4    0.13    0.04
  11  -2  -4    0.93    0.06
  10  -2  -4    0.53    0.06
  10  -2  -4    0.43    0.05
   9  -2  -4    0.32    0.06
   9  -2  -4    0.41    0.06
   8  -2  -4    4.75    0.17
   8  -2  -4    4.87    0.17
   7  -2  -4    0.19    0.05
   7  -2  -4    0.11    0.05
   7  -2  -4    0.07    0.04
   7  -2  -4    0.09    0.02
   6  -2  -4    8.37    0.23
   6  -2  -4    8.65    0.24
   6  -2  -4    8.74    0.27
  -6   2   4    8.90    0.30
   5  -2  -4    4.22    0.14
   5  -2  -4    4.31    0.18
   5  -2  -4    4.56    0.16
  -5   2   4    4.39    0.18
   4  -2  -4    0.89    0.06
   4  -2  -4    0.69    0.05
   4  -2  -4    0.63    0.07
  -4   2   4    0.89    0.08
   3  -2  -4    6.68    0.19
   3  -2  -4    6.44    0.21
  -3   2   4    6.50    0.21
  -3   2   4    6.50    0.21
   2  -2  -4    1.80    0.09
   2  -2  -4    1.80    0.07
  -2   2   4    1.81    0.09
  -2   2   4    1.65    0.08
   1  -2  -4    0.72    0.04
   1  -2  -4    0.86    0.04
   1  -2  -4    0.74    0.06
  -1   2   4    0.72    0.06
  -1   2   4    0.76    0.06
  -1   2   4    0.78    0.03
   0  -2  -4   39.73    0.88
   0  -2  -4   39.04    0.86
   0  -2  -4   43.92    0.87
   0   2   4   39.23    0.86
   0   2   4   40.72    0.89
   0   2   4   38.68    0.90
  -1  -2  -4    0.31    0.04
  -1  -2  -4    0.26    0.03
   1   2   4    0.28    0.04
   1   2   4    0.28    0.03
   1   2   4    0.27    0.04
   1   2   4    0.27    0.02
  -2  -2  -4   18.25    0.41
  -2  -2  -4   16.55    0.42
   2   2   4   17.26    0.41
   2   2   4   18.41    0.42
   2   2   4   17.85    0.44
   2   2   4   18.53    0.41
   2   2   4   18.21    0.41
  -3  -2  -4    1.18    0.06
   3   2   4    1.18    0.06
   3   2   4    1.27    0.07
   3   2   4    1.15    0.06
   3   2   4    1.17    0.08
  -4  -2  -4   11.78    0.29
   4   2   4   11.78    0.31
   4   2   4   11.31    0.31
   4   2   4   11.59    0.27
   4   2   4   11.64    0.30
   4   2   4   11.75    0.30
   5   2   4   25.52    0.59
   5   2   4   24.61    0.56
   5   2   4   24.76    0.60
   5   2   4   25.06    0.59
   6   2   4   14.05    0.37
   6   2   4   13.13    0.38
   6   2   4   13.81    0.33
   6   2   4   13.34    0.36
   7   2   4    3.22    0.12
   7   2   4    3.26    0.12
   7   2   4    3.42    0.13
   7   2   4    3.12    0.16
   7   2   4    2.99    0.15
   8   2   4    1.00    0.09
   8   2   4    0.96    0.08
   8   2   4    1.13    0.09
   8   2   4    0.99    0.12
   8   2   4    1.01    0.08
  -9  -2  -4    1.49    0.11
   9   2   4    1.41    0.10
   9   2   4    1.41    0.10
   9   2   4    1.38    0.10
   9   2   4    1.42    0.10
 -10  -2  -4    7.53    0.23
  10   2   4    6.84    0.23
  10   2   4    7.30    0.22
  10   2   4    7.64    0.23
 -11  -2  -4    0.04    0.05
  11   2   4    0.13    0.05
  11   2   4    0.15    0.04
 -12  -2  -4    0.50    0.05
  12   2   4    0.57    0.05
  11  -3  -4    1.68    0.07
 -11   3   4    1.81    0.09
  10  -3  -4    0.23    0.05
  10  -3  -4    0.10    0.04
   9  -3  -4    3.98    0.16
   9  -3  -4    4.06    0.15
   9  -3  -4    4.28    0.15
   8  -3  -4    7.22    0.23
   8  -3  -4    7.43    0.23
   8  -3  -4    7.38    0.22
   8  -3  -4    7.36    0.19
   8  -3  -4    7.50    0.22
   7  -3  -4    6.60    0.20
   7  -3  -4    6.73    0.21
   7  -3  -4    6.22    0.17
   7  -3  -4    6.65    0.21
   7  -3  -4    6.46    0.20
   6  -3  -4   21.85    0.50
   6  -3  -4   20.69    0.50
  -6   3   4   20.85    0.57
   5  -3  -4   19.31    0.45
   5  -3  -4   18.88    0.47
   5  -3  -4   18.89    0.51
  -5   3   4   19.52    0.51
   4  -3  -4    0.65    0.06
   4  -3  -4    0.64    0.05
   4  -3  -4    0.61    0.07
  -4   3   4    0.66    0.08
   3  -3  -4    0.75    0.05
   3  -3  -4    0.55    0.06
   3  -3  -4    0.50    0.04
  -3   3   4    0.62    0.07
  -3   3   4    0.68    0.06
   2  -3  -4   23.31    0.54
   2  -3  -4   22.40    0.51
   2  -3  -4   23.02    0.51
  -2   3   4   22.77    0.53
  -2   3   4   22.52    0.54
   1  -3  -4   28.65    0.62
   1  -3  -4   29.35    0.66
  -1   3   4   28.38    0.64
  -1   3   4   28.26    0.61
  -1   3   4   29.15    0.67
   0  -3  -4    9.85    0.24
   0  -3  -4    9.99    0.26
   0  -3  -4    9.70    0.22
   0   3   4    9.91    0.28
   0   3   4    9.45    0.24
   0   3   4    9.68    0.22
   0   3   4    9.87    0.26
  -1  -3  -4   20.86    0.45
  -1  -3  -4   20.67    0.49
  -1  -3  -4   21.03    0.47
   1   3   4   20.56    0.49
   1   3   4   21.69    0.47
   1   3   4   21.13    0.52
  -2  -3  -4    4.37    0.14
  -2  -3  -4    4.47    0.13
  -2  -3  -4    4.12    0.11
   2   3   4    4.24    0.12
   2   3   4    4.44    0.17
   2   3   4    4.36    0.13
   2   3   4    4.42    0.14
  -3  -3  -4   35.09    0.76
   3   3   4   34.99    0.76
   3   3   4   34.52    0.78
   3   3   4   34.36    0.80
   3   3   4   33.80    0.76
   4   3   4   55.83    1.19
   4   3   4   54.67    1.22
   4   3   4   56.20    1.20
   4   3   4   53.79    1.17
   4   3   4   53.88    1.22
   5   3   4   10.87    0.29
   5   3   4   10.89    0.27
   5   3   4   11.18    0.32
   5   3   4   11.15    0.30
   6   3   4    1.15    0.07
   6   3   4    1.21    0.09
   6   3   4    1.03    0.10
   6   3   4    1.07    0.08
   7   3   4    9.87    0.26
   7   3   4    9.16    0.25
   7   3   4    9.04    0.25
   7   3   4    9.36    0.29
  -8  -3  -4    0.69    0.07
   8   3   4    0.75    0.09
   8   3   4    0.68    0.07
   8   3   4    0.64    0.07
   8   3   4    0.78    0.07
  -9  -3  -4   14.68    0.38
   9   3   4   14.59    0.37
   9   3   4   14.45    0.37
   9   3   4   14.60    0.37
 -10  -3  -4    0.08    0.05
  10   3   4    0.13    0.05
  10   3   4    0.19    0.05
 -11  -3  -4    6.75    0.20
  11   3   4    6.44    0.19
 -12  -3  -4    1.51    0.08
  11  -4  -4    0.04    0.03
  10  -4  -4    2.84    0.11
  10  -4  -4    3.06    0.12
  10  -4  -4    2.81    0.11
   9  -4  -4   12.67    0.33
   9  -4  -4   12.94    0.34
   9  -4  -4   12.93    0.33
   9  -4  -4   12.60    0.30
   9  -4  -4   12.01    0.33
   8  -4  -4   45.56    0.99
   8  -4  -4   46.45    1.04
   8  -4  -4   46.01    1.02
   8  -4  -4   46.96    1.04
   8  -4  -4   46.13    1.03
   7  -4  -4  109.14    2.27
   7  -4  -4  107.16    2.27
   7  -4  -4  102.93    2.26
   7  -4  -4  105.67    2.28
   6  -4  -4   37.88    0.87
   6  -4  -4   40.01    0.88
   6  -4  -4   39.16    0.89
  -6   4   4   39.55    0.95
   5  -4  -4    1.60    0.08
   5  -4  -4    1.59    0.11
  -5   4   4    1.41    0.11
   4  -4  -4   13.65    0.33
   4  -4  -4   13.15    0.37
  -4   4   4   13.83    0.38
   3  -4  -4   38.02    0.85
   3  -4  -4   36.58    0.80
  -3   4   4   35.97    0.87
  -3   4   4   36.70    0.84
   2  -4  -4    3.75    0.11
   2  -4  -4    3.84    0.14
  -2   4   4    4.00    0.14
  -2   4   4    3.63    0.15
   1  -4  -4   20.15    0.48
   1  -4  -4   20.13    0.44
  -1   4   4   19.40    0.46
  -1   4   4   19.50    0.51
   0  -4  -4   21.60    0.51
   0  -4  -4   21.67    0.50
   0   4   4   21.18    0.47
   0   4   4   21.42    0.55
  -1  -4  -4   77.45    1.62
  -1  -4  -4   73.63    1.60
   1   4   4   74.61    1.67
   1   4   4   74.27    1.58
  -2  -4  -4   20.28    0.46
  -2  -4  -4   20.56    0.49
   2   4   4   19.66    0.48
   2   4   4   20.05    0.53
   2   4   4   19.88    0.44
   2   4   4   19.45    0.46
   3   4   4   62.67    1.36
   3   4   4   62.40    1.33
   3   4   4   59.84    1.31
   3   4   4   61.92    1.40
   4   4   4   52.67    1.16
   4   4   4   54.16    1.17
   4   4   4   54.52    1.23
   4   4   4   54.96    1.18
   5   4   4    0.18    0.04
   5   4   4    0.16    0.04
   5   4   4    0.14    0.04
   6   4   4    4.37    0.17
   6   4   4    4.20    0.16
  -7  -4  -4    8.05    0.24
   7   4   4    8.31    0.23
   7   4   4    7.98    0.26
  -8  -4  -4   11.14    0.31
   8   4   4   10.98    0.29
  -9  -4  -4   10.86    0.30
   9   4   4   10.74    0.29
 -10  -4  -4    5.02    0.18
  10   4   4    5.02    0.17
 -11  -4  -4    3.12    0.13
 -12  -4  -4    0.27    0.04
  10  -5  -4    3.81    0.13
  10  -5  -4    3.92    0.14
   9  -5  -4    0.54    0.05
   9  -5  -4    0.53    0.07
   9  -5  -4    0.50    0.06
   8  -5  -4   25.15    0.60
   8  -5  -4   25.64    0.60
   8  -5  -4   25.13    0.61
   7  -5  -4   63.39    1.40
   7  -5  -4   64.78    1.39
   7  -5  -4   62.93    1.39
   6  -5  -4    0.18    0.05
   6  -5  -4    0.25    0.05
   6  -5  -4    0.16    0.04
  -6   5   4    0.14    0.06
   5  -5  -4    0.49    0.06
   5  -5  -4    0.93    0.07
   5  -5  -4    0.48    0.07
  -5   5   4    0.44    0.07
   4  -5  -4    0.40    0.05
   4  -5  -4    0.41    0.06
  -4   5   4    0.30    0.06
   3  -5  -4    3.10    0.10
   3  -5  -4    3.40    0.14
  -3   5   4    3.19    0.14
   2  -5  -4   96.23    1.96
   2  -5  -4   94.31    2.00
  -2   5   4   86.92    2.04
  -2   5   4   94.02    2.00
   1  -5  -4   37.46    0.84
   1  -5  -4   36.99    0.80
  -1   5   4   36.46    0.83
  -1   5   4   36.05    0.88
   0  -5  -4    0.21    0.04
   0  -5  -4    0.31    0.05
   0  -5  -4    0.26    0.03
   0   5   4    0.23    0.03
   0   5   4    0.29    0.06
  -1  -5  -4   46.32    1.04
  -1  -5  -4   45.59    1.00
  -1  -5  -4   46.00    1.02
   1   5   4   46.06    1.00
   1   5   4   47.85    1.08
  -2  -5  -4   16.77    0.40
  -2  -5  -4   16.57    0.38
  -2  -5  -4   16.13    0.42
   2   5   4   16.12    0.39
   2   5   4   16.53    0.46
  -3  -5  -4    2.17    0.09
   3   5   4    2.23    0.15
   3   5   4    2.34    0.10
   4   5   4    0.77    0.07
   4   5   4    0.90    0.12
   5   5   4    4.64    0.17
   6   5   4   23.91    0.55
  -7  -5  -4   15.03    0.39
   7   5   4   15.39    0.38
  -8  -5  -4    6.45    0.22
   8   5   4    6.67    0.20
  -9  -5  -4   10.06    0.29
   9   5   4    9.89    0.27
 -10  -5  -4    0.05    0.05
  10   5   4    0.11    0.04
 -11  -5  -4    0.08    0.05
  11   5   4    0.11    0.04
  10  -6  -4    1.04    0.07
  10  -6  -4    1.18    0.08
   9  -6  -4    0.31    0.05
   9  -6  -4    0.27    0.04
   9  -6  -4    0.22    0.05
   8  -6  -4   11.60    0.32
   8  -6  -4   12.21    0.32
   8  -6  -4   12.11    0.33
   7  -6  -4    1.44    0.09
   7  -6  -4    1.26    0.10
   7  -6  -4    1.39    0.10
   6  -6  -4    2.48    0.11
   6  -6  -4    2.49    0.12
   5  -6  -4    3.34    0.13
   5  -6  -4    3.43    0.15
   5  -6  -4    3.54    0.13
  -5   6   4    3.51    0.17
   4  -6  -4    0.33    0.06
   4  -6  -4    0.44    0.05
  -4   6   4    0.42    0.07
   3  -6  -4   12.95    0.32
   3  -6  -4   13.23    0.36
  -3   6   4   13.45    0.37
   2  -6  -4    3.49    0.14
   2  -6  -4    3.56    0.12
  -2   6   4    4.32    0.19
  -2   6   4    3.57    0.15
   1  -6  -4   23.79    0.59
   1  -6  -4   24.61    0.58
   1  -6  -4   23.90    0.54
  -1   6   4   23.53    0.62
   0  -6  -4   15.21    0.40
   0  -6  -4   14.89    0.36
   0  -6  -4   15.63    0.40
   0   6   4   15.55    0.44
  -1  -6  -4    2.46    0.11
  -1  -6  -4    2.43    0.12
  -1  -6  -4    2.38    0.09
   1   6   4    2.33    0.09
   1   6   4    2.32    0.14
  -2  -6  -4    7.29    0.25
  -2  -6  -4    7.74    0.21
  -2  -6  -4    7.67    0.23
   2   6   4    7.58    0.22
   2   6   4    7.74    0.21
   2   6   4    8.23    0.28
  -3  -6  -4    5.85    0.18
  -3  -6  -4    5.92    0.19
   3   6   4    5.99    0.25
   3   6   4    6.31    0.19
   4   6   4   14.57    0.47
   4   6   4   15.31    0.39
   5   6   4    4.77    0.15
  -6  -6  -4    4.92    0.17
   6   6   4    4.68    0.16
  -7  -6  -4    5.80    0.20
   7   6   4    6.04    0.19
  -8  -6  -4    9.50    0.28
   8   6   4    9.66    0.27
  -9  -6  -4    1.23    0.11
   9   6   4    1.21    0.09
 -10  -6  -4    0.02    0.05
  10   6   4    0.05    0.04
 -11  -6  -4    2.18    0.10
  10  -7  -4    0.22    0.04
  10  -7  -4    0.21    0.04
  10  -7  -4    0.23    0.02
   9  -7  -4    0.15    0.05
   9  -7  -4    0.20    0.05
   8  -7  -4    2.47    0.13
   8  -7  -4    2.29    0.11
   8  -7  -4    2.46    0.12
   7  -7  -4    2.21    0.12
   7  -7  -4    2.17    0.12
   7  -7  -4    2.25    0.11
   6  -7  -4    3.67    0.14
   6  -7  -4    3.53    0.15
   6  -7  -4    3.57    0.15
   5  -7  -4    1.04    0.08
   5  -7  -4    1.06    0.08
   5  -7  -4    0.88    0.08
  -5   7   4    0.87    0.13
   4  -7  -4    0.88    0.07
   4  -7  -4    0.81    0.07
  -4   7   4    0.81    0.09
   3  -7  -4   36.17    0.79
   3  -7  -4   34.93    0.83
  -3   7   4   35.44    0.84
   2  -7  -4   18.96    0.48
   2  -7  -4   18.22    0.43
  -2   7   4   18.44    0.48
  -2   7   4   17.64    0.52
   1  -7  -4   55.99    1.22
   1  -7  -4   55.89    1.26
   1  -7  -4   57.70    1.28
  -1   7   4   56.05    1.31
   0  -7  -4   23.22    0.58
   0  -7  -4   22.55    0.57
   0  -7  -4   23.06    0.53
   0   7   4   22.78    0.61
  -1  -7  -4   14.45    0.40
  -1  -7  -4   14.33    0.39
  -1  -7  -4   14.13    0.35
   1   7   4   14.26    0.43
   1   7   4   13.88    0.35
  -2  -7  -4   53.32    1.19
  -2  -7  -4   52.40    1.15
  -2  -7  -4   51.10    1.21
   2   7   4   53.64    1.16
   2   7   4   52.67    1.18
   2   7   4   53.93    1.25
  -3  -7  -4    8.31    0.26
  -3  -7  -4    8.39    0.23
   3   7   4    7.88    0.31
   3   7   4    8.12    0.24
   4   7   4   13.25    0.46
   4   7   4   13.14    0.32
  -5  -7  -4   16.87    0.38
  -5  -7  -4   16.80    0.42
   5   7   4   17.03    0.41
  -6  -7  -4    5.64    0.19
   6   7   4    5.47    0.18
  -7  -7  -4    6.39    0.22
   7   7   4    6.16    0.20
  -8  -7  -4    3.48    0.16
   8   7   4    3.52    0.14
  -9  -7  -4   13.91    0.36
   9   7   4   13.71    0.35
 -10  -7  -4    2.36    0.11
  10   7   4    2.08    0.09
  10  -8  -4    0.61    0.05
   9  -8  -4    4.54    0.15
   9  -8  -4    4.40    0.15
   8  -8  -4    1.14    0.09
   8  -8  -4    0.95    0.09
   7  -8  -4   26.58    0.63
   7  -8  -4   26.41    0.62
   7  -8  -4   25.41    0.61
   6  -8  -4    0.79    0.09
   6  -8  -4    0.68    0.07
   6  -8  -4    0.70    0.07
   5  -8  -4    4.16    0.15
   5  -8  -4    4.24    0.15
   4  -8  -4    2.11    0.10
   4  -8  -4    2.15    0.10
   4  -8  -4    2.22    0.11
   3  -8  -4   10.05    0.27
   3  -8  -4   10.88    0.28
   3  -8  -4   10.68    0.29
  -3   8   4   10.32    0.33
   2  -8  -4   19.92    0.47
  -2   8   4   19.84    0.53
   1  -8  -4   34.47    0.81
   1  -8  -4   33.06    0.83
   1  -8  -4   33.99    0.76
   0  -8  -4    0.14    0.04
   0  -8  -4    0.20    0.06
   0  -8  -4    0.13    0.05
  -1  -8  -4    6.84    0.20
  -1  -8  -4    6.21    0.24
  -1  -8  -4    6.82    0.24
  -2  -8  -4   32.14    0.77
  -2  -8  -4   32.18    0.73
  -2  -8  -4   31.88    0.79
   2   8   4   30.17    0.75
   2   8   4   31.65    0.73
  -3  -8  -4   16.82    0.47
  -3  -8  -4   18.20    0.44
  -3  -8  -4   17.82    0.44
   3   8   4   17.15    0.41
  -4  -8  -4    0.48    0.07
  -4  -8  -4    0.45    0.04
   4   8   4    0.41    0.05
  -5  -8  -4    0.71    0.08
  -5  -8  -4    0.57    0.04
   5   8   4    0.61    0.06
  -6  -8  -4    0.72    0.08
   6   8   4    0.72    0.07
  -7  -8  -4   11.92    0.34
   7   8   4   12.40    0.32
  -8  -8  -4    2.53    0.13
   8   8   4    2.35    0.12
  -9  -8  -4    6.18    0.20
   9   8   4    6.40    0.19
 -10  -8  -4    0.17    0.04
   9  -9  -4    0.24    0.04
   9  -9  -4    0.16    0.03
   8  -9  -4    2.14    0.10
   8  -9  -4    2.18    0.11
   7  -9  -4    0.58    0.07
   7  -9  -4    0.40    0.06
   7  -9  -4    0.51    0.06
   6  -9  -4    0.31    0.06
   6  -9  -4    0.29    0.05
   6  -9  -4    0.27    0.05
   5  -9  -4    2.37    0.12
   5  -9  -4    2.48    0.13
   5  -9  -4    2.55    0.11
   4  -9  -4    6.14    0.19
   4  -9  -4    6.01    0.21
   4  -9  -4    6.06    0.19
   3  -9  -4    0.58    0.07
   3  -9  -4    0.65    0.07
   2  -9  -4   15.60    0.44
   2  -9  -4   16.01    0.41
   2  -9  -4   16.74    0.40
  -2   9   4   16.39    0.47
   1  -9  -4   22.69    0.53
   1  -9  -4   21.49    0.56
   1  -9  -4   21.66    0.53
   1  -9  -4   21.95    0.60
   0  -9  -4    1.45    0.09
   0  -9  -4    1.21    0.09
   0  -9  -4    1.38    0.12
   0  -9  -4    1.32    0.11
  -1  -9  -4    0.96    0.08
  -1  -9  -4    1.03    0.11
  -1  -9  -4    0.97    0.08
  -1  -9  -4    1.00    0.11
  -2  -9  -4    0.81    0.08
  -2  -9  -4    0.67    0.06
  -2  -9  -4    0.77    0.08
  -2  -9  -4    0.69    0.09
  -2  -9  -4    0.72    0.10
  -3  -9  -4    0.08    0.06
  -3  -9  -4    0.10    0.04
  -3  -9  -4    0.08    0.03
  -3  -9  -4    0.13    0.05
   3   9   4    0.21    0.04
  -4  -9  -4    0.30    0.08
  -4  -9  -4    0.45    0.07
  -4  -9  -4    0.38    0.04
   4   9   4    0.49    0.05
  -5  -9  -4    6.00    0.16
  -5  -9  -4    6.24    0.21
   5   9   4    6.07    0.19
  -6  -9  -4    0.43    0.07
   6   9   4    0.44    0.06
  -7  -9  -4    4.70    0.18
   7   9   4    4.84    0.16
  -8  -9  -4    2.23    0.12
   8   9   4    2.26    0.10
  -9  -9  -4    1.43    0.09
   9   9   4    1.54    0.08
   8 -10  -4    0.06    0.03
   8 -10  -4    0.14    0.04
   7 -10  -4    3.67    0.13
   7 -10  -4    3.57    0.14
   6 -10  -4    0.12    0.05
   6 -10  -4    0.05    0.04
   6 -10  -4    0.05    0.04
   5 -10  -4    3.94    0.16
   5 -10  -4    3.83    0.14
   4 -10  -4   11.55    0.33
   4 -10  -4   11.75    0.31
   3 -10  -4    0.36    0.06
   3 -10  -4    0.16    0.05
   3 -10  -4    0.16    0.07
   2 -10  -4    2.73    0.14
   2 -10  -4    2.81    0.12
   2 -10  -4    2.53    0.16
   1 -10  -4    5.99    0.21
   1 -10  -4    5.86    0.23
   1 -10  -4    6.11    0.20
   0 -10  -4    9.01    0.26
   0 -10  -4    8.37    0.29
   0 -10  -4    8.40    0.26
  -1 -10  -4    0.22    0.05
  -1 -10  -4    0.28    0.08
  -1 -10  -4    0.28    0.06
  -2 -10  -4    7.50    0.20
  -2 -10  -4    7.57    0.24
  -2 -10  -4    7.71    0.28
  -2 -10  -4    7.74    0.24
  -3 -10  -4    5.09    0.22
  -3 -10  -4    5.35    0.19
  -3 -10  -4    5.24    0.15
  -4 -10  -4    0.41    0.07
  -4 -10  -4    0.36    0.08
  -4 -10  -4    0.50    0.05
   4  10   4    0.40    0.05
  -5 -10  -4    0.87    0.09
  -5 -10  -4    0.80    0.06
   5  10   4    0.70    0.06
  -6 -10  -4    4.17    0.17
   6  10   4    4.22    0.15
  -7 -10  -4    2.48    0.12
   7  10   4    2.31    0.10
  -8 -10  -4    0.32    0.05
   8  10   4    0.27    0.04
   7 -11  -4    0.11    0.04
   6 -11  -4    6.76    0.21
   5 -11  -4    6.67    0.22
   4 -11  -4    0.07    0.05
   4 -11  -4    0.10    0.04
   3 -11  -4    2.13    0.12
   3 -11  -4    2.06    0.14
   3 -11  -4    1.97    0.10
   2 -11  -4    6.01    0.20
   2 -11  -4    5.96    0.21
   2 -11  -4    6.33    0.24
   1 -11  -4    8.39    0.29
   1 -11  -4    8.53    0.26
   1 -11  -4    8.15    0.25
   0 -11  -4   18.32    0.47
   0 -11  -4   19.31    0.48
   0 -11  -4   19.01    0.52
  -1 -11  -4    2.30    0.12
  -1 -11  -4    2.39    0.13
  -1 -11  -4    2.16    0.09
  -1 -11  -4    2.31    0.16
  -2 -11  -4    2.18    0.12
  -2 -11  -4    2.59    0.16
  -2 -11  -4    2.24    0.13
  -2 -11  -4    2.13    0.09
  -3 -11  -4   20.72    0.55
  -3 -11  -4   21.63    0.49
  -3 -11  -4   21.56    0.53
  -4 -11  -4   11.47    0.32
  -4 -11  -4   11.85    0.28
  -4 -11  -4   11.13    0.33
   4  11   4   11.05    0.29
  -5 -11  -4    0.96    0.05
  -5 -11  -4    0.85    0.08
   5  11   4    0.94    0.07
  -6 -11  -4    0.39    0.06
   6  11   4    0.21    0.04
  -7 -11  -4    0.61    0.06
   7  11   4    0.68    0.05
   6 -12  -4    2.78    0.11
   5 -12  -4    0.31    0.05
   4 -12  -4    0.15    0.05
   3 -12  -4    1.45    0.12
   3 -12  -4    1.34    0.10
   2 -12  -4    5.39    0.19
   2 -12  -4    5.55    0.21
   1 -12  -4    6.75    0.22
   1 -12  -4    6.82    0.25
   1 -12  -4    6.56    0.21
   0 -12  -4   13.69    0.39
   0 -12  -4   13.32    0.35
   0 -12  -4   12.49    0.35
  -1 -12  -4    6.23    0.24
  -1 -12  -4    6.15    0.17
  -1 -12  -4    6.26    0.21
  -2 -12  -4    9.90    0.31
  -2 -12  -4    9.87    0.25
  -2 -12  -4    9.59    0.28
  -3 -12  -4    1.10    0.12
  -3 -12  -4    1.29    0.10
  -3 -12  -4    1.21    0.07
  -4 -12  -4    3.34    0.14
  -4 -12  -4    3.13    0.14
  -4 -12  -4    3.36    0.10
  -5 -12  -4    5.69    0.18
  -6 -12  -4    0.25    0.04
   4 -13  -4    0.25    0.04
   3 -13  -4    0.18    0.04
   2 -13  -4    0.62    0.08
   2 -13  -4    0.45    0.06
   1 -13  -4    6.90    0.24
   1 -13  -4    7.06    0.21
   0 -13  -4    2.15    0.08
   0 -13  -4    2.26    0.14
   0 -13  -4    2.31    0.11
  -1 -13  -4    1.02    0.06
  -1 -13  -4    0.97    0.08
  -1 -13  -4    1.15    0.12
  -2 -13  -4    4.37    0.12
  -2 -13  -4    4.26    0.17
  -2 -13  -4    4.25    0.15
  -3 -13  -4    0.28    0.05
  -3 -13  -4    0.25    0.06
  -3 -13  -4    0.30    0.03
  -4 -13  -4    1.47    0.08
  -4 -13  -4    1.47    0.05
   1 -14  -4    1.11    0.08
   1 -14  -4    0.99    0.05
   0 -14  -4    0.45    0.06
   0 -14  -4    0.46    0.04
  -1 -14  -4    1.51    0.10
  -1 -14  -4    1.34    0.05
  -2 -14  -4    0.76    0.04
  -1 -10   5   15.95    0.35
   0 -10   5    1.24    0.08
   0 -10   5    1.02    0.05
   1 -10   5    0.57    0.07
   2 -10   5    0.52    0.06
   3 -10   5    0.08    0.04
   3   9  -5    0.26    0.04
  -3  -9   5    0.25    0.03
   2   9  -5    3.18    0.11
  -2  -9   5    2.95    0.13
  -2  -9   5    2.93    0.09
  -1  -9   5    5.18    0.14
  -1  -9   5    5.26    0.17
  -1  -9   5    5.56    0.19
   0  -9   5    0.31    0.05
   0  -9   5    0.31    0.07
   1  -9   5    4.75    0.16
   1  -9   5    4.73    0.19
   2  -9   5    0.96    0.10
   2  -9   5    0.88    0.08
   3  -9   5    2.73    0.14
   3  -9   5    2.71    0.11
   4  -9   5    3.33    0.15
   4   8  -5    3.59    0.12
  -4  -8   5    3.75    0.10
   3   8  -5    4.93    0.15
  -3  -8   5    4.41    0.13
  -2  -8   5   12.00    0.32
  -2  -8   5   11.37    0.33
  -2  -8   5   11.69    0.28
  -1  -8   5    0.10    0.06
  -1  -8   5    0.04    0.05
   0  -8   5    9.44    0.27
   0  -8   5    9.17    0.30
   0  -8   5    9.24    0.27
   1  -8   5    5.12    0.18
   1  -8   5    4.84    0.17
   1  -8   5    4.94    0.21
   2  -8   5    5.30    0.18
   2  -8   5    4.83    0.16
   2  -8   5    5.23    0.21
   3  -8   5   30.71    0.73
   3  -8   5   28.55    0.67
   3  -8   5   30.44    0.69
   4  -8   5    5.71    0.20
   4  -8   5    5.57    0.21
   5   7  -5    0.47    0.05
  -5  -7   5    0.42    0.03
   4   7  -5    3.35    0.12
  -4  -7   5    3.27    0.10
  -3  -7   5   18.89    0.47
  -3  -7   5   18.72    0.43
  -2  -7   5    0.11    0.05
  -2  -7   5    0.14    0.03
  -2  -7   5    0.10    0.05
  -2  -7   5    0.15    0.06
  -1  -7   5    1.38    0.10
  -1  -7   5    1.36    0.12
  -1  -7   5    1.29    0.10
   0  -7   5   13.01    0.35
   0  -7   5   13.32    0.39
   0  -7   5   13.38    0.36
   1  -7   5    7.14    0.26
   1  -7   5    7.20    0.22
   1  -7   5    7.34    0.23
   2  -7   5    5.68    0.19
   2  -7   5    5.36    0.17
   2  -7   5    5.32    0.22
   3  -7   5    0.55    0.06
   3  -7   5    0.47    0.08
   3  -7   5    0.50    0.07
   4  -7   5    8.16    0.24
   4  -7   5    7.99    0.27
   5   6  -5    1.15    0.08
  -5  -6   5    1.06    0.05
   4   6  -5    0.21    0.04
  -4  -6   5    0.17    0.04
  -3  -6   5    0.89    0.08
  -3  -6   5    0.87    0.06
  -2  -6   5    0.23    0.06
  -2  -6   5    0.26    0.07
  -2  -6   5    0.24    0.06
  -1  -6   5   24.54    0.58
  -1  -6   5   23.32    0.60
  -1  -6   5   23.97    0.58
   0  -6   5   10.95    0.33
   0  -6   5   10.98    0.30
   0  -6   5   10.89    0.30
   1  -6   5    0.23    0.06
   1  -6   5    0.21    0.04
   1  -6   5    0.16    0.06
   2  -6   5    2.26    0.10
   2  -6   5    2.23    0.14
   2  -6   5    2.26    0.12
   3  -6   5    0.90    0.10
   3  -6   5    0.85    0.06
   3  -6   5    0.78    0.08
   4  -6   5    0.10    0.05
   4  -6   5    0.07    0.05
   5  -6   5    1.58    0.10
   5   5  -5    0.26    0.05
  -5  -5   5    0.07    0.03
  -4  -5   5   11.52    0.32
  -4  -5   5   11.44    0.28
  -3  -5   5    0.19    0.05
  -3  -5   5    0.16    0.05
  -3  -5   5    0.14    0.03
  -2  -5   5   16.59    0.42
  -2  -5   5   15.94    0.41
  -2  -5   5   15.20    0.43
   1   5  -5    0.37    0.06
  -1  -5   5    0.34    0.08
  -1  -5   5    0.49    0.06
  -1  -5   5    0.32    0.06
  -1  -5   5    0.41    0.06
   0   5  -5   10.11    0.31
   0  -5   5   10.82    0.29
   0  -5   5   10.62    0.32
   0  -5   5   10.71    0.29
  -1   5  -5    2.67    0.13
   1  -5   5    2.88    0.11
   1  -5   5    2.68    0.14
   1  -5   5    2.67    0.12
  -2   5  -5   15.15    0.41
   2  -5   5   15.88    0.39
   2  -5   5   15.66    0.37
   2  -5   5   15.46    0.42
  -3   5  -5    0.63    0.08
   3  -5   5    0.76    0.09
   3  -5   5    0.59    0.06
  -4   5  -5   15.98    0.43
   4  -5   5   15.57    0.40
   4  -5   5   15.88    0.42
   5  -5   5   18.61    0.46
   7  -5   5    7.03    0.23
   8  -5   5    0.85    0.08
   9  -5   5    1.25    0.10
  10  -5   5    0.11    0.04
   7   4  -5   16.70    0.40
   6   4  -5    2.48    0.11
   5   4  -5    0.62    0.06
  -5  -4   5    0.61    0.05
   4   4  -5    8.76    0.24
  -4  -4   5    8.99    0.22
  -4  -4   5    8.52    0.25
   3   4  -5    2.12    0.10
  -3  -4   5    2.35    0.12
  -3  -4   5    2.24    0.23
  -3  -4   5    2.23    0.11
   2   4  -5    7.55    0.25
  -2  -4   5    7.70    0.23
  -2  -4   5    7.58    0.28
  -2  -4   5    8.01    0.24
   1   4  -5    3.56    0.15
  -1  -4   5    3.64    0.14
  -1  -4   5    3.64    0.14
  -1  -4   5    3.52    0.17
   0   4  -5    0.23    0.05
   0   4  -5    0.28    0.05
   0  -4   5    0.23    0.06
   0  -4   5    0.34    0.05
   0  -4   5    0.22    0.05
   0  -4   5    0.27    0.04
  -1   4  -5   31.48    0.72
  -1   4  -5   31.76    0.74
   1  -4   5   31.53    0.72
   1  -4   5   31.53    0.71
   1  -4   5   32.04    0.75
  -2   4  -5   31.45    0.70
  -2   4  -5   31.31    0.73
   2  -4   5   30.67    0.70
   2  -4   5   30.60    0.68
   2  -4   5   30.00    0.72
  -3   4  -5    3.79    0.15
  -3   4  -5    3.77    0.12
   3  -4   5    3.68    0.14
   3  -4   5    3.56    0.13
  -4   4  -5   11.38    0.33
   4  -4   5   11.73    0.30
  -5   4  -5    0.16    0.05
   5  -4   5    0.19    0.05
   5  -4   5    0.21    0.05
   6  -4   5   14.51    0.37
   6  -4   5   14.96    0.38
   7  -4   5    8.93    0.27
   8  -4   5    1.20    0.11
   8  -4   5    1.29    0.09
   9  -4   5    0.62    0.07
   9  -4   5    0.73    0.06
   9  -4   5    0.68    0.08
  10  -4   5    0.42    0.05
  10  -4   5    0.39    0.06
  11  -4   5    1.44    0.08
  11  -4   5    1.34    0.07
   9   3  -5    6.17    0.16
   8   3  -5   16.29    0.39
   7   3  -5    6.36    0.19
   6   3  -5    0.22    0.05
   5   3  -5   20.25    0.48
  -5  -3   5   19.82    0.45
   4   3  -5    1.67    0.09
  -4  -3   5    1.62    0.09
  -4  -3   5    1.52    0.07
  -4  -3   5    1.70    0.17
   3   3  -5    0.41    0.06
  -3  -3   5    0.29    0.05
  -3  -3   5    0.30    0.07
  -3  -3   5    0.28    0.05
   2   3  -5    3.02    0.14
   2   3  -5    2.95    0.12
   2   3  -5    3.38    0.14
  -2  -3   5    3.17    0.13
  -2  -3   5    2.98    0.16
  -2  -3   5    3.30    0.16
  -2  -3   5    2.98    0.17
   1   3  -5    0.84    0.07
   1   3  -5    0.89    0.07
   1   3  -5    0.96    0.07
  -1  -3   5    0.92    0.10
  -1  -3   5    0.79    0.09
  -1  -3   5    0.92    0.09
  -1  -3   5    0.89    0.07
   0   3  -5    9.57    0.27
   0   3  -5    9.36    0.26
   0   3  -5    9.29    0.26
   0  -3   5    8.97    0.28
   0  -3   5    9.19    0.24
   0  -3   5    9.14    0.33
   0  -3   5    9.33    0.28
  -1   3  -5    4.02    0.15
  -1   3  -5    3.85    0.13
  -1   3  -5    4.03    0.14
   1  -3   5    3.96    0.12
   1  -3   5    4.02    0.20
   1  -3   5    3.86    0.15
  -2   3  -5    0.94    0.07
  -2   3  -5    0.95    0.06
  -2   3  -5    0.90    0.07
   2  -3   5    0.89    0.07
   2  -3   5    0.93    0.10
   2  -3   5    0.85    0.05
  -3   3  -5    0.58    0.06
  -3   3  -5    0.58    0.05
  -3   3  -5    0.56    0.07
   3  -3   5    0.54    0.05
   3  -3   5    0.47    0.06
   3  -3   5    0.50    0.09
  -4   3  -5    1.92    0.07
  -4   3  -5    1.88    0.11
   4  -3   5    1.67    0.13
   4  -3   5    1.78    0.11
   4  -3   5    1.85    0.09
  -5   3  -5   21.56    0.49
   5  -3   5   21.74    0.51
   5  -3   5   22.06    0.57
   5  -3   5   22.02    0.59
   6  -3   5   10.79    0.28
   6  -3   5   11.08    0.30
   6  -3   5   10.53    0.29
   6  -3   5   11.10    0.35
   7  -3   5    8.03    0.23
   7  -3   5    7.81    0.24
   7  -3   5    8.31    0.25
   8  -3   5    0.80    0.08
   8  -3   5    0.78    0.08
   8  -3   5    0.75    0.06
   9  -3   5    0.21    0.04
   9  -3   5    0.24    0.06
   9  -3   5    0.24    0.05
  10  -3   5    0.87    0.08
  10  -3   5    0.71    0.08
  11  -3   5    5.21    0.16
  11  -3   5    5.45    0.17
   9   2  -5    5.18    0.15
   8   2  -5   16.26    0.40
   7   2  -5   11.40    0.30
   6   2  -5    5.52    0.18
   5   2  -5    0.94    0.08
  -5  -2   5    0.92    0.05
   4   2  -5    1.54    0.10
   4   2  -5    1.83    0.12
  -4  -2   5    1.72    0.13
   3   2  -5   22.09    0.55
  -3  -2   5   22.00    0.57
   2   2  -5    8.42    0.24
   2   2  -5    8.43    0.25
   2   2  -5    8.90    0.26
  -2  -2   5    8.66    0.30
  -2  -2   5    9.18    0.28
  -2  -2   5    9.06    0.24
  -2  -2   5    8.35    0.29
   1   2  -5    4.37    0.16
   1   2  -5    4.35    0.14
   1   2  -5    4.19    0.15
  -1  -2   5    4.33    0.14
  -1  -2   5    4.24    0.17
  -1  -2   5    4.18    0.16
  -1  -2   5    4.32    0.19
   0   2  -5   32.59    0.73
   0   2  -5   31.39    0.72
   0   2  -5   31.67    0.72
   0  -2   5   32.51    0.75
   0  -2   5   31.65    0.74
   0  -2   5   32.91    0.80
   0  -2   5   31.97    0.71
  -1   2  -5    2.79    0.10
  -1   2  -5    2.63    0.10
  -1   2  -5    2.67    0.11
   1  -2   5    2.81    0.12
   1  -2   5    2.87    0.09
   1  -2   5    2.75    0.15
  -2   2  -5   24.18    0.56
  -2   2  -5   24.09    0.53
   2  -2   5   23.67    0.62
   2  -2   5   23.58    0.56
   2  -2   5   22.73    0.52
   2  -2   5   24.13    0.57
  -3   2  -5    4.01    0.15
  -3   2  -5    3.99    0.12
   3  -2   5    4.11    0.14
   3  -2   5    4.00    0.15
   3  -2   5    3.93    0.18
  -4   2  -5    5.80    0.15
   4  -2   5    5.55    0.19
   4  -2   5    5.36    0.22
   4  -2   5    5.44    0.17
   4  -2   5    5.82    0.21
  -5   2  -5   17.54    0.41
   5  -2   5   18.56    0.48
   5  -2   5   17.60    0.46
   6  -2   5    0.18    0.06
   6  -2   5    0.15    0.04
   6  -2   5    0.19    0.04
   6  -2   5    0.17    0.03
   7  -2   5    3.21    0.11
   7  -2   5    3.26    0.13
   7  -2   5    3.10    0.17
   7  -2   5    3.21    0.14
   7  -2   5    3.06    0.13
   8  -2   5   12.30    0.33
   8  -2   5   12.14    0.34
   8  -2   5   12.46    0.31
   9  -2   5    0.99    0.09
   9  -2   5    0.98    0.09
   9  -2   5    0.91    0.08
  10  -2   5    1.85    0.11
  10  -2   5    1.86    0.12
  10  -2   5    1.72    0.10
  11  -2   5    0.05    0.05
  11  -2   5    0.12    0.04
  12  -2   5    0.09    0.04
  10   1  -5    0.16    0.03
   9   1  -5    6.65    0.19
   8   1  -5    0.19    0.05
   7   1  -5    0.17    0.05
   6   1  -5    3.96    0.15
   5   1  -5    1.21    0.10
   5   1  -5    1.27    0.08
  -5  -1   5    1.23    0.12
   4   1  -5    5.98    0.21
  -4  -1   5    6.01    0.23
   3   1  -5   72.76    1.58
  -3  -1   5   71.62    1.60
   2   1  -5   19.85    0.47
   2   1  -5   20.81    0.49
   2   1  -5   19.93    0.49
  -2  -1   5   20.85    0.51
  -2  -1   5   20.32    0.53
  -2  -1   5   20.26    0.47
  -2  -1   5   19.98    0.53
   1   1  -5   31.81    0.73
   1   1  -5   32.47    0.72
   1   1  -5   33.04    0.74
  -1  -1   5   32.93    0.77
  -1  -1   5   32.57    0.75
  -1  -1   5   31.92    0.78
  -1  -1   5   32.24    0.72
   0   1  -5    0.85    0.06
   0   1  -5    0.72    0.05
   0   1  -5    0.74    0.05
   0  -1   5    0.92    0.08
   0  -1   5    0.77    0.06
   0  -1   5    0.78    0.07
   0  -1   5    0.69    0.05
  -1   1  -5    0.62    0.05
  -1   1  -5    0.69    0.06
   1  -1   5    0.75    0.08
   1  -1   5    0.61    0.06
   1  -1   5    0.62    0.04
   1  -1   5    0.67    0.06
  -2   1  -5  115.71    2.40
  -2   1  -5  116.96    2.42
   2  -1   5  116.44    2.43
   2  -1   5  110.00    2.38
   2  -1   5  113.89    2.43
   2  -1   5  112.29    2.47
  -3   1  -5   82.03    1.70
   3  -1   5   83.03    1.74
   3  -1   5   80.89    1.73
   3  -1   5   77.71    1.77
   3  -1   5   76.86    1.68
   3  -1   5   81.43    1.72
  -4   1  -5    0.71    0.05
   4  -1   5    0.67    0.06
   4  -1   5    0.69    0.08
   4  -1   5    0.72    0.07
   4  -1   5    0.70    0.08
  -5   1  -5    1.64    0.07
   5  -1   5    1.38    0.09
   5  -1   5    1.45    0.10
   5  -1   5    1.35    0.08
   5  -1   5    1.34    0.06
  -6   1  -5    1.57    0.08
   6  -1   5    1.32    0.10
   6  -1   5    1.42    0.09
   6  -1   5    1.40    0.09
   6  -1   5    1.43    0.07
   6  -1   5    1.48    0.11
   7  -1   5   22.72    0.53
   7  -1   5   22.91    0.51
   7  -1   5   21.39    0.59
   7  -1   5   21.85    0.52
   7  -1   5   21.92    0.53
   8  -1   5   15.20    0.39
   8  -1   5   15.94    0.40
   8  -1   5   15.29    0.40
   9  -1   5    0.70    0.08
   9  -1   5    0.82    0.08
   9  -1   5    0.70    0.08
  10  -1   5    5.23    0.19
  10  -1   5    5.67    0.20
  10  -1   5    5.32    0.18
  11  -1   5    8.52    0.24
  11  -1   5    8.50    0.25
  12  -1   5    9.54    0.25
  12  -1   5    9.48    0.24
  10   0  -5    2.21    0.09
   9   0  -5    0.91    0.08
   8   0  -5    0.40    0.06
   7   0  -5    1.48    0.09
   6   0  -5   11.18    0.30
   5   0  -5   14.99    0.41
   5   0  -5   15.35    0.39
  -5   0   5   15.18    0.44
   4   0  -5    6.46    0.22
  -4   0   5    6.62    0.24
   3   0  -5   11.65    0.31
  -3   0   5   11.50    0.33
   2   0  -5   23.93    0.54
   2   0  -5   24.34    0.57
   2   0  -5   24.09    0.56
  -2   0   5   24.97    0.61
  -2   0   5   24.70    0.60
  -2   0   5   24.17    0.58
  -2   0   5   23.18    0.55
   1   0  -5   72.76    1.58
   1   0  -5   74.02    1.59
   1   0  -5   73.22    1.57
  -1   0   5   73.40    1.63
  -1   0   5   76.41    1.60
  -1   0   5   74.24    1.62
  -1   0   5   73.89    1.57
   0   0  -5   17.41    0.41
   0   0  -5   16.79    0.40
   0   0   5   16.32    0.39
   0   0   5   17.78    0.43
   0   0   5   17.25    0.41
   0   0   5   18.11    0.46
  -1   0  -5   58.63    1.24
  -1   0  -5   57.65    1.23
   1   0   5   57.65    1.26
   1   0   5   56.44    1.22
   1   0   5   57.91    1.29
   1   0   5   57.48    1.24
  -2   0  -5   45.88    0.99
  -2   0  -5   45.49    0.98
   2   0   5   44.00    0.96
   2   0   5   45.67    1.04
   2   0   5   45.34    0.99
   2   0   5   45.59    1.00
  -3   0  -5   38.30    0.83
   3   0   5   39.31    0.90
   3   0   5   38.97    0.85
   3   0   5   36.53    0.81
   3   0   5   38.00    0.86
  -4   0  -5    2.09    0.08
   4   0   5    2.18    0.10
   4   0   5    2.00    0.07
   4   0   5    2.00    0.11
   4   0   5    2.01    0.10
  -5   0  -5    0.51    0.05
   5   0   5    0.59    0.08
   5   0   5    0.57    0.07
   5   0   5    0.48    0.06
  -6   0  -5    1.30    0.08
   6   0   5    1.35    0.10
   6   0   5    1.34    0.07
   6   0   5    1.13    0.09
   6   0   5    1.22    0.09
   7   0   5    2.54    0.13
   7   0   5    2.03    0.14
   7   0   5    2.16    0.10
   7   0   5    2.34    0.11
   8   0   5   28.72    0.66
   8   0   5   28.26    0.65
   8   0   5   28.21    0.66
   8   0   5   27.73    0.65
   9   0   5    6.02    0.20
   9   0   5    5.75    0.19
   9   0   5    5.98    0.20
   9   0   5    6.05    0.21
  10   0   5    2.74    0.13
  10   0   5    2.49    0.12
  10   0   5    2.74    0.14
  11   0   5    3.62    0.15
  11   0   5    3.54    0.14
  12   0   5    2.11    0.09
  12   0   5    1.92    0.09
  10  -1  -5    0.30    0.04
   9  -1  -5    2.47    0.11
   8  -1  -5    5.04    0.18
   7  -1  -5    8.69    0.25
   6  -1  -5    0.49    0.07
   6  -1  -5    0.53    0.06
  -6   1   5    0.51    0.14
   5  -1  -5    1.78    0.11
  -5   1   5    1.82    0.13
   4  -1  -5    4.06    0.15
  -4   1   5    4.03    0.17
   3  -1  -5    4.76    0.16
  -3   1   5    4.85    0.18
   2  -1  -5   25.79    0.58
  -2   1   5   24.45    0.61
  -2   1   5   25.11    0.59
   1  -1  -5    0.31    0.04
   1  -1  -5    0.25    0.04
  -1   1   5    0.19    0.04
  -1   1   5    0.32    0.04
  -1   1   5    0.34    0.06
   0  -1  -5    6.95    0.19
   0  -1  -5    7.14    0.19
   0   1   5    7.11    0.23
   0   1   5    7.33    0.22
   0   1   5    6.99    0.19
   0   1   5    7.26    0.19
  -1  -1  -5   19.62    0.44
  -1  -1  -5   19.38    0.44
   1   1   5   19.51    0.44
   1   1   5   19.03    0.43
   1   1   5   19.06    0.49
   1   1   5   18.66    0.46
  -2  -1  -5    1.20    0.06
   2   1   5    1.16    0.07
   2   1   5    1.21    0.07
   2   1   5    1.26    0.07
   2   1   5    1.43    0.09
   2   1   5    1.32    0.05
  -3  -1  -5   24.02    0.54
   3   1   5   23.55    0.56
   3   1   5   22.86    0.52
   3   1   5   23.98    0.59
   3   1   5   24.77    0.56
   3   1   5   24.51    0.55
  -4  -1  -5    0.68    0.05
   4   1   5    0.77    0.07
   4   1   5    0.71    0.07
   4   1   5    0.81    0.07
   4   1   5    0.72    0.04
   4   1   5    0.74    0.07
  -5  -1  -5   14.24    0.35
   5   1   5   14.51    0.38
   5   1   5   14.52    0.38
   5   1   5   14.51    0.37
   5   1   5   13.97    0.33
  -6  -1  -5   27.28    0.64
   6   1   5   27.65    0.67
   6   1   5   27.24    0.61
   6   1   5   27.04    0.66
   6   1   5   27.16    0.67
   7   1   5   50.42    1.11
   7   1   5   52.63    1.11
   7   1   5   50.15    1.17
   7   1   5   50.22    1.11
   8   1   5   24.91    0.58
   8   1   5   24.90    0.58
   8   1   5   24.25    0.58
   8   1   5   24.19    0.58
   9   1   5    2.82    0.13
   9   1   5    2.84    0.13
   9   1   5    2.85    0.14
   9   1   5    2.99    0.14
 -10  -1  -5    0.27    0.06
  10   1   5    0.27    0.06
  10   1   5    0.32    0.06
  10   1   5    0.35    0.06
 -11  -1  -5    1.49    0.09
  11   1   5    1.62    0.10
  11   1   5    1.70    0.10
  12   1   5    0.58    0.06
  12   1   5    0.57    0.05
  10  -2  -5    2.48    0.10
   9  -2  -5    0.28    0.05
   8  -2  -5    5.94    0.19
   7  -2  -5    0.50    0.04
   7  -2  -5    0.52    0.06
   6  -2  -5    0.60    0.08
   6  -2  -5    0.51    0.06
   6  -2  -5    0.62    0.04
  -6   2   5    0.71    0.10
   5  -2  -5   21.91    0.54
  -5   2   5   21.22    0.57
   4  -2  -5    1.31    0.08
   4  -2  -5    1.41    0.07
  -4   2   5    1.19    0.10
   3  -2  -5   20.43    0.48
  -3   2   5   20.26    0.51
   2  -2  -5   90.25    1.99
   2  -2  -5   96.27    1.96
  -2   2   5   91.16    1.98
  -2   2   5   90.41    1.99
   1  -2  -5    4.30    0.13
   1  -2  -5    4.26    0.15
   1  -2  -5    4.18    0.13
  -1   2   5    4.06    0.15
  -1   2   5    4.45    0.16
  -1   2   5    4.21    0.14
  -1   2   5    4.34    0.12
   0  -2  -5   11.74    0.29
   0  -2  -5   11.55    0.28
   0  -2  -5   11.61    0.31
   0   2   5   11.05    0.28
   0   2   5   11.89    0.28
   0   2   5   11.56    0.31
   0   2   5   12.07    0.32
  -1  -2  -5   42.21    0.92
  -1  -2  -5   41.94    0.92
   1   2   5   42.81    0.97
   1   2   5   43.02    0.95
   1   2   5   42.72    0.92
  -2  -2  -5    0.28    0.04
   2   2   5    0.14    0.02
   2   2   5    0.19    0.04
   2   2   5    0.17    0.04
   2   2   5    0.26    0.04
  -3  -2  -5    8.39    0.22
   3   2   5    8.62    0.21
   3   2   5    8.80    0.25
   3   2   5    8.77    0.23
   3   2   5    8.73    0.23
   3   2   5    8.81    0.27
  -4  -2  -5   10.07    0.26
   4   2   5   10.07    0.28
   4   2   5   10.14    0.27
   4   2   5   10.11    0.25
   4   2   5   10.12    0.30
   4   2   5   10.21    0.27
  -5  -2  -5    9.56    0.26
   5   2   5    9.76    0.28
   5   2   5    9.94    0.28
   5   2   5    9.67    0.25
   5   2   5    9.87    0.29
   6   2   5    1.78    0.11
   6   2   5    1.78    0.12
   6   2   5    1.66    0.10
   6   2   5    1.63    0.08
   7   2   5    5.02    0.17
   7   2   5    4.98    0.20
   7   2   5    4.92    0.16
   7   2   5    5.09    0.17
  -8  -2  -5   20.37    0.50
   8   2   5   20.90    0.51
   8   2   5   21.60    0.51
   8   2   5   21.73    0.52
   8   2   5   21.25    0.51
  -9  -2  -5    0.17    0.05
   9   2   5    0.19    0.06
   9   2   5    0.14    0.05
   9   2   5    0.15    0.05
   9   2   5    0.26    0.06
 -10  -2  -5    2.67    0.13
  10   2   5    2.80    0.13
  10   2   5    2.77    0.12
  10   2   5    2.84    0.14
  10   2   5    2.97    0.13
 -11  -2  -5    0.20    0.05
  11   2   5    0.25    0.05
  11   2   5    0.28    0.06
 -12  -2  -5    0.72    0.06
  12   2   5    0.82    0.06
  10  -3  -5    0.09    0.04
   9  -3  -5    2.29    0.11
   9  -3  -5    2.07    0.10
   8  -3  -5    4.71    0.17
   8  -3  -5    4.56    0.13
   8  -3  -5    4.83    0.17
   8  -3  -5    5.10    0.19
   7  -3  -5   17.35    0.42
   7  -3  -5   16.75    0.39
   7  -3  -5   17.31    0.42
   7  -3  -5   16.83    0.43
   6  -3  -5    1.53    0.09
   6  -3  -5    1.45    0.09
   6  -3  -5    1.62    0.09
   6  -3  -5    1.45    0.06
  -6   3   5    1.35    0.12
   5  -3  -5    0.66    0.06
   5  -3  -5    0.68    0.06
  -5   3   5    0.64    0.09
   4  -3  -5    4.53    0.16
   4  -3  -5    4.40    0.19
   4  -3  -5    4.63    0.15
  -4   3   5    4.74    0.19
   3  -3  -5   23.72    0.54
   3  -3  -5   23.95    0.55
   3  -3  -5   23.47    0.59
  -3   3   5   24.35    0.59
   2  -3  -5    1.44    0.07
   2  -3  -5    1.75    0.07
   2  -3  -5    1.42    0.09
  -2   3   5    1.22    0.08
  -2   3   5    1.21    0.08
   1  -3  -5    0.47    0.05
   1  -3  -5    0.42    0.03
  -1   3   5    0.51    0.06
  -1   3   5    0.50    0.05
   0  -3  -5   12.66    0.34
   0  -3  -5   13.62    0.32
   0  -3  -5   12.94    0.30
   0   3   5   13.36    0.36
   0   3   5   13.69    0.30
   0   3   5   13.13    0.34
   0   3   5   13.01    0.32
  -1  -3  -5   11.22    0.30
  -1  -3  -5   10.37    0.26
  -1  -3  -5   11.53    0.28
   1   3   5   10.76    0.27
   1   3   5   11.71    0.27
   1   3   5   12.05    0.30
   1   3   5   11.68    0.32
  -2  -3  -5    1.00    0.06
   2   3   5    1.14    0.06
   2   3   5    1.11    0.07
   2   3   5    1.04    0.06
   2   3   5    1.11    0.09
  -3  -3  -5   10.78    0.28
   3   3   5   10.82    0.28
   3   3   5   10.68    0.30
   3   3   5   11.28    0.32
   3   3   5   11.39    0.28
   3   3   5   10.96    0.27
  -4  -3  -5    0.12    0.03
   4   3   5    0.12    0.04
   4   3   5    0.18    0.04
   4   3   5    0.19    0.04
   4   3   5    0.14    0.04
   4   3   5    0.15    0.03
   5   3   5   38.86    0.92
   5   3   5   39.89    0.90
   5   3   5   39.35    0.90
   5   3   5   40.52    0.87
   6   3   5    6.40    0.24
   6   3   5    6.62    0.19
   6   3   5    6.23    0.21
   6   3   5    6.67    0.22
   7   3   5    7.12    0.25
   7   3   5    7.93    0.23
   7   3   5    7.37    0.22
   7   3   5    7.57    0.22
  -8  -3  -5   12.70    0.33
   8   3   5   12.79    0.33
   8   3   5   12.56    0.33
   8   3   5   13.00    0.33
   8   3   5   12.92    0.34
  -9  -3  -5    5.86    0.20
   9   3   5    6.03    0.19
   9   3   5    5.91    0.19
   9   3   5    6.05    0.21
   9   3   5    5.77    0.19
 -10  -3  -5    0.46    0.07
  10   3   5    0.43    0.06
  10   3   5    0.34    0.05
  10   3   5    0.26    0.05
 -11  -3  -5    2.11    0.11
  11   3   5    1.94    0.10
 -12  -3  -5    0.28    0.04
  10  -4  -5    1.49    0.08
  10  -4  -5    1.60    0.08
   9  -4  -5    3.41    0.13
   9  -4  -5    3.25    0.13
   9  -4  -5    3.27    0.13
   8  -4  -5    5.17    0.18
   8  -4  -5    5.23    0.18
   8  -4  -5    5.31    0.17
   8  -4  -5    5.30    0.14
   7  -4  -5   10.29    0.28
   7  -4  -5   10.08    0.28
   7  -4  -5   10.47    0.29
   7  -4  -5    9.96    0.29
   6  -4  -5   24.72    0.57
   6  -4  -5   24.03    0.56
   6  -4  -5   23.28    0.55
   6  -4  -5   23.01    0.53
   6  -4  -5   23.31    0.56
  -6   4   5   24.96    0.75
   5  -4  -5    1.71    0.09
   5  -4  -5    1.52    0.12
   5  -4  -5    1.73    0.09
  -5   4   5    1.83    0.13
   4  -4  -5    4.39    0.14
   4  -4  -5    4.36    0.18
  -4   4   5    4.57    0.19
   3  -4  -5    9.23    0.28
   3  -4  -5    9.48    0.24
  -3   4   5    9.10    0.28
   2  -4  -5   24.32    0.56
   2  -4  -5   25.73    0.60
  -2   4   5   24.73    0.59
  -2   4   5   24.42    0.60
   1  -4  -5    2.32    0.09
   1  -4  -5    2.28    0.11
  -1   4   5    2.35    0.12
  -1   4   5    2.63    0.10
   0  -4  -5   15.76    0.39
   0   4   5   15.31    0.42
   0   4   5   15.01    0.35
   0   4   5   15.39    0.37
  -1  -4  -5    3.37    0.13
   1   4   5    3.19    0.10
   1   4   5    3.26    0.15
   1   4   5    3.08    0.10
   2   4   5   40.29    0.88
   2   4   5   41.08    0.95
   2   4   5   40.04    0.96
   3   4   5    1.20    0.06
   3   4   5    1.21    0.10
   3   4   5    1.11    0.07
   3   4   5    1.04    0.06
   3   4   5    0.99    0.08
   4   4   5    0.62    0.05
   4   4   5    0.63    0.06
   4   4   5    0.64    0.06
   4   4   5    0.74    0.09
   5   4   5   18.89    0.46
   5   4   5   18.77    0.44
   5   4   5   18.13    0.46
   6   4   5    2.23    0.11
   6   4   5    2.14    0.12
   6   4   5    2.18    0.10
  -7  -4  -5    6.12    0.20
   7   4   5    6.46    0.20
   7   4   5    6.59    0.20
   7   4   5    6.80    0.23
  -8  -4  -5    3.28    0.14
   8   4   5    3.05    0.13
   8   4   5    3.25    0.14
  -9  -4  -5    9.19    0.27
   9   4   5    9.22    0.26
 -10  -4  -5    9.50    0.27
  10   4   5    9.45    0.26
 -11  -4  -5    0.95    0.08
  11   4   5    0.88    0.07
  10  -5  -5    9.88    0.25
  10  -5  -5    9.96    0.25
   9  -5  -5   38.41    0.86
   9  -5  -5   38.44    0.83
   9  -5  -5   39.03    0.86
   8  -5  -5   17.63    0.46
   8  -5  -5   18.68    0.42
   8  -5  -5   18.45    0.45
   8  -5  -5   19.00    0.46
   7  -5  -5    0.27    0.05
   7  -5  -5    0.30    0.04
   7  -5  -5    0.28    0.05
   7  -5  -5    0.25    0.06
   6  -5  -5    0.46    0.06
   6  -5  -5    0.57    0.06
   6  -5  -5    0.46    0.06
   5  -5  -5    3.57    0.13
   5  -5  -5    3.38    0.13
  -5   5   5    3.73    0.18
   4  -5  -5    1.75    0.11
   4  -5  -5    1.73    0.09
  -4   5   5    1.70    0.12
   3  -5  -5   18.71    0.50
   3  -5  -5   19.76    0.46
  -3   5   5   19.93    0.50
   2  -5  -5    0.13    0.04
   2  -5  -5    0.14    0.03
  -2   5   5    0.23    0.05
  -2   5   5    0.16    0.04
   1  -5  -5   41.05    0.92
   1  -5  -5   38.32    0.87
  -1   5   5   40.24    0.90
  -1   5   5   40.80    0.96
   0  -5  -5    0.68    0.07
   0  -5  -5    0.45    0.04
   0   5   5    0.46    0.05
   0   5   5    0.52    0.09
  -1  -5  -5   75.80    1.65
  -1  -5  -5   80.20    1.68
  -1  -5  -5   78.96    1.70
   1   5   5   78.16    1.76
   1   5   5   76.44    1.65
   2   5   5  114.42    2.46
   2   5   5  119.29    2.57
   3   5   5    1.13    0.12
   4   5   5    8.44    0.29
   4   5   5    8.35    0.24
   5   5   5    5.97    0.20
   6   5   5   17.73    0.43
  -7  -5  -5   11.28    0.31
   7   5   5   11.50    0.30
  -8  -5  -5   15.90    0.41
   8   5   5   16.62    0.41
  -9  -5  -5    4.84    0.18
   9   5   5    4.94    0.17
 -10  -5  -5   11.88    0.32
  10   5   5   11.69    0.30
 -11  -5  -5    2.71    0.11
  11   5   5    2.58    0.10
  10  -6  -5   15.17    0.36
  10  -6  -5   15.27    0.36
   9  -6  -5   16.12    0.37
   9  -6  -5   16.53    0.41
   9  -6  -5   16.67    0.40
   8  -6  -5    3.71    0.15
   8  -6  -5    3.75    0.15
   8  -6  -5    3.54    0.14
   8  -6  -5    3.63    0.11
   7  -6  -5    2.06    0.12
   7  -6  -5    1.96    0.11
   7  -6  -5    1.79    0.11
   6  -6  -5    0.77    0.07
   6  -6  -5    0.63    0.07
   6  -6  -5    0.69    0.08
   5  -6  -5    6.95    0.21
   5  -6  -5    7.17    0.21
   5  -6  -5    7.04    0.22
  -5   6   5    7.17    0.27
   4  -6  -5    8.19    0.22
   4  -6  -5    7.63    0.22
   4  -6  -5    7.99    0.27
  -4   6   5    7.84    0.27
   3  -6  -5   10.31    0.26
   3  -6  -5    9.44    0.30
  -3   6   5   10.42    0.31
   2  -6  -5   41.14    0.88
   2  -6  -5   40.94    0.93
  -2   6   5   40.00    0.93
  -2   6   5   39.21    0.98
   1  -6  -5    2.83    0.13
   1  -6  -5    2.99    0.10
  -1   6   5    2.63    0.12
  -1   6   5    2.76    0.17
   0  -6  -5    4.99    0.18
   0  -6  -5    4.78    0.18
   0  -6  -5    5.05    0.15
   0   6   5    5.07    0.23
  -1  -6  -5    4.67    0.18
  -1  -6  -5    4.54    0.16
   1   6   5    4.57    0.22
   1   6   5    4.53    0.14
  -2  -6  -5   10.77    0.30
   2   6   5   10.01    0.36
   2   6   5   10.13    0.27
   3   6   5    0.60    0.11
   3   6   5    0.64    0.06
   4   6   5    9.56    0.28
   4   6   5    9.87    0.36
   5   6   5   21.42    0.50
  -6  -6  -5   11.98    0.32
   6   6   5   12.01    0.31
  -7  -6  -5    1.40    0.10
   7   6   5    1.43    0.09
  -8  -6  -5    0.12    0.06
   8   6   5    0.10    0.05
  -9  -6  -5    0.56    0.08
   9   6   5    0.64    0.07
 -10  -6  -5    1.04    0.09
  10   6   5    1.10    0.08
 -11  -6  -5    8.34    0.22
  11   6   5    7.76    0.21
  10  -7  -5    0.76    0.05
   9  -7  -5    0.20    0.04
   9  -7  -5    0.23    0.03
   9  -7  -5    0.18    0.04
   8  -7  -5    0.62    0.07
   8  -7  -5    0.54    0.07
   7  -7  -5    0.27    0.05
   7  -7  -5    0.27    0.06
   7  -7  -5    0.29    0.06
   6  -7  -5    0.13    0.05
   6  -7  -5    0.13    0.05
   6  -7  -5    0.32    0.06
   5  -7  -5   25.92    0.61
   5  -7  -5   26.32    0.61
   5  -7  -5   26.13    0.62
   4  -7  -5    1.14    0.09
   4  -7  -5    1.28    0.08
   4  -7  -5    1.14    0.08
  -4   7   5    1.29    0.11
   3  -7  -5    4.20    0.14
   3  -7  -5    3.97    0.14
   3  -7  -5    3.97    0.18
  -3   7   5    3.78    0.17
   2  -7  -5   62.00    1.31
   2  -7  -5   61.16    1.36
  -2   7   5   60.93    1.36
  -2   7   5   58.06    1.43
   1  -7  -5    0.20    0.04
   1  -7  -5    0.22    0.05
  -1   7   5    0.22    0.05
  -1   7   5    0.21    0.07
   0  -7  -5   11.42    0.29
   0  -7  -5   10.98    0.32
   0  -7  -5   10.76    0.33
   0   7   5   11.12    0.39
  -1  -7  -5   12.01    0.34
  -1  -7  -5   12.06    0.31
  -1  -7  -5   11.81    0.35
   1   7   5   12.17    0.42
  -2  -7  -5    1.97    0.11
  -2  -7  -5    1.95    0.09
   2   7   5    1.88    0.17
   2   7   5    2.01    0.10
   3   7   5    7.88    0.34
   3   7   5    7.85    0.23
   4   7   5    6.61    0.19
  -5  -7  -5    7.63    0.23
   5   7   5    7.70    0.21
  -6  -7  -5   12.77    0.34
   6   7   5   12.73    0.33
  -7  -7  -5    1.09    0.10
   7   7   5    1.12    0.09
  -8  -7  -5    5.67    0.20
   8   7   5    5.68    0.19
  -9  -7  -5   11.42    0.31
   9   7   5   11.01    0.29
 -10  -7  -5    0.58    0.07
  10   7   5    0.75    0.07
 -11  -7  -5    8.84    0.24
   9  -8  -5    0.10    0.02
   9  -8  -5    0.13    0.04
   9  -8  -5    0.10    0.04
   8  -8  -5    0.67    0.07
   8  -8  -5    0.82    0.08
   7  -8  -5    0.17    0.05
   7  -8  -5    0.22    0.05
   7  -8  -5    0.21    0.06
   6  -8  -5    7.67    0.24
   6  -8  -5    7.80    0.23
   6  -8  -5    7.72    0.24
   5  -8  -5   28.31    0.67
   5  -8  -5   28.74    0.69
   5  -8  -5   29.30    0.67
   4  -8  -5    0.12    0.04
   4  -8  -5    0.20    0.04
   4  -8  -5    0.16    0.05
   3  -8  -5   15.71    0.40
   3  -8  -5   16.13    0.39
   3  -8  -5   16.70    0.40
  -3   8   5   15.26    0.45
   2  -8  -5   22.01    0.52
   2  -8  -5   23.64    0.53
  -2   8   5   21.65    0.58
   1  -8  -5    5.36    0.17
   1  -8  -5    5.19    0.21
  -1   8   5    4.99    0.20
   0  -8  -5   16.60    0.46
   0  -8  -5   16.88    0.41
   0  -8  -5   16.43    0.46
  -1  -8  -5    1.31    0.10
  -1  -8  -5    1.42    0.09
  -1  -8  -5    1.28    0.11
  -2  -8  -5    6.58    0.29
  -2  -8  -5    6.37    0.20
  -3  -8  -5   42.00    0.94
  -4  -8  -5    2.24    0.12
  -4  -8  -5    2.44    0.09
  -4  -8  -5    2.22    0.13
   4   8   5    2.34    0.10
  -5  -8  -5    6.85    0.18
  -5  -8  -5    6.98    0.22
   5   8   5    6.83    0.20
  -6  -8  -5    0.51    0.07
   6   8   5    0.52    0.06
  -7  -8  -5    0.62    0.08
   7   8   5    0.46    0.06
  -8  -8  -5   10.23    0.29
   8   8   5   10.04    0.27
  -9  -8  -5    3.33    0.14
   9   8   5    3.15    0.12
 -10  -8  -5    0.34    0.05
  10   8   5    0.32    0.04
   9  -9  -5    2.04    0.08
   9  -9  -5    1.89    0.06
   8  -9  -5    1.02    0.08
   8  -9  -5    1.02    0.07
   7  -9  -5    0.56    0.07
   7  -9  -5    0.67    0.07
   6  -9  -5    4.78    0.18
   6  -9  -5    4.54    0.16
   6  -9  -5    4.44    0.16
   5  -9  -5    0.31    0.06
   5  -9  -5    0.26    0.05
   5  -9  -5    0.22    0.05
   4  -9  -5   12.93    0.33
   4  -9  -5   12.82    0.35
   4  -9  -5   12.40    0.33
   3  -9  -5    2.00    0.11
   3  -9  -5    2.08    0.10
   3  -9  -5    2.20    0.11
   2  -9  -5    1.09    0.08
   2  -9  -5    1.12    0.09
   2  -9  -5    0.95    0.10
   1  -9  -5    3.05    0.16
   1  -9  -5    3.10    0.13
   1  -9  -5    3.42    0.14
  -1   9   5    3.18    0.17
   0  -9  -5   14.54    0.43
   0  -9  -5   14.50    0.38
   0  -9  -5   15.07    0.38
   0  -9  -5   14.13    0.41
  -1  -9  -5   14.45    0.38
  -1  -9  -5   14.79    0.41
  -1  -9  -5   14.89    0.38
  -1  -9  -5   13.98    0.42
  -2  -9  -5   14.07    0.34
  -2  -9  -5   14.50    0.37
  -2  -9  -5   14.50    0.41
  -2  -9  -5   14.33    0.38
  -3  -9  -5    8.80    0.29
  -3  -9  -5    8.84    0.26
  -3  -9  -5    8.83    0.23
  -4  -9  -5    0.55    0.08
  -4  -9  -5    0.56    0.05
  -4  -9  -5    0.52    0.07
   4   9   5    0.67    0.06
  -5  -9  -5    5.51    0.20
  -5  -9  -5    5.24    0.15
   5   9   5    5.43    0.17
  -6  -9  -5    2.12    0.13
   6   9   5    2.17    0.11
  -7  -9  -5    5.38    0.20
   7   9   5    5.62    0.18
  -8  -9  -5    2.23    0.12
   8   9   5    2.29    0.11
  -9  -9  -5    5.50    0.17
   9   9   5    5.56    0.16
   8 -10  -5    0.39    0.04
   8 -10  -5    0.51    0.05
   7 -10  -5    0.56    0.06
   7 -10  -5    0.77    0.08
   6 -10  -5    4.78    0.17
   6 -10  -5    4.84    0.16
   5 -10  -5    5.35    0.17
   5 -10  -5    5.00    0.17
   5 -10  -5    5.42    0.19
   4 -10  -5   11.05    0.30
   4 -10  -5   11.63    0.32
   3 -10  -5    0.29    0.05
   3 -10  -5    0.20    0.05
   2 -10  -5    1.13    0.09
   2 -10  -5    1.10    0.12
   2 -10  -5    1.09    0.10
   1 -10  -5   17.38    0.48
   1 -10  -5   18.34    0.45
   1 -10  -5   17.78    0.46
   0 -10  -5    3.66    0.18
   0 -10  -5    3.58    0.15
   0 -10  -5    3.40    0.15
  -1 -10  -5    4.87    0.15
  -1 -10  -5    5.00    0.18
  -1 -10  -5    5.01    0.21
  -1 -10  -5    5.26    0.19
  -2 -10  -5   13.69    0.40
  -2 -10  -5   13.73    0.37
  -2 -10  -5   13.54    0.37
  -2 -10  -5   13.89    0.33
  -3 -10  -5    3.29    0.11
  -3 -10  -5    3.34    0.15
  -3 -10  -5    3.22    0.17
  -4 -10  -5    2.79    0.10
  -4 -10  -5    2.88    0.14
  -4 -10  -5    2.83    0.16
   4  10   5    2.76    0.12
  -5 -10  -5    0.52    0.08
  -5 -10  -5    0.52    0.04
   5  10   5    0.56    0.06
  -6 -10  -5    0.93    0.09
   6  10   5    0.78    0.07
  -7 -10  -5    0.96    0.09
   7  10   5    0.87    0.07
  -8 -10  -5    2.33    0.11
   8  10   5    2.36    0.09
  -9 -10  -5    1.58    0.09
   7 -11  -5    2.26    0.10
   6 -11  -5    0.21    0.05
   5 -11  -5    1.66    0.11
   4 -11  -5    5.14    0.18
   4 -11  -5    4.91    0.17
   3 -11  -5    5.07    0.18
   3 -11  -5    4.88    0.22
   3 -11  -5    4.63    0.17
   2 -11  -5    3.72    0.18
   2 -11  -5    3.77    0.16
   2 -11  -5    3.56    0.15
   1 -11  -5    0.78    0.08
   1 -11  -5    0.75    0.08
   1 -11  -5    0.73    0.10
   0 -11  -5    0.60    0.08
   0 -11  -5    0.55    0.09
   0 -11  -5    0.44    0.07
  -1 -11  -5    9.79    0.25
  -1 -11  -5    9.84    0.29
  -1 -11  -5    9.88    0.29
  -1 -11  -5    9.99    0.33
  -2 -11  -5    0.14    0.06
  -2 -11  -5    0.21    0.08
  -2 -11  -5    0.11    0.05
  -2 -11  -5    0.13    0.04
  -3 -11  -5    0.27    0.08
  -3 -11  -5    0.28    0.04
  -3 -11  -5    0.37    0.07
  -4 -11  -5    7.21    0.19
  -4 -11  -5    7.12    0.23
  -4 -11  -5    7.08    0.25
  -5 -11  -5    0.33    0.06
  -5 -11  -5    0.18    0.03
   5  11   5    0.21    0.04
  -6 -11  -5    2.92    0.13
   6  11   5    2.93    0.11
  -7 -11  -5    0.15    0.05
   7  11   5    0.12    0.03
  -8 -11  -5    0.13    0.05
   6 -12  -5    0.24    0.04
   5 -12  -5    3.13    0.12
   4 -12  -5    0.06    0.04
   3 -12  -5    0.79    0.14
   3 -12  -5    0.73    0.08
   2 -12  -5    3.67    0.15
   2 -12  -5    3.96    0.18
   1 -12  -5    0.29    0.05
   1 -12  -5    0.31    0.06
   1 -12  -5    0.32    0.08
   0 -12  -5   10.89    0.30
   0 -12  -5   10.21    0.26
   0 -12  -5    9.78    0.29
   0 -12  -5   10.38    0.33
  -1 -12  -5    8.77    0.29
  -1 -12  -5    8.35    0.22
  -1 -12  -5    8.59    0.26
  -1 -12  -5    8.13    0.26
  -2 -12  -5    0.96    0.06
  -2 -12  -5    1.10    0.11
  -2 -12  -5    1.05    0.10
  -3 -12  -5    8.31    0.25
  -3 -12  -5    7.87    0.27
  -3 -12  -5    8.17    0.21
  -4 -12  -5    0.21    0.05
  -4 -12  -5    0.10    0.05
  -4 -12  -5    0.17    0.03
  -5 -12  -5    0.69    0.07
  -6 -12  -5    2.26    0.10
   5 -13  -5    0.61    0.05
   4 -13  -5    0.22    0.04
   3 -13  -5   12.95    0.33
   2 -13  -5    2.32    0.13
   2 -13  -5    2.54    0.11
   1 -13  -5    5.51    0.21
   1 -13  -5    5.36    0.15
   1 -13  -5    5.65    0.18
   0 -13  -5   25.26    0.56
   0 -13  -5   25.41    0.60
   0 -13  -5   25.58    0.62
  -1 -13  -5    1.59    0.10
  -1 -13  -5    1.70    0.13
  -1 -13  -5    1.62    0.07
  -2 -13  -5    2.67    0.09
  -2 -13  -5    2.77    0.15
  -2 -13  -5    2.69    0.12
  -3 -13  -5    1.30    0.06
  -3 -13  -5    1.35    0.08
  -4 -13  -5    0.08    0.04
  -4 -13  -5    0.05    0.02
  -5 -13  -5    0.52    0.06
   2 -14  -5    0.47    0.05
   1 -14  -5    2.48    0.10
   1 -14  -5    2.54    0.08
  -1  14   5    2.56    0.13
   0 -14  -5    4.25    0.14
   0 -14  -5    4.40    0.12
   0  14   5    4.53    0.17
  -1 -14  -5    0.24    0.03
  -1 -14  -5    0.23    0.04
   1  14   5    0.42    0.07
  -2 -14  -5    0.16    0.03
   2  14   5    0.25    0.07
  -2  -9   6    0.38    0.03
   1   9  -6    1.16    0.07
  -1  -9   6    1.07    0.05
  -1  -9   6    0.95    0.08
   0  -9   6    0.48    0.06
   0  -9   6    0.60    0.06
   0  -9   6    0.54    0.04
   1  -9   6    0.50    0.07
   1  -9   6    0.52    0.05
   2  -9   6    2.21    0.10
   2  -9   6    2.28    0.12
   3  -9   6    0.54    0.07
   3  -9   6    0.50    0.05
   4  -9   6    1.96    0.10
   3   8  -6    0.37    0.04
  -3  -8   6    0.42    0.03
   2   8  -6    1.35    0.07
  -2  -8   6    1.26    0.09
  -2  -8   6    1.34    0.06
  -1  -8   6    1.27    0.09
  -1  -8   6    1.04    0.10
  -1  -8   6    1.00    0.06
   0  -8   6    0.20    0.05
   0  -8   6    0.22    0.06
   1  -8   6   11.11    0.32
   1  -8   6   10.51    0.29
   2  -8   6    1.37    0.09
   2  -8   6    1.63    0.12
   3  -8   6    0.11    0.06
   3  -8   6    0.12    0.04
   4  -8   6    2.69    0.12
   4  -8   6    3.10    0.15
   4   7  -6    7.09    0.19
  -4  -7   6    6.93    0.17
   3   7  -6    0.23    0.04
  -3  -7   6    0.14    0.03
  -2  -7   6   13.74    0.38
  -2  -7   6   14.21    0.33
  -2  -7   6   14.46    0.37
  -1  -7   6    2.51    0.13
  -1  -7   6    2.28    0.10
  -1  -7   6    2.36    0.12
  -1  -7   6    2.54    0.15
   0  -7   6   11.91    0.33
   0  -7   6   11.71    0.33
   0  -7   6   12.35    0.36
   1  -7   6   46.11    1.05
   1  -7   6   43.78    1.01
   1  -7   6   45.49    1.01
   2  -7   6    0.15    0.04
   2  -7   6    0.21    0.07
   2  -7   6    0.16    0.05
   3  -7   6    2.84    0.12
   3  -7   6    3.23    0.14
   3  -7   6    2.97    0.16
   4  -7   6    1.60    0.11
   4  -7   6    1.47    0.12
   5  -7   6    1.09    0.09
   5   6  -6   12.59    0.30
   4   6  -6    0.12    0.04
  -4  -6   6    0.07    0.03
  -3  -6   6    1.53    0.10
  -3  -6   6    1.63    0.08
  -2  -6   6    2.45    0.13
  -2  -6   6    2.76    0.13
  -2  -6   6    2.68    0.10
  -2  -6   6    2.59    0.15
  -1  -6   6    1.35    0.10
  -1  -6   6    1.07    0.11
  -1  -6   6    1.26    0.10
   0  -6   6   20.22    0.50
   0  -6   6   20.03    0.50
   0  -6   6   20.35    0.53
   1  -6   6   10.63    0.30
   1  -6   6   10.99    0.34
   1  -6   6   11.05    0.31
   2  -6   6    0.79    0.07
   2  -6   6    0.83    0.10
   2  -6   6    0.92    0.09
   3  -6   6    0.96    0.10
   3  -6   6    0.83    0.07
   3  -6   6    0.88    0.08
   4  -6   6    1.05    0.10
   4  -6   6    1.20    0.11
   5  -6   6    4.14    0.16
   6  -6   6   12.73    0.36
  -5  -5   6    0.27    0.03
  -4  -5   6    0.25    0.04
  -3  -5   6   27.93    0.65
  -3  -5   6   27.22    0.61
  -2  -5   6    6.70    0.23
  -2  -5   6    6.75    0.24
  -2  -5   6    6.98    0.22
  -1  -5   6    0.32    0.06
  -1  -5   6    0.30    0.06
  -1  -5   6    0.39    0.07
   0  -5   6    7.29    0.26
   0  -5   6    7.67    0.23
   0  -5   6    7.27    0.23
   1  -5   6    9.34    0.30
   1  -5   6    9.25    0.27
   1  -5   6    9.14    0.26
   2  -5   6    0.99    0.09
   2  -5   6    1.06    0.08
   2  -5   6    1.23    0.11
   3  -5   6    3.75    0.13
   3  -5   6    3.74    0.17
   3  -5   6    3.64    0.15
   4  -5   6    0.35    0.07
   4  -5   6    0.35    0.06
   5  -5   6    0.50    0.07
   6  -5   6    5.75    0.19
   6  -5   6    4.89    0.19
   7  -5   6    3.40    0.15
   8  -5   6    0.11    0.05
   9  -5   6    1.00    0.08
   7   4  -6    0.23    0.05
   6   4  -6    2.10    0.09
   5   4  -6    1.65    0.09
  -5  -4   6    1.50    0.06
   4   4  -6    0.53    0.06
  -4  -4   6    0.61    0.07
  -4  -4   6    0.52    0.05
   3   4  -6    0.27    0.05
  -3  -4   6    0.34    0.06
   2   4  -6    4.52    0.15
  -2  -4   6    4.52    0.17
  -2  -4   6    4.80    0.19
  -2  -4   6    4.94    0.18
   1   4  -6    5.26    0.21
   1   4  -6    5.20    0.17
  -1  -4   6    5.68    0.19
  -1  -4   6    5.32    0.20
  -1  -4   6    5.39    0.18
   0   4  -6    6.76    0.23
   0  -4   6    7.44    0.22
   0  -4   6    7.28    0.24
   0  -4   6    6.67    0.21
   0  -4   6    6.31    0.21
  -1   4  -6   17.19    0.46
   1  -4   6   17.58    0.43
   1  -4   6   18.70    0.43
   1  -4   6   16.04    0.48
   1  -4   6   18.18    0.47
  -2   4  -6   37.72    0.89
   2  -4   6   37.79    0.89
   2  -4   6   39.01    0.86
   2  -4   6   38.30    0.90
   2  -4   6   38.31    0.85
  -3   4  -6   10.31    0.31
   3  -4   6   10.73    0.32
   3  -4   6   10.80    0.27
   3  -4   6   10.84    0.29
   3  -4   6   10.36    0.29
  -4   4  -6    2.17    0.13
   4  -4   6    2.32    0.13
   4  -4   6    2.23    0.12
   4  -4   6    2.30    0.12
   5  -4   6   16.09    0.42
   5  -4   6   16.93    0.42
   6  -4   6    8.88    0.26
   6  -4   6    8.67    0.26
   7  -4   6    6.54    0.21
   7  -4   6    6.61    0.22
   8  -4   6    5.89    0.20
   9  -4   6    2.04    0.12
   9  -4   6    1.97    0.10
  10  -4   6    3.21    0.13
  10  -4   6    2.97    0.11
   8   3  -6    0.82    0.06
   7   3  -6   11.24    0.29
   6   3  -6    2.52    0.11
   5   3  -6    2.52    0.11
  -5  -3   6    2.28    0.08
   4   3  -6   16.55    0.41
  -4  -3   6   17.19    0.39
   3   3  -6    0.87    0.07
  -3  -3   6    0.76    0.07
   2   3  -6    1.68    0.09
   2   3  -6    1.86    0.12
  -2  -3   6    1.70    0.11
  -2  -3   6    1.74    0.13
  -2  -3   6    1.83    0.11
  -2  -3   6    1.80    0.10
   1   3  -6    2.07    0.12
  -1  -3   6    1.92    0.10
  -1  -3   6    2.18    0.11
   0   3  -6    4.79    0.18
   0   3  -6    4.82    0.19
   0  -3   6    4.75    0.20
   0  -3   6    4.72    0.16
   0  -3   6    4.94    0.16
  -1   3  -6   15.01    0.38
  -1   3  -6   14.53    0.39
   1  -3   6   14.95    0.36
   1  -3   6   14.46    0.37
   1  -3   6   14.55    0.41
  -2   3  -6   35.64    0.83
  -2   3  -6   35.90    0.81
   2  -3   6   35.96    0.80
   2  -3   6   35.49    0.84
   2  -3   6   35.79    0.79
  -3   3  -6    0.51    0.07
   3  -3   6    0.55    0.05
   3  -3   6    0.47    0.06
  -4   3  -6    4.16    0.17
   4  -3   6    4.07    0.15
   4  -3   6    4.13    0.12
  -5   3  -6    2.78    0.14
   5  -3   6    2.96    0.13
   5  -3   6    2.96    0.12
   6  -3   6   34.46    0.79
   6  -3   6   34.23    0.78
   7  -3   6   14.70    0.37
   7  -3   6   14.23    0.35
   7  -3   6   14.73    0.38
   7  -3   6   15.32    0.39
   8  -3   6    1.17    0.11
   8  -3   6    1.07    0.07
   8  -3   6    0.95    0.09
   9  -3   6    0.18    0.06
   9  -3   6    0.29    0.05
   9  -3   6    0.21    0.05
  10  -3   6    0.16    0.04
  10  -3   6    0.12    0.05
  11  -3   6    0.09    0.03
  11  -3   6    0.09    0.04
   9   2  -6    1.75    0.07
   8   2  -6    0.60    0.06
   7   2  -6   10.18    0.27
   6   2  -6    1.60    0.10
   5   2  -6    2.87    0.12
  -5  -2   6    2.85    0.09
   4   2  -6    8.33    0.23
  -4  -2   6    8.38    0.21
   3   2  -6    0.05    0.03
   3   2  -6    0.12    0.05
  -3  -2   6    0.17    0.06
   2   2  -6   21.28    0.53
  -2  -2   6   20.98    0.55
  -2  -2   6   21.27    0.50
  -2  -2   6   19.72    0.58
   1   2  -6    1.11    0.07
   1   2  -6    1.14    0.09
   1   2  -6    1.15    0.08
  -1  -2   6    1.21    0.12
  -1  -2   6    1.22    0.10
  -1  -2   6    1.19    0.10
  -1  -2   6    1.20    0.08
   0   2  -6    0.31    0.04
   0   2  -6    0.32    0.05
   0   2  -6    0.32    0.05
   0  -2   6    0.39    0.08
   0  -2   6    0.37    0.05
   0  -2   6    0.35    0.06
  -1   2  -6    2.13    0.10
  -1   2  -6    2.22    0.10
  -1   2  -6    2.35    0.11
   1  -2   6    2.20    0.15
   1  -2   6    2.22    0.09
   1  -2   6    2.09    0.12
  -2   2  -6   10.28    0.26
  -2   2  -6   10.10    0.27
  -2   2  -6    9.94    0.28
   2  -2   6    9.55    0.25
   2  -2   6   10.17    0.29
   2  -2   6    9.84    0.29
   2  -2   6    9.88    0.35
  -3   2  -6   59.03    1.26
  -3   2  -6   56.58    1.23
   3  -2   6   56.27    1.34
   3  -2   6   57.57    1.27
   3  -2   6   55.09    1.25
   3  -2   6   55.67    1.21
  -4   2  -6    0.35    0.05
  -4   2  -6    0.26    0.05
   4  -2   6    0.56    0.06
   4  -2   6    0.44    0.07
   4  -2   6    0.31    0.07
   4  -2   6    0.40    0.04
   4  -2   6    0.34    0.06
  -5   2  -6    0.85    0.09
   5  -2   6    0.85    0.05
   5  -2   6    0.91    0.08
   6  -2   6    5.88    0.18
   6  -2   6    5.98    0.24
   6  -2   6    5.81    0.16
   6  -2   6    5.88    0.19
   6  -2   6    5.94    0.20
   7  -2   6    6.92    0.22
   7  -2   6    6.54    0.19
   7  -2   6    6.65    0.21
   7  -2   6    6.68    0.21
   8  -2   6    0.91    0.09
   8  -2   6    0.76    0.07
   8  -2   6    0.94    0.08
   8  -2   6    0.80    0.08
   9  -2   6    1.13    0.08
   9  -2   6    1.13    0.10
   9  -2   6    1.00    0.10
  10  -2   6    0.31    0.06
  10  -2   6    0.30    0.06
  11  -2   6    0.12    0.04
  11  -2   6    0.13    0.05
   9   1  -6    1.54    0.08
   8   1  -6    7.86    0.22
   7   1  -6    1.59    0.10
   6   1  -6    0.38    0.06
   5   1  -6    1.06    0.08
   4   1  -6    2.71    0.14
   4   1  -6    2.82    0.11
  -4  -1   6    2.78    0.09
  -4  -1   6    2.70    0.16
   3   1  -6   37.77    0.87
  -3  -1   6   36.83    0.90
   2   1  -6   18.60    0.46
  -2  -1   6   17.70    0.51
  -2  -1   6   18.11    0.48
  -2  -1   6   18.09    0.44
   1   1  -6    0.95    0.07
   1   1  -6    0.94    0.08
   1   1  -6    1.01    0.06
  -1  -1   6    0.92    0.10
  -1  -1   6    1.05    0.07
  -1  -1   6    0.91    0.09
  -1  -1   6    1.07    0.08
   0   1  -6   10.24    0.27
   0   1  -6    9.89    0.28
   0   1  -6   10.56    0.29
   0  -1   6   10.75    0.31
   0  -1   6   10.28    0.27
   0  -1   6   10.50    0.34
  -1   1  -6    0.65    0.06
  -1   1  -6    0.62    0.06
  -1   1  -6    0.60    0.05
   1  -1   6    0.65    0.09
   1  -1   6    0.63    0.07
   1  -1   6    0.66    0.05
   1  -1   6    0.66    0.07
  -2   1  -6    1.18    0.07
  -2   1  -6    1.09    0.08
   2  -1   6    1.13    0.06
   2  -1   6    1.21    0.08
   2  -1   6    1.21    0.08
   2  -1   6    1.26    0.11
  -3   1  -6   29.64    0.65
  -3   1  -6   29.20    0.67
   3  -1   6   28.72    0.68
   3  -1   6   28.30    0.73
   3  -1   6   28.36    0.68
   3  -1   6   28.24    0.63
  -4   1  -6    0.23    0.04
   4  -1   6    0.39    0.07
   4  -1   6    0.25    0.05
   4  -1   6    0.22    0.05
   4  -1   6    0.24    0.06
   4  -1   6    0.31    0.04
  -5   1  -6    1.24    0.07
   5  -1   6    1.22    0.10
   5  -1   6    1.28    0.09
   5  -1   6    1.19    0.06
   5  -1   6    1.37    0.13
   5  -1   6    1.38    0.11
   6  -1   6   23.19    0.55
   6  -1   6   23.42    0.56
   6  -1   6   22.55    0.60
   6  -1   6   23.52    0.53
   6  -1   6   23.65    0.54
   7  -1   6    2.47    0.12
   7  -1   6    2.49    0.10
   7  -1   6    2.47    0.12
   7  -1   6    2.33    0.12
   8  -1   6    0.44    0.07
   8  -1   6    0.40    0.06
   8  -1   6    0.48    0.06
   8  -1   6    0.39    0.06
   9  -1   6    0.41    0.07
   9  -1   6    0.49    0.06
   9  -1   6    0.46    0.08
  10  -1   6    0.54    0.06
  10  -1   6    0.58    0.08
  10  -1   6    0.63    0.07
  11  -1   6    0.25    0.06
  11  -1   6    0.25    0.05
  12  -1   6    8.22    0.21
   9   0  -6    0.53    0.05
   8   0  -6    0.16    0.05
   7   0  -6    0.05    0.04
   6   0  -6    9.85    0.27
   5   0  -6    6.52    0.20
   4   0  -6   29.10    0.71
   4   0  -6   31.03    0.73
  -4   0   6   27.95    0.73
   3   0  -6   25.72    0.63
  -3   0   6   26.28    0.65
   2   0  -6    0.14    0.04
  -2   0   6    0.14    0.04
  -2   0   6    0.14    0.04
  -2   0   6    0.17    0.05
   1   0  -6    2.29    0.09
   1   0  -6    2.25    0.10
   1   0  -6    2.40    0.11
  -1   0   6    2.23    0.13
  -1   0   6    2.45    0.11
  -1   0   6    2.21    0.13
   0   0  -6   72.62    1.57
   0   0  -6   74.91    1.59
   0   0  -6   75.44    1.59
   0   0   6   72.33    1.62
   0   0   6   74.55    1.65
   0   0   6   73.97    1.59
   0   0   6   71.86    1.57
  -1   0  -6   36.93    0.82
  -1   0  -6   35.73    0.81
   1   0   6   36.52    0.82
   1   0   6   35.70    0.80
   1   0   6   37.20    0.84
   1   0   6   36.38    0.88
  -2   0  -6   11.83    0.30
  -2   0  -6   11.45    0.29
   2   0   6   11.16    0.28
   2   0   6   11.48    0.35
   2   0   6   11.89    0.32
   2   0   6   11.16    0.30
  -3   0  -6   28.89    0.66
  -3   0  -6   28.81    0.65
   3   0   6   28.76    0.67
   3   0   6   27.71    0.67
   3   0   6   30.01    0.73
   3   0   6   27.95    0.63
  -4   0  -6   10.66    0.28
   4   0   6   11.05    0.30
   4   0   6   10.53    0.26
   4   0   6   10.92    0.31
   4   0   6   10.90    0.34
   4   0   6   10.70    0.30
  -5   0  -6    7.96    0.22
   5   0   6    7.99    0.21
   5   0   6    8.26    0.26
   5   0   6    8.04    0.25
   5   0   6    8.02    0.26
   6   0   6   29.13    0.67
   6   0   6   29.62    0.73
   6   0   6   29.74    0.66
   6   0   6   29.34    0.67
   7   0   6   36.49    0.90
   7   0   6   36.81    0.84
   7   0   6   37.33    0.84
   7   0   6   38.78    0.83
   7   0   6   36.79    0.84
   8   0   6    1.71    0.10
   8   0   6    1.51    0.10
   8   0   6    1.62    0.11
   8   0   6    1.49    0.11
   9   0   6    1.84    0.11
   9   0   6    1.78    0.12
   9   0   6    1.61    0.11
   9   0   6    1.78    0.12
  10   0   6   18.95    0.46
  10   0   6   18.75    0.46
  10   0   6   17.64    0.45
  11   0   6   10.25    0.27
  11   0   6    9.58    0.27
  12   0   6    6.86    0.23
  12   0   6    6.57    0.19
  10  -1  -6    2.07    0.08
   9  -1  -6    0.46    0.05
   8  -1  -6    2.36    0.12
   7  -1  -6    1.51    0.10
   6  -1  -6   12.38    0.32
   5  -1  -6    2.39    0.13
   5  -1  -6    2.32    0.11
  -5   1   6    2.35    0.15
   4  -1  -6   18.54    0.47
  -4   1   6   17.82    0.49
   3  -1  -6   47.07    1.05
  -3   1   6   46.29    1.07
   2  -1  -6    3.26    0.13
  -2   1   6    3.21    0.15
  -2   1   6    3.02    0.13
   1  -1  -6   56.97    1.26
   1  -1  -6   59.53    1.26
  -1   1   6   57.91    1.30
  -1   1   6   56.68    1.24
  -1   1   6   58.59    1.31
  -1   1   6   56.97    1.27
   0  -1  -6    6.71    0.19
   0   1   6    6.79    0.18
   0   1   6    6.45    0.19
   0   1   6    7.03    0.23
   0   1   6    7.07    0.24
  -1  -1  -6    2.05    0.09
  -1  -1  -6    1.98    0.09
   1   1   6    2.02    0.09
   1   1   6    1.90    0.08
   1   1   6    1.98    0.12
   1   1   6    1.89    0.10
  -2  -1  -6    2.05    0.09
  -2  -1  -6    1.93    0.09
   2   1   6    2.05    0.11
   2   1   6    2.09    0.10
   2   1   6    1.96    0.08
   2   1   6    2.00    0.12
  -3  -1  -6    0.13    0.03
   3   1   6    0.13    0.03
   3   1   6    0.15    0.04
   3   1   6    0.15    0.05
   3   1   6    0.19    0.04
   3   1   6    0.11    0.04
  -4  -1  -6   15.73    0.39
   4   1   6   16.02    0.42
   4   1   6   16.33    0.41
   4   1   6   15.97    0.44
   4   1   6   16.07    0.41
   4   1   6   15.43    0.37
  -5  -1  -6    5.33    0.17
   5   1   6    5.48    0.16
   5   1   6    5.26    0.19
   5   1   6    5.16    0.19
   5   1   6    5.61    0.20
  -6  -1  -6   12.21    0.33
   6   1   6   12.45    0.32
   6   1   6   12.52    0.32
   6   1   6   12.54    0.37
   6   1   6   13.07    0.32
   6   1   6   12.87    0.37
   7   1   6   29.52    0.68
   7   1   6   29.22    0.68
   7   1   6   30.19    0.68
   7   1   6   29.87    0.68
   7   1   6   28.96    0.74
   8   1   6    7.87    0.24
   8   1   6    8.20    0.25
   8   1   6    8.31    0.24
   8   1   6    7.95    0.24
   9   1   6    8.05    0.26
   9   1   6    8.73    0.26
   9   1   6    8.50    0.25
   9   1   6    9.00    0.26
  10   1   6   26.14    0.60
  10   1   6   25.21    0.59
  10   1   6   24.29    0.60
  10   1   6   25.58    0.60
  11   1   6    0.49    0.06
  11   1   6    0.46    0.06
  12   1   6    0.97    0.07
  12   1   6    0.91    0.09
  10  -2  -6    5.47    0.15
   9  -2  -6    0.64    0.06
   8  -2  -6    1.52    0.10
   7  -2  -6    4.10    0.15
   6  -2  -6    0.88    0.08
   6  -2  -6    1.04    0.05
   5  -2  -6    0.25    0.03
   5  -2  -6    0.24    0.04
   5  -2  -6    0.20    0.05
  -5   2   6    0.21    0.06
   4  -2  -6   57.33    1.27
  -4   2   6   56.46    1.30
   3  -2  -6    0.20    0.04
  -3   2   6    0.17    0.05
   2  -2  -6    0.30    0.04
  -2   2   6    0.25    0.05
  -2   2   6    0.23    0.05
   1  -2  -6   10.36    0.27
  -1   2   6   10.11    0.28
  -1   2   6   10.58    0.32
   0  -2  -6    1.86    0.08
   0  -2  -6    1.90    0.08
   0   2   6    1.85    0.08
   0   2   6    1.84    0.10
   0   2   6    1.95    0.12
   0   2   6    1.87    0.08
  -1  -2  -6    2.46    0.10
  -1  -2  -6    2.50    0.09
   1   2   6    2.55    0.12
   1   2   6    2.46    0.09
   1   2   6    2.49    0.13
   1   2   6    2.28    0.09
  -2  -2  -6    9.47    0.25
  -2  -2  -6    9.67    0.25
   2   2   6    9.66    0.31
   2   2   6    9.65    0.24
   2   2   6    9.73    0.26
   2   2   6    9.88    0.28
  -3  -2  -6    2.24    0.10
   3   2   6    2.27    0.09
   3   2   6    2.51    0.11
   3   2   6    2.33    0.12
   3   2   6    2.48    0.11
   3   2   6    2.39    0.13
  -4  -2  -6   74.50    1.64
   4   2   6   76.74    1.68
   4   2   6   76.83    1.62
   4   2   6   77.70    1.66
   4   2   6   75.58    1.70
   4   2   6   77.24    1.66
  -5  -2  -6   37.86    0.86
   5   2   6   37.25    0.88
   5   2   6   38.83    0.84
   5   2   6   39.23    0.88
   5   2   6   37.99    0.90
  -6  -2  -6    9.19    0.27
   6   2   6    9.66    0.29
   6   2   6    9.88    0.25
   6   2   6    8.93    0.25
   6   2   6    9.36    0.30
   6   2   6    9.05    0.25
   7   2   6   13.44    0.34
   7   2   6   13.02    0.39
   7   2   6   13.83    0.35
   7   2   6   13.27    0.34
   7   2   6   13.71    0.35
   8   2   6    5.08    0.18
   8   2   6    4.88    0.18
   8   2   6    5.08    0.18
   8   2   6    4.92    0.18
   9   2   6    0.93    0.09
   9   2   6    0.87    0.08
   9   2   6    0.95    0.09
  10   2   6    3.06    0.13
  10   2   6    3.26    0.14
  10   2   6    3.10    0.14
  10   2   6    2.86    0.14
  11   2   6    0.19    0.05
  11   2   6    0.12    0.05
  12   2   6    0.59    0.06
  10  -3  -6    8.09    0.21
   9  -3  -6    0.11    0.04
   8  -3  -6    0.88    0.08
   7  -3  -6   23.64    0.56
   7  -3  -6   23.86    0.52
   6  -3  -6    5.00    0.14
   6  -3  -6    5.05    0.17
   6  -3  -6    5.10    0.17
   5  -3  -6    3.86    0.13
   5  -3  -6    3.89    0.11
   5  -3  -6    3.86    0.13
  -5   3   6    3.59    0.18
  -4   3   6    2.27    0.14
  -3   3   6    0.93    0.09
   2  -3  -6   10.81    0.28
  -2   3   6   11.41    0.31
  -2   3   6   11.23    0.33
   1  -3  -6    1.08    0.06
  -1   3   6    1.10    0.09
  -1   3   6    1.22    0.08
   0  -3  -6   14.16    0.33
   0   3   6   14.16    0.33
   0   3   6   13.35    0.35
   0   3   6   14.64    0.40
  -1  -3  -6    8.04    0.22
  -1  -3  -6    8.04    0.20
   1   3   6    7.79    0.24
   1   3   6    8.02    0.21
   1   3   6    8.01    0.26
   1   3   6    7.44    0.20
  -2  -3  -6   28.04    0.64
  -2  -3  -6   28.27    0.63
   2   3   6   28.48    0.67
   2   3   6   27.97    0.70
   2   3   6   28.15    0.64
   2   3   6   28.64    0.63
  -3  -3  -6    2.81    0.11
   3   3   6    3.03    0.10
   3   3   6    2.82    0.11
   3   3   6    2.86    0.15
   3   3   6    2.99    0.11
  -4  -3  -6    8.28    0.24
   4   3   6    8.43    0.26
   4   3   6    8.38    0.22
   4   3   6    8.15    0.24
   4   3   6    8.15    0.24
   4   3   6    8.45    0.28
  -5  -3  -6    0.43    0.06
   5   3   6    0.42    0.05
   5   3   6    0.40    0.06
   5   3   6    0.34    0.06
   5   3   6    0.27    0.06
   6   3   6   15.56    0.45
   6   3   6   15.96    0.43
   6   3   6   15.89    0.39
   6   3   6   16.28    0.39
   6   3   6   16.15    0.39
   7   3   6   13.22    0.39
   7   3   6   13.29    0.34
   7   3   6   13.97    0.35
   7   3   6   13.48    0.34
   7   3   6   12.82    0.34
   8   3   6    0.17    0.05
   8   3   6    0.24    0.06
   8   3   6    0.18    0.05
   8   3   6    0.16    0.05
  -9  -3  -6    0.34    0.08
   9   3   6    0.30    0.06
   9   3   6    0.25    0.06
   9   3   6    0.21    0.06
   9   3   6    0.26    0.06
 -10  -3  -6    6.78    0.21
  10   3   6    6.64    0.21
  10   3   6    6.79    0.21
  10   3   6    6.57    0.21
 -11  -3  -6    6.99    0.23
  11   3   6    6.79    0.20
  11   3   6    6.63    0.20
  11   3   6    7.08    0.20
  10  -4  -6    0.12    0.03
   9  -4  -6    6.24    0.18
   8  -4  -6    0.92    0.08
   8  -4  -6    0.94    0.05
   8  -4  -6    0.87    0.08
   7  -4  -6    0.34    0.05
   7  -4  -6    0.28    0.05
   7  -4  -6    0.27    0.03
   6  -4  -6    4.63    0.13
   6  -4  -6    4.54    0.18
   6  -4  -6    4.49    0.16
   6  -4  -6    4.65    0.15
   5  -4  -6   10.26    0.28
   5  -4  -6   10.52    0.25
   5  -4  -6   10.21    0.27
  -5   4   6   10.36    0.34
   4  -4  -6    0.95    0.07
   4  -4  -6    0.84    0.07
  -4   4   6    0.99    0.10
   3  -4  -6   26.93    0.61
  -3   4   6   26.47    0.66
   2  -4  -6    3.68    0.20
   2  -4  -6    3.30    0.12
  -2   4   6    3.39    0.15
  -2   4   6    3.48    0.15
   1  -4  -6    0.88    0.06
  -1   4   6    0.76    0.08
  -1   4   6    0.84    0.07
   0   4   6   13.34    0.34
   0   4   6   14.12    0.39
   1   4   6    3.96    0.13
   1   4   6    4.27    0.18
   2   4   6    0.16    0.05
   2   4   6    0.15    0.03
   3   4   6   11.74    0.36
   3   4   6   11.85    0.31
   3   4   6   11.71    0.29
   4   4   6   21.25    0.50
   4   4   6   21.43    0.51
   4   4   6   21.64    0.57
   4   4   6   21.44    0.52
   5   4   6    0.36    0.05
   5   4   6    0.30    0.05
   5   4   6    0.32    0.06
   6   4   6    0.19    0.05
   6   4   6    0.21    0.05
   6   4   6    0.22    0.05
   6   4   6    0.20    0.05
   7   4   6    2.74    0.12
   7   4   6    2.74    0.12
   7   4   6    2.52    0.12
  -8  -4  -6    2.56    0.12
   8   4   6    2.91    0.13
   8   4   6    2.86    0.13
  -9  -4  -6    0.19    0.06
   9   4   6    0.22    0.06
   9   4   6    0.18    0.06
 -10  -4  -6    1.47    0.10
  10   4   6    1.17    0.10
  10   4   6    1.14    0.09
 -11  -4  -6    3.91    0.14
  11   4   6    3.92    0.13
   9  -5  -6    5.40    0.16
   9  -5  -6    5.11    0.16
   8  -5  -6    4.37    0.12
   8  -5  -6    4.33    0.15
   8  -5  -6    4.31    0.16
   7  -5  -6    0.11    0.03
   7  -5  -6    0.12    0.05
   7  -5  -6    0.13    0.05
   7  -5  -6    0.10    0.04
   6  -5  -6    1.84    0.10
   6  -5  -6    1.92    0.10
   6  -5  -6    1.99    0.08
   6  -5  -6    2.10    0.11
   5  -5  -6    6.25    0.17
   5  -5  -6    6.21    0.19
   5  -5  -6    6.54    0.20
  -5   5   6    6.31    0.26
   4  -5  -6    8.99    0.35
   4  -5  -6    9.07    0.25
   4  -5  -6    8.65    0.24
  -4   5   6    8.76    0.30
   3  -5  -6   26.38    0.59
   3  -5  -6   25.44    0.65
  -3   5   6   25.35    0.64
   2  -5  -6    1.58    0.11
   2  -5  -6    1.68    0.08
  -2   5   6    1.65    0.10
  -2   5   6    1.70    0.11
   1  -5  -6    6.81    0.23
   1  -5  -6    6.65    0.19
  -1   5   6    7.27    0.25
  -1   5   6    6.66    0.21
   0  -5  -6    0.89    0.06
   0  -5  -6    0.98    0.08
   0   5   6    0.88    0.06
   0   5   6    0.92    0.09
   1   5   6    1.17    0.11
   1   5   6    1.19    0.07
   2   5   6   60.13    1.29
   2   5   6   59.23    1.37
   3   5   6   35.52    0.87
   3   5   6   35.70    0.80
   4   5   6    6.70    0.21
   4   5   6    6.87    0.26
   5   5   6    0.85    0.10
   6   5   6    2.99    0.12
   6   5   6    2.78    0.12
  -7  -5  -6    0.16    0.05
   7   5   6    0.21    0.05
   7   5   6    0.17    0.05
  -8  -5  -6    2.95    0.14
   8   5   6    2.88    0.13
   8   5   6    2.73    0.13
  -9  -5  -6    0.02    0.05
   9   5   6    0.08    0.05
 -10  -5  -6    0.23    0.06
  10   5   6    0.13    0.05
 -11  -5  -6    1.23    0.08
  11   5   6    1.24    0.08
   9  -6  -6    6.50    0.19
   9  -6  -6    6.46    0.16
   9  -6  -6    6.40    0.18
   8  -6  -6    0.84    0.05
   8  -6  -6    0.86    0.08
   8  -6  -6    0.86    0.08
   7  -6  -6    0.29    0.06
   7  -6  -6    0.19    0.05
   7  -6  -6    0.15    0.05
   7  -6  -6    0.14    0.03
   6  -6  -6    8.81    0.25
   6  -6  -6    8.60    0.25
   6  -6  -6    8.04    0.25
   6  -6  -6    8.27    0.21
   5  -6  -6    2.13    0.11
   5  -6  -6    2.15    0.11
   5  -6  -6    2.39    0.11
   4  -6  -6    0.36    0.05
   4  -6  -6    0.56    0.06
  -4   6   6    0.60    0.09
   3  -6  -6    7.02    0.20
   3  -6  -6    7.33    0.21
   3  -6  -6    6.95    0.25
  -3   6   6    7.15    0.25
   2  -6  -6   18.33    0.49
   2  -6  -6   19.26    0.45
  -2   6   6   19.48    0.48
  -2   6   6   17.66    0.51
   1  -6  -6   52.63    1.19
   1  -6  -6   52.14    1.14
  -1   6   6   53.02    1.23
  -1   6   6   51.83    1.17
   0  -6  -6   58.88    1.33
   0  -6  -6   60.21    1.28
   0   6   6   58.61    1.38
   0   6   6   58.66    1.29
  -1  -6  -6    1.74    0.08
   1   6   6    2.10    0.15
   2   6   6   29.19    0.78
   2   6   6   30.10    0.68
   3   6   6    0.58    0.06
   3   6   6    0.74    0.12
   4   6   6   38.85    0.89
   4   6   6   39.22    0.97
   5   6   6    6.97    0.20
  -6  -6  -6    1.55    0.10
   6   6   6    1.59    0.09
  -7  -6  -6    0.18    0.06
   7   6   6    0.16    0.05
  -8  -6  -6    1.27    0.11
   8   6   6    1.35    0.10
  -9  -6  -6    0.12    0.06
   9   6   6    0.18    0.05
 -10  -6  -6    0.16    0.05
  10   6   6    0.10    0.05
 -11  -6  -6    0.24    0.04
  11   6   6    0.17    0.04
   9  -7  -6    0.83    0.04
   9  -7  -6    0.78    0.06
   9  -7  -6    0.84    0.06
   8  -7  -6    4.31    0.12
   8  -7  -6    4.51    0.16
   8  -7  -6    4.63    0.16
   7  -7  -6    6.76    0.18
   7  -7  -6    6.86    0.21
   7  -7  -6    7.20    0.22
   7  -7  -6    6.64    0.22
   6  -7  -6    4.37    0.16
   6  -7  -6    4.27    0.16
   6  -7  -6    4.27    0.16
   5  -7  -6    8.18    0.25
   5  -7  -6    8.50    0.25
   4  -7  -6    2.60    0.11
   4  -7  -6    2.69    0.12
   4  -7  -6    2.73    0.12
  -4   7   6    2.86    0.18
   3  -7  -6    1.01    0.08
   3  -7  -6    1.05    0.07
  -3   7   6    0.89    0.10
   2  -7  -6    8.84    0.24
   2  -7  -6    8.65    0.23
   2  -7  -6    7.88    0.27
  -2   7   6    8.30    0.31
  -2   7   6    8.33    0.27
   1  -7  -6   36.53    0.78
   1  -7  -6   32.23    0.83
  -1   7   6   35.30    0.82
  -1   7   6   34.35    0.89
   0  -7  -6    0.78    0.07
   0  -7  -6    0.71    0.08
   0   7   6    0.74    0.08
   0   7   6    0.91    0.12
  -1  -7  -6    0.32    0.05
   1   7   6    0.32    0.09
   2   7   6    3.51    0.22
   3   7   6   17.75    0.45
   4   7   6   16.79    0.40
  -5  -7  -6    2.75    0.12
   5   7   6    2.69    0.11
  -6  -7  -6    5.10    0.18
   6   7   6    5.22    0.17
  -7  -7  -6    3.56    0.15
   7   7   6    3.59    0.14
  -8  -7  -6    2.40    0.13
   8   7   6    2.35    0.12
  -9  -7  -6   15.56    0.40
   9   7   6   16.49    0.40
 -10  -7  -6    2.76    0.12
  10   7   6    2.68    0.11
   9  -8  -6    0.09    0.02
   9  -8  -6    0.08    0.03
   9  -8  -6    0.06    0.03
   8  -8  -6    0.07    0.02
   8  -8  -6    0.17    0.04
   8  -8  -6    0.09    0.04
   7  -8  -6    5.05    0.17
   7  -8  -6    5.08    0.21
   7  -8  -6    5.07    0.17
   7  -8  -6    4.62    0.14
   6  -8  -6    0.48    0.07
   6  -8  -6    0.66    0.07
   6  -8  -6    0.66    0.08
   5  -8  -6    8.91    0.26
   5  -8  -6    8.96    0.27
   5  -8  -6    9.43    0.26
   4  -8  -6   10.86    0.31
   4  -8  -6   11.22    0.30
   4  -8  -6   11.22    0.30
   3  -8  -6    4.25    0.15
   3  -8  -6    4.30    0.16
   3  -8  -6    4.24    0.15
  -3   8   6    4.20    0.22
   2  -8  -6   29.98    0.70
   2  -8  -6   30.33    0.69
   2  -8  -6   29.81    0.73
   2  -8  -6   31.10    0.70
  -2   8   6   30.05    0.75
   1  -8  -6    0.86    0.07
   1  -8  -6    0.98    0.08
  -1   8   6    0.74    0.09
   0  -8  -6    0.18    0.04
   0  -8  -6    0.24    0.06
   0  -8  -6    0.24    0.05
   0   8   6    0.24    0.06
  -1  -8  -6    7.67    0.23
  -2  -8  -6    0.28    0.05
  -3  -8  -6   10.40    0.25
  -3  -8  -6   10.49    0.32
  -3  -8  -6   10.53    0.29
  -4  -8  -6   10.24    0.24
  -4  -8  -6   10.34    0.28
  -4  -8  -6    9.94    0.30
   4   8   6    9.80    0.26
  -5  -8  -6    3.39    0.10
  -5  -8  -6    3.53    0.15
   5   8   6    3.41    0.13
  -6  -8  -6    2.01    0.12
   6   8   6    1.92    0.11
  -7  -8  -6    3.88    0.17
   7   8   6    3.86    0.15
  -8  -8  -6    5.54    0.20
   8   8   6    5.63    0.18
  -9  -8  -6    5.51    0.19
   9   8   6    5.71    0.17
 -10  -8  -6    5.39    0.16
  10   8   6    5.44    0.16
   8  -9  -6    5.20    0.16
   8  -9  -6    5.14    0.16
   8  -9  -6    5.09    0.13
   7  -9  -6    1.61    0.09
   7  -9  -6    1.49    0.09
   6  -9  -6    4.90    0.18
   6  -9  -6    4.47    0.16
   6  -9  -6    5.23    0.17
   5  -9  -6   17.50    0.45
   5  -9  -6   17.24    0.43
   5  -9  -6   17.43    0.44
   4  -9  -6    4.60    0.17
   4  -9  -6    4.92    0.17
   4  -9  -6    4.63    0.18
   3  -9  -6    0.24    0.05
   3  -9  -6    0.23    0.05
   3  -9  -6    0.17    0.05
   2  -9  -6    2.17    0.11
   2  -9  -6    2.16    0.14
   2  -9  -6    2.19    0.10
   2  -9  -6    2.17    0.12
   1  -9  -6    2.36    0.11
   1  -9  -6    2.09    0.11
   1  -9  -6    2.17    0.14
  -1   9   6    2.26    0.14
   0  -9  -6   11.56    0.31
   0  -9  -6   11.39    0.31
   0  -9  -6   11.11    0.34
   0   9   6   11.12    0.34
  -1  -9  -6    1.67    0.13
  -1  -9  -6    1.55    0.10
  -1  -9  -6    1.58    0.10
  -1  -9  -6    1.47    0.07
  -2  -9  -6    1.61    0.13
  -2  -9  -6    1.65    0.12
  -2  -9  -6    1.68    0.10
  -2  -9  -6    1.53    0.07
  -3  -9  -6   11.33    0.34
  -3  -9  -6   11.67    0.28
  -3  -9  -6   11.47    0.32
  -4  -9  -6    0.70    0.08
  -4  -9  -6    0.68    0.09
  -4  -9  -6    0.78    0.05
  -5  -9  -6   10.59    0.30
  -5  -9  -6   10.30    0.25
   5   9   6   10.74    0.28
  -6  -9  -6    9.52    0.28
   6   9   6    9.94    0.27
  -7  -9  -6    4.28    0.17
   7   9   6    4.21    0.15
  -8  -9  -6    7.54    0.23
   8   9   6    7.48    0.21
  -9  -9  -6    1.55    0.09
   9   9   6    1.56    0.08
   8 -10  -6    0.27    0.04
   8 -10  -6    0.22    0.02
   7 -10  -6    1.32    0.08
   7 -10  -6    1.37    0.08
   6 -10  -6   10.49    0.29
   6 -10  -6   10.12    0.27
   5 -10  -6    9.16    0.27
   5 -10  -6    8.60    0.25
   5 -10  -6    8.98    0.25
   4 -10  -6    9.14    0.26
   4 -10  -6    8.83    0.27
   4 -10  -6    8.87    0.25
   3 -10  -6    9.09    0.27
   3 -10  -6    9.79    0.28
   3 -10  -6    9.46    0.26
   2 -10  -6    0.13    0.04
   2 -10  -6    0.11    0.05
   2 -10  -6    0.10    0.06
   1 -10  -6   34.78    0.83
   1 -10  -6   33.76    0.79
   1 -10  -6   34.45    0.79
   0 -10  -6   37.45    0.89
   0 -10  -6   37.05    0.82
   0 -10  -6   36.46    0.86
   0 -10  -6   39.14    0.86
  -1 -10  -6    6.84    0.22
  -1 -10  -6    7.30    0.23
  -1 -10  -6    7.30    0.19
  -1 -10  -6    7.06    0.26
  -2 -10  -6    0.32    0.06
  -2 -10  -6    0.28    0.04
  -2 -10  -6    0.26    0.08
  -3 -10  -6    4.65    0.18
  -3 -10  -6    4.61    0.14
  -3 -10  -6    4.19    0.20
  -4 -10  -6    0.15    0.03
  -4 -10  -6    0.25    0.06
  -4 -10  -6    0.22    0.07
  -5 -10  -6   22.41    0.49
  -5 -10  -6   23.21    0.56
   5  10   6   22.16    0.52
  -6 -10  -6    6.27    0.21
   6  10   6    5.96    0.18
  -7 -10  -6    0.09    0.05
   7  10   6    0.09    0.04
  -8 -10  -6    1.51    0.09
   8  10   6    1.49    0.08
  -9 -10  -6    0.34    0.04
   7 -11  -6    0.26    0.04
   7 -11  -6    0.23    0.03
   6 -11  -6    4.53    0.15
   6 -11  -6    4.48    0.14
   5 -11  -6    0.36    0.06
   4 -11  -6    3.01    0.14
   4 -11  -6    3.18    0.13
   3 -11  -6    0.38    0.06
   3 -11  -6    0.47    0.06
   2 -11  -6    4.98    0.18
   2 -11  -6    5.47    0.19
   2 -11  -6    5.59    0.21
   1 -11  -6    0.20    0.08
   1 -11  -6    0.35    0.06
   1 -11  -6    0.39    0.07
   0 -11  -6    6.36    0.21
   0 -11  -6    6.34    0.24
   0 -11  -6    5.88    0.17
   0 -11  -6    5.85    0.20
  -1 -11  -6    5.44    0.19
  -1 -11  -6    5.69    0.23
  -1 -11  -6    5.98    0.21
  -1 -11  -6    5.56    0.16
  -2 -11  -6    3.38    0.12
  -2 -11  -6    3.40    0.15
  -2 -11  -6    3.35    0.18
  -3 -11  -6    0.69    0.09
  -3 -11  -6    0.87    0.09
  -3 -11  -6    0.82    0.06
  -4 -11  -6    7.92    0.24
  -4 -11  -6    7.47    0.19
  -5 -11  -6   10.55    0.30
  -6 -11  -6    4.19    0.15
   6  11   6    3.74    0.13
  -7 -11  -6    1.47    0.09
   7  11   6    1.61    0.08
  -8 -11  -6    0.63    0.06
   6 -12  -6    0.53    0.06
   5 -12  -6    0.67    0.07
   4 -12  -6    0.90    0.08
   3 -12  -6    0.10    0.05
   2 -12  -6    1.28    0.10
  -2  12   6    0.90    0.11
   1 -12  -6    1.50    0.10
   1 -12  -6    1.32    0.07
   1 -12  -6    1.44    0.13
   1 -12  -6    1.28    0.10
   0 -12  -6    0.16    0.04
   0 -12  -6    0.09    0.05
   0 -12  -6    0.15    0.05
   0 -12  -6    0.13    0.07
  -1 -12  -6    0.20    0.04
  -1 -12  -6    0.19    0.05
  -1 -12  -6    0.23    0.08
  -2 -12  -6    0.11    0.03
  -2 -12  -6    0.05    0.07
  -2 -12  -6    0.06    0.05
  -3 -12  -6    0.66    0.05
  -3 -12  -6    0.63    0.09
  -3 -12  -6    0.79    0.08
  -4 -12  -6    2.24    0.08
  -4 -12  -6    2.30    0.12
   4  12   6    2.58    0.16
  -5 -12  -6    3.48    0.14
  -6 -12  -6    0.24    0.05
   5 -13  -6    0.28    0.04
   4 -13  -6    1.36    0.07
   4 -13  -6    1.31    0.07
   3 -13  -6    1.01    0.07
   3 -13  -6    1.14    0.05
   2 -13  -6   15.07    0.34
   2 -13  -6   15.13    0.37
  -2  13   6   14.69    0.38
   1 -13  -6    2.75    0.09
   1 -13  -6    2.58    0.12
  -1  13   6    2.84    0.16
   0 -13  -6    4.25    0.13
   0 -13  -6    4.45    0.16
   0 -13  -6    4.40    0.18
  -1 -13  -6    9.84    0.27
  -1 -13  -6    9.79    0.24
  -1 -13  -6   10.05    0.30
  -2 -13  -6    0.16    0.03
  -2 -13  -6    0.22    0.05
  -3 -13  -6    0.14    0.03
  -3 -13  -6    0.15    0.04
   3  13   6    0.26    0.08
  -4 -13  -6    4.01    0.14
   4  13   6    3.51    0.14
  -5 -13  -6    1.65    0.08
   2 -14  -6    6.21    0.15
   2 -14  -6    6.39    0.17
   1 -14  -6    0.92    0.05
   1 -14  -6    0.94    0.06
  -1  14   6    0.89    0.09
   0 -14  -6    4.04    0.11
   0 -14  -6    4.04    0.13
   0  14   6    4.04    0.15
  -1 -14  -6    0.89    0.05
  -1 -14  -6    0.72    0.06
   1  14   6    0.96    0.10
  -2 -14  -6    0.14    0.02
  -2 -14  -6    0.19    0.04
   2  14   6    0.20    0.05
  -2  -8   7    0.18    0.02
  -1  -8   7    0.44    0.05
  -1  -8   7    0.40    0.03
  -1  -8   7    0.42    0.06
   0  -8   7    3.54    0.14
   0  -8   7    3.38    0.12
   0  -8   7    3.25    0.10
   1  -8   7    1.11    0.10
   1  -8   7    1.16    0.08
   2  -8   7    1.31    0.08
   2  -8   7    1.15    0.10
   3  -8   7    0.40    0.05
   3  -8   7    0.42    0.07
   4  -8   7    0.18    0.04
   4  -8   7    0.29    0.06
   3   7  -7    1.98    0.08
  -3  -7   7    2.03    0.07
  -2  -7   7    0.35    0.05
  -2  -7   7    0.38    0.04
  -1  -7   7    7.88    0.23
  -1  -7   7    7.62    0.20
  -1  -7   7    7.77    0.25
   0  -7   7    1.32    0.10
   0  -7   7    1.44    0.12
   1  -7   7   13.69    0.36
   1  -7   7   13.94    0.39
   2  -7   7    3.61    0.17
   2  -7   7    3.55    0.14
   3  -7   7    0.31    0.06
   3  -7   7    0.48    0.08
   4  -7   7    3.56    0.14
   4  -7   7    3.46    0.16
   5  -7   7    8.35    0.23
   4   6  -7    5.28    0.15
  -4  -6   7    5.50    0.13
  -3  -6   7    1.79    0.07
  -2  -6   7   13.81    0.35
  -2  -6   7   13.42    0.32
  -2  -6   7   13.15    0.37
  -1  -6   7    9.81    0.27
  -1  -6   7    9.54    0.29
  -1  -6   7    8.77    0.27
   0  -6   7    0.33    0.06
   0  -6   7    0.22    0.05
   0  -6   7    0.29    0.07
   1  -6   7    7.09    0.25
   1  -6   7    7.01    0.22
   1  -6   7    6.83    0.22
   2  -6   7    5.65    0.19
   2  -6   7    5.91    0.23
   2  -6   7    5.73    0.20
   3  -6   7    0.76    0.09
   3  -6   7    0.79    0.07
   3  -6   7    0.66    0.08
   4  -6   7    8.52    0.24
   4  -6   7    9.28    0.26
   4  -6   7    9.33    0.29
   5  -6   7    9.79    0.28
   6  -6   7   16.56    0.41
   4   5  -7    2.80    0.11
  -4  -5   7    2.85    0.09
  -3  -5   7    9.50    0.27
  -3  -5   7   10.08    0.24
  -2  -5   7   26.47    0.60
  -2  -5   7   24.39    0.61
  -2  -5   7   25.63    0.63
  -1  -5   7   10.11    0.29
  -1  -5   7    9.86    0.31
  -1  -5   7    9.92    0.29
   0  -5   7    0.58    0.07
   0  -5   7    0.55    0.07
   0  -5   7    0.42    0.08
   1  -5   7    0.28    0.06
   1  -5   7    0.37    0.06
   1  -5   7    0.27    0.07
   2  -5   7    1.37    0.09
   2  -5   7    1.26    0.11
   2  -5   7    1.40    0.12
   3  -5   7    0.36    0.05
   3  -5   7    0.53    0.09
   3  -5   7    0.41    0.07
   4  -5   7    0.75    0.08
   4  -5   7    0.71    0.07
   4  -5   7    0.75    0.10
   5  -5   7   11.52    0.33
   5  -5   7   11.69    0.32
   5  -5   7   11.68    0.30
   6  -5   7    7.71    0.24
   6  -5   7    7.86    0.24
   7  -5   7    1.24    0.10
   7  -5   7    1.16    0.09
   8  -5   7    2.19    0.11
   9  -5   7    0.42    0.06
   6   4  -7    0.36    0.04
   5   4  -7    3.63    0.13
   4   4  -7    0.46    0.05
  -4  -4   7    0.42    0.04
   3   4  -7    5.70    0.18
  -3  -4   7    6.12    0.17
  -3  -4   7    5.80    0.19
   2   4  -7    2.98    0.12
  -2  -4   7    3.01    0.14
  -2  -4   7    2.72    0.15
  -2  -4   7    3.02    0.14
   1   4  -7   25.59    0.59
  -1  -4   7   25.62    0.64
  -1  -4   7   25.79    0.62
  -1  -4   7   26.15    0.61
   0  -4   7    1.87    0.11
   0  -4   7    1.76    0.13
   0  -4   7    1.57    0.10
   0  -4   7    1.96    0.11
   1  -4   7    5.87    0.19
   1  -4   7    5.40    0.22
   1  -4   7    5.71    0.19
   1  -4   7    5.31    0.19
   2  -4   7   32.38    0.79
   2  -4   7   33.88    0.75
   2  -4   7   32.62    0.75
   2  -4   7   31.55    0.75
   3  -4   7    1.11    0.09
   3  -4   7    1.26    0.11
   3  -4   7    1.09    0.08
   4  -4   7    0.20    0.06
   4  -4   7    0.15    0.04
   4  -4   7    0.22    0.06
   4  -4   7    0.26    0.06
   5  -4   7   22.70    0.54
   5  -4   7   21.61    0.51
   5  -4   7   21.88    0.54
   6  -4   7    3.48    0.15
   6  -4   7    3.03    0.13
   6  -4   7    3.52    0.15
   7  -4   7    0.26    0.06
   7  -4   7    0.23    0.06
   8  -4   7    1.38    0.10
   9  -4   7    1.64    0.10
  10  -4   7    0.11    0.04
   7   3  -7    1.77    0.08
   6   3  -7    4.42    0.14
   5   3  -7    1.78    0.10
   4   3  -7    0.12    0.04
  -4  -3   7    0.11    0.03
   3   3  -7    1.21    0.08
  -3  -3   7    1.11    0.11
   2   3  -7    1.29    0.08
  -2  -3   7    1.26    0.11
  -2  -3   7    1.29    0.10
  -2  -3   7    1.27    0.09
  -1  -3   7   27.63    0.65
  -1  -3   7   28.14    0.68
  -1  -3   7   28.85    0.67
  -1  -3   7   27.71    0.66
   0   3  -7    8.35    0.28
   0  -3   7    8.60    0.25
   0  -3   7    8.28    0.25
   0  -3   7    8.97    0.28
   0  -3   7    8.94    0.26
  -1   3  -7    0.59    0.08
   1  -3   7    0.50    0.07
   1  -3   7    0.54    0.07
   1  -3   7    0.54    0.06
   1  -3   7    0.50    0.07
  -2   3  -7   11.64    0.34
   2  -3   7   11.94    0.32
   2  -3   7   12.19    0.31
   2  -3   7   11.51    0.34
   2  -3   7   11.84    0.32
  -3   3  -7   15.22    0.43
   3  -3   7   16.45    0.39
   3  -3   7   16.61    0.43
   3  -3   7   15.89    0.41
   4  -3   7    2.09    0.09
   4  -3   7    2.04    0.12
   4  -3   7    1.98    0.11
   4  -3   7    1.98    0.12
   5  -3   7    5.72    0.17
   5  -3   7    5.77    0.20
   5  -3   7    5.80    0.20
   6  -3   7    4.75    0.15
   6  -3   7    4.51    0.18
   6  -3   7    4.52    0.17
   7  -3   7   12.79    0.34
   7  -3   7   12.34    0.31
   7  -3   7   12.77    0.35
   8  -3   7    0.45    0.07
   8  -3   7    0.34    0.07
   8  -3   7    0.42    0.05
   9  -3   7    1.58    0.11
   9  -3   7    1.59    0.09
  10  -3   7    2.85    0.11
  10  -3   7    3.27    0.13
  11  -3   7    5.53    0.16
   8   2  -7    0.73    0.05
   7   2  -7    0.18    0.04
   6   2  -7    1.84    0.10
   5   2  -7    0.27    0.05
   4   2  -7    1.51    0.09
  -4  -2   7    1.38    0.06
   3   2  -7    2.22    0.10
   2   2  -7    9.39    0.25
   2   2  -7    9.49    0.31
  -2  -2   7    9.12    0.26
  -2  -2   7    9.45    0.27
  -2  -2   7    8.87    0.28
   1   2  -7   37.40    0.88
  -1  -2   7   36.36    0.84
  -1  -2   7   38.62    0.85
  -1  -2   7   36.94    0.86
  -1  -2   7   37.38    0.84
   0   2  -7    1.87    0.11
   0  -2   7    2.13    0.11
   0  -2   7    2.00    0.10
  -1   2  -7    0.38    0.06
   1  -2   7    0.32    0.05
   1  -2   7    0.31    0.05
  -2   2  -7   28.11    0.68
   2  -2   7   28.59    0.65
   2  -2   7   28.20    0.64
  -3   2  -7   30.89    0.73
   3  -2   7   30.99    0.70
   3  -2   7   30.10    0.69
  -4   2  -7   11.76    0.35
   4  -2   7   12.23    0.30
   4  -2   7   11.87    0.32
   4  -2   7   12.30    0.32
  -5   2  -7   20.17    0.53
   5  -2   7   20.15    0.50
   5  -2   7   20.50    0.50
   5  -2   7   20.84    0.48
   6  -2   7    0.43    0.07
   6  -2   7    0.61    0.07
   6  -2   7    0.47    0.05
   7  -2   7    3.62    0.16
   7  -2   7    3.78    0.13
   7  -2   7    3.72    0.16
   7  -2   7    3.65    0.14
   8  -2   7    0.48    0.07
   8  -2   7    0.34    0.05
   8  -2   7    0.23    0.06
   8  -2   7    0.34    0.06
   9  -2   7    5.24    0.19
   9  -2   7    4.78    0.17
   9  -2   7    5.01    0.17
   9  -2   7    4.58    0.16
  10  -2   7    1.04    0.10
  10  -2   7    1.19    0.08
  11  -2   7    0.16    0.04
  11  -2   7    0.16    0.04
   8   1  -7    1.68    0.08
   7   1  -7    8.84    0.24
   6   1  -7    3.50    0.14
   5   1  -7    0.61    0.07
   4   1  -7   10.95    0.29
  -4  -1   7   11.03    0.26
   3   1  -7    5.09    0.16
   3   1  -7    5.23    0.21
  -3  -1   7    4.94    0.22
   2   1  -7    7.54    0.25
  -2  -1   7    7.52    0.27
   1   1  -7    1.70    0.10
  -1  -1   7    1.80    0.10
   0   1  -7    4.22    0.15
   0   1  -7    4.19    0.16
   0   1  -7    4.42    0.17
   0  -1   7    4.01    0.18
   0  -1   7    4.46    0.15
   0  -1   7    4.41    0.22
  -1   1  -7    3.78    0.14
  -1   1  -7    3.97    0.16
  -1   1  -7    3.96    0.15
   1  -1   7    4.22    0.14
   1  -1   7    3.97    0.21
   1  -1   7    4.14    0.18
  -2   1  -7   10.45    0.29
  -2   1  -7   10.53    0.30
   2  -1   7   10.64    0.27
   2  -1   7   10.58    0.31
   2  -1   7   10.31    0.36
   2  -1   7   10.21    0.31
  -3   1  -7   23.72    0.56
  -3   1  -7   24.00    0.58
   3  -1   7   23.39    0.59
   3  -1   7   23.76    0.66
   3  -1   7   24.21    0.54
   3  -1   7   23.37    0.59
  -4   1  -7    8.91    0.27
   4  -1   7    8.81    0.25
   4  -1   7    8.87    0.38
   4  -1   7    9.27    0.24
  -5   1  -7    0.88    0.09
   5  -1   7    0.75    0.07
   5  -1   7    0.87    0.08
   5  -1   7    0.90    0.08
   5  -1   7    0.84    0.06
   6  -1   7    0.22    0.05
   6  -1   7    0.30    0.05
   6  -1   7    0.20    0.05
   6  -1   7    0.19    0.09
   6  -1   7    0.25    0.05
   7  -1   7    0.86    0.08
   7  -1   7    0.81    0.08
   7  -1   7    0.88    0.08
   7  -1   7    0.86    0.08
   8  -1   7    2.99    0.15
   8  -1   7    2.90    0.14
   8  -1   7    2.99    0.14
   8  -1   7    3.15    0.13
   9  -1   7    1.98    0.12
   9  -1   7    2.09    0.13
   9  -1   7    2.00    0.11
   9  -1   7    1.96    0.11
  10  -1   7    0.13    0.06
  10  -1   7    0.23    0.05
  11  -1   7    0.40    0.05
  11  -1   7    0.38    0.06
   9   0  -7    1.07    0.06
   8   0  -7    1.74    0.09
   7   0  -7    2.98    0.12
   6   0  -7    0.12    0.05
   5   0  -7   39.37    0.88
   4   0  -7    0.42    0.05
  -4   0   7    0.36    0.03
   3   0  -7    0.72    0.08
   3   0  -7    0.62    0.06
  -3   0   7    0.59    0.08
   2   0  -7    4.95    0.18
  -2   0   7    4.50    0.19
  -2   0   7    4.61    0.28
   1   0  -7    2.06    0.11
  -1   0   7    1.91    0.14
  -1   0   7    1.92    0.10
   0   0  -7    4.27    0.16
   0   0  -7    4.45    0.15
   0   0  -7    4.60    0.16
   0   0   7    4.50    0.21
   0   0   7    4.41    0.15
   0   0   7    4.63    0.19
  -1   0  -7    1.08    0.08
  -1   0  -7    1.17    0.08
   1   0   7    1.28    0.07
   1   0   7    1.19    0.08
   1   0   7    1.07    0.09
   1   0   7    1.22    0.12
  -2   0  -7    5.96    0.20
  -2   0  -7    6.23    0.19
   2   0   7    6.44    0.18
   2   0   7    6.46    0.26
   2   0   7    6.22    0.22
   2   0   7    6.27    0.21
  -3   0  -7   35.42    0.80
  -3   0  -7   35.71    0.81
   3   0   7   35.08    0.82
   3   0   7   36.30    0.78
   3   0   7   34.88    0.89
   3   0   7   34.01    0.83
  -4   0  -7    2.55    0.11
   4   0   7    2.80    0.17
   4   0   7    2.61    0.13
   4   0   7    2.70    0.14
   4   0   7    2.57    0.10
   5   0   7    0.25    0.04
   5   0   7    0.20    0.06
   5   0   7    0.28    0.05
   5   0   7    0.21    0.04
   6   0   7    2.17    0.10
   6   0   7    2.16    0.15
   6   0   7    2.11    0.11
   6   0   7    2.26    0.10
   7   0   7    0.28    0.05
   7   0   7    0.18    0.05
   7   0   7    0.22    0.06
   7   0   7    0.25    0.06
   8   0   7    7.36    0.23
   8   0   7    7.73    0.24
   8   0   7    7.77    0.23
   8   0   7    7.56    0.24
   9   0   7    5.56    0.19
   9   0   7    5.66    0.20
   9   0   7    5.64    0.19
   9   0   7    5.69    0.21
  10   0   7    3.66    0.14
  10   0   7    3.68    0.15
  10   0   7    3.51    0.16
  11   0   7    4.12    0.14
  11   0   7    4.08    0.15
  12   0   7    0.53    0.05
   9  -1  -7    1.16    0.07
   8  -1  -7   14.81    0.36
   7  -1  -7    4.11    0.15
   6  -1  -7   20.15    0.49
   5  -1  -7    7.84    0.23
   4  -1  -7    3.51    0.16
  -4   1   7    3.55    0.18
   3  -1  -7    4.22    0.17
  -3   1   7    4.12    0.18
   2  -1  -7   18.58    0.45
  -2   1   7   17.20    0.50
  -2   1   7   17.99    0.47
   1  -1  -7   22.49    0.54
  -1   1   7   23.04    0.61
  -1   1   7   21.79    0.52
   0  -1  -7   86.68    1.82
   0  -1  -7   81.77    1.79
   0  -1  -7   82.34    1.82
   0   1   7   88.41    1.87
   0   1   7   80.61    1.81
   0   1   7   86.72    1.90
  -1  -1  -7    0.88    0.07
  -1  -1  -7    0.89    0.07
   1   1   7    1.01    0.09
   1   1   7    0.98    0.07
   1   1   7    0.83    0.06
   1   1   7    0.96    0.10
  -2  -1  -7   13.00    0.34
  -2  -1  -7   13.17    0.34
   2   1   7   13.05    0.37
   2   1   7   13.51    0.32
   2   1   7   12.86    0.40
   2   1   7   12.79    0.34
  -3  -1  -7   13.81    0.35
  -3  -1  -7   13.00    0.34
   3   1   7   13.55    0.42
   3   1   7   13.70    0.36
   3   1   7   13.27    0.38
   3   1   7   13.77    0.33
  -4  -1  -7    8.42    0.24
   4   1   7    8.25    0.30
   4   1   7    8.39    0.26
   4   1   7    8.93    0.23
   4   1   7    8.51    0.27
   4   1   7    8.38    0.27
  -5  -1  -7   14.30    0.38
   5   1   7   15.20    0.37
   5   1   7   14.99    0.42
   5   1   7   15.75    0.37
   5   1   7   15.27    0.42
   6   1   7    0.57    0.07
   6   1   7    0.63    0.06
   6   1   7    0.68    0.07
   6   1   7    0.70    0.09
   6   1   7    0.79    0.07
   7   1   7    0.77    0.07
   7   1   7    1.10    0.09
   7   1   7    1.01    0.10
   7   1   7    1.06    0.09
   8   1   7   20.11    0.50
   8   1   7   20.05    0.50
   8   1   7   20.65    0.50
   8   1   7   20.66    0.50
   9   1   7   21.12    0.52
   9   1   7   21.11    0.53
   9   1   7   22.03    0.53
   9   1   7   21.96    0.52
  10   1   7   17.14    0.43
  10   1   7   17.43    0.43
  10   1   7   16.95    0.42
  11   1   7    5.42    0.17
  11   1   7    5.19    0.17
  12   1   7    0.11    0.04
   9  -2  -7    0.89    0.06
   8  -2  -7    2.41    0.11
   7  -2  -7    5.34    0.18
   6  -2  -7   11.26    0.30
   5  -2  -7    3.07    0.12
   4  -2  -7    0.38    0.03
   4  -2  -7    0.28    0.06
   4  -2  -7    0.30    0.05
  -4   2   7    0.48    0.08
   3  -2  -7   25.84    0.61
  -3   2   7   25.50    0.64
   2  -2  -7    5.98    0.19
  -2   2   7    6.22    0.24
  -2   2   7    6.36    0.22
   1  -2  -7   22.57    0.53
  -1   2   7   21.77    0.59
   0  -2  -7    0.81    0.06
   0   2   7    0.80    0.06
   0   2   7    0.74    0.09
  -1  -2  -7    0.27    0.04
  -1  -2  -7    0.20    0.04
   1   2   7    0.31    0.07
   1   2   7    0.24    0.04
   1   2   7    0.24    0.04
   1   2   7    0.21    0.05
  -2  -2  -7   30.89    0.73
  -2  -2  -7   32.43    0.73
   2   2   7   31.28    0.71
   2   2   7   32.14    0.77
   2   2   7   32.39    0.81
   2   2   7   33.49    0.74
  -3  -2  -7   32.94    0.75
  -3  -2  -7   32.03    0.75
   3   2   7   33.08    0.73
   3   2   7   33.26    0.83
   3   2   7   32.39    0.78
   3   2   7   33.59    0.76
  -4  -2  -7    2.17    0.11
   4   2   7    2.25    0.10
   4   2   7    2.23    0.12
   4   2   7    2.29    0.12
   4   2   7    2.16    0.13
   4   2   7    2.34    0.15
  -5  -2  -7   28.45    0.68
   5   2   7   28.67    0.72
   5   2   7   29.49    0.66
   5   2   7   28.69    0.70
   6   2   7   30.11    0.68
   6   2   7   28.99    0.68
   6   2   7   30.82    0.69
   6   2   7   29.63    0.73
   7   2   7   47.83    1.07
   7   2   7   47.98    1.07
   7   2   7   48.13    1.07
   7   2   7   49.05    1.07
   8   2   7   35.64    0.83
   8   2   7   36.55    0.83
   8   2   7   35.70    0.83
   8   2   7   36.98    0.83
   9   2   7    1.43    0.11
   9   2   7    1.44    0.11
   9   2   7    1.55    0.11
   9   2   7    1.32    0.11
  10   2   7    0.88    0.08
  10   2   7    1.07    0.10
  10   2   7    1.06    0.10
  11   2   7    0.10    0.04
  11   2   7    0.16    0.05
  11   2   7    0.14    0.04
   9  -3  -7    1.90    0.08
   8  -3  -7    1.31    0.08
   7  -3  -7    6.51    0.20
   6  -3  -7   25.47    0.59
   6  -3  -7   25.40    0.56
   5  -3  -7    0.13    0.04
   5  -3  -7    0.13    0.02
   4  -3  -7    9.79    0.26
   4  -3  -7   10.54    0.24
  -4   3   7    9.88    0.32
  -3   3   7    1.60    0.12
  -2   3   7    0.29    0.06
  -2   3   7    0.19    0.06
   1  -3  -7    1.26    0.09
  -1   3   7    1.38    0.11
   0  -3  -7    0.39    0.04
   0   3   7    0.73    0.09
  -1  -3  -7    3.30    0.11
   1   3   7    3.31    0.11
   1   3   7    3.24    0.12
   1   3   7    3.29    0.17
  -2  -3  -7    7.50    0.22
  -2  -3  -7    7.59    0.21
   2   3   7    7.40    0.21
   2   3   7    7.59    0.22
   2   3   7    7.44    0.25
   2   3   7    7.73    0.28
  -3  -3  -7    8.85    0.24
  -3  -3  -7    8.48    0.25
   3   3   7    8.92    0.24
   3   3   7    8.96    0.25
   3   3   7    8.96    0.31
   3   3   7    9.15    0.29
  -4  -3  -7   15.38    0.40
   4   3   7   15.80    0.41
   4   3   7   14.86    0.46
   4   3   7   15.27    0.40
   4   3   7   16.33    0.44
   4   3   7   16.22    0.38
  -5  -3  -7    1.40    0.09
   5   3   7    1.47    0.12
   5   3   7    1.52    0.09
   5   3   7    1.40    0.11
   5   3   7    1.41    0.10
   5   3   7    1.35    0.09
   6   3   7    0.39    0.06
   6   3   7    0.33    0.06
   6   3   7    0.28    0.05
   6   3   7    0.34    0.07
   7   3   7    2.08    0.15
   7   3   7    2.12    0.11
   7   3   7    2.01    0.11
   7   3   7    1.99    0.11
   7   3   7    2.02    0.11
   8   3   7   14.55    0.39
   8   3   7   15.05    0.38
   8   3   7   14.84    0.38
   8   3   7   14.32    0.38
   9   3   7    0.50    0.07
   9   3   7    0.53    0.07
   9   3   7    0.45    0.07
   9   3   7    0.54    0.07
  10   3   7    3.42    0.14
  10   3   7    3.19    0.14
  10   3   7    3.48    0.14
  11   3   7    0.44    0.05
  11   3   7    0.45    0.05
  11   3   7    0.41    0.05
   9  -4  -7    0.58    0.05
   8  -4  -7    2.25    0.10
   7  -4  -7    3.46    0.13
   7  -4  -7    3.50    0.18
   7  -4  -7    3.58    0.10
   6  -4  -7    0.99    0.08
   6  -4  -7    1.13    0.08
   6  -4  -7    1.13    0.06
   5  -4  -7    0.39    0.04
   5  -4  -7    0.34    0.05
   5  -4  -7    0.33    0.05
   4  -4  -7    0.34    0.03
   4  -4  -7    0.31    0.05
  -4   4   7    0.33    0.07
   3  -4  -7    6.22    0.18
  -3   4   7    6.27    0.23
  -2   4   7   14.10    0.39
  -2   4   7   14.17    0.42
  -1   4   7   11.61    0.36
   0   4   7   23.45    0.61
   1   4   7   10.16    0.33
   2   4   7    7.40    0.27
   2   4   7    7.50    0.21
   3   4   7   23.99    0.64
   3   4   7   24.11    0.56
   3   4   7   24.80    0.58
   4   4   7   12.56    0.39
   4   4   7   12.55    0.32
   4   4   7   12.59    0.34
   5   4   7    1.11    0.07
   5   4   7    0.96    0.08
   5   4   7    0.94    0.08
   6   4   7    3.54    0.14
   6   4   7    3.55    0.14
   6   4   7    3.29    0.13
   7   4   7    3.16    0.13
   7   4   7    3.03    0.14
   7   4   7    2.98    0.13
   8   4   7    2.12    0.12
   8   4   7    2.35    0.12
   9   4   7    4.98    0.18
   9   4   7    5.04    0.18
  10   4   7    0.08    0.04
  10   4   7    0.09    0.05
  11   4   7    8.97    0.24
   8  -5  -7    3.81    0.13
   7  -5  -7    7.08    0.18
   7  -5  -7    6.74    0.21
   6  -5  -7    2.91    0.13
   6  -5  -7    3.02    0.10
   5  -5  -7   20.79    0.46
   5  -5  -7   20.38    0.49
   4  -5  -7    3.83    0.14
   4  -5  -7    3.76    0.14
   4  -5  -7    3.82    0.11
  -4   5   7    3.76    0.19
   3  -5  -7    0.48    0.05
   3  -5  -7    0.43    0.05
  -3   5   7    0.53    0.08
   2  -5  -7   28.08    0.64
  -2   5   7   28.08    0.72
  -2   5   7   28.50    0.69
  -1   5   7   10.09    0.33
  -1   5   7    9.74    0.32
   0   5   7    2.28    0.14
   1   5   7    4.43    0.20
   2   5   7    0.14    0.06
   2   5   7    0.11    0.03
   3   5   7    4.10    0.15
   3   5   7    3.85    0.19
   4   5   7   11.15    0.37
   4   5   7   10.97    0.31
   5   5   7    1.48    0.09
   5   5   7    1.41    0.08
   6   5   7    4.68    0.16
   6   5   7    4.79    0.16
   7   5   7    0.95    0.09
   7   5   7    0.93    0.08
   8   5   7    4.59    0.17
   8   5   7    4.78    0.17
  -9  -5  -7   11.61    0.37
   9   5   7   12.15    0.32
   9   5   7   12.07    0.32
 -10  -5  -7    0.13    0.07
  10   5   7    0.13    0.05
  11   5   7    6.57    0.18
   8  -6  -7    0.20    0.04
   8  -6  -7    0.20    0.03
   7  -6  -7    4.64    0.13
   7  -6  -7    4.92    0.17
   6  -6  -7    0.57    0.05
   6  -6  -7    0.56    0.07
   5  -6  -7   24.09    0.56
   5  -6  -7   23.35    0.53
   5  -6  -7   23.39    0.56
   4  -6  -7    2.94    0.10
   4  -6  -7    2.81    0.12
   4  -6  -7    3.04    0.13
   3  -6  -7    6.19    0.19
   3  -6  -7    6.52    0.20
  -3   6   7    6.15    0.24
   2  -6  -7    7.32    0.20
   2  -6  -7    7.06    0.21
  -2   6   7    7.00    0.24
  -2   6   7    6.79    0.35
   1  -6  -7    8.80    0.24
  -1   6   7    8.42    0.30
  -1   6   7    8.94    0.27
   0   6   7   57.89    1.35
   1   6   7    3.19    0.18
   2   6   7    1.30    0.13
   3   6   7    3.43    0.19
   3   6   7    3.11    0.13
  -4  -6  -7    0.23    0.04
   4   6   7    0.23    0.05
  -5  -6  -7    0.60    0.06
   5   6   7    0.52    0.06
  -6  -6  -7    5.32    0.17
  -6  -6  -7    5.71    0.25
   6   6   7    5.54    0.18
  -7  -6  -7    0.11    0.05
  -7  -6  -7    0.12    0.04
   7   6   7    0.07    0.05
  -8  -6  -7    0.27    0.06
   8   6   7    0.33    0.06
  -9  -6  -7    3.97    0.15
   9   6   7    4.20    0.15
 -10  -6  -7    0.24    0.05
  10   6   7    0.31    0.05
 -11  -6  -7    0.09    0.05
  11   6   7    0.03    0.03
   8  -7  -7    2.00    0.07
   8  -7  -7    2.27    0.10
   8  -7  -7    2.13    0.10
   7  -7  -7    0.15    0.03
   7  -7  -7    0.11    0.05
   7  -7  -7    0.12    0.04
   6  -7  -7    6.72    0.17
   6  -7  -7    6.30    0.20
   6  -7  -7    6.42    0.21
   6  -7  -7    6.85    0.21
   5  -7  -7    5.88    0.19
   5  -7  -7    5.72    0.16
   5  -7  -7    5.61    0.19
   5  -7  -7    5.63    0.19
   4  -7  -7    3.54    0.14
   4  -7  -7    3.72    0.14
   4  -7  -7    3.58    0.11
   4  -7  -7    3.86    0.14
   3  -7  -7    1.62    0.07
   3  -7  -7    1.73    0.10
   3  -7  -7    1.85    0.09
  -3   7   7    1.59    0.13
   2  -7  -7   26.90    0.62
   2  -7  -7   28.33    0.63
  -2   7   7   25.75    0.67
   1  -7  -7   21.27    0.49
   1  -7  -7   21.13    0.50
  -1   7   7   20.42    0.54
   0  -7  -7    7.03    0.21
   0  -7  -7    7.07    0.20
  -1  -7  -7    0.05    0.03
  -2  -7  -7    3.00    0.11
  -3  -7  -7    8.16    0.22
  -4  -7  -7    9.53    0.25
   4   7   7    9.57    0.25
   4   7   7    9.87    0.30
  -5  -7  -7    5.93    0.19
   5   7   7    6.09    0.18
  -6  -7  -7    8.46    0.25
   6   7   7    8.62    0.24
  -7  -7  -7    7.86    0.24
   7   7   7    7.49    0.23
  -8  -7  -7    1.63    0.11
   8   7   7    1.64    0.11
  -9  -7  -7    2.22    0.12
   9   7   7    2.33    0.12
 -10  -7  -7    3.40    0.13
  10   7   7    3.55    0.12
   8  -8  -7    0.08    0.02
   8  -8  -7    0.06    0.03
   8  -8  -7    0.10    0.03
   7  -8  -7    3.65    0.11
   7  -8  -7    3.91    0.14
   7  -8  -7    3.61    0.14
   6  -8  -7    5.34    0.15
   6  -8  -7    5.23    0.18
   6  -8  -7    5.29    0.18
   6  -8  -7    5.72    0.19
   5  -8  -7    0.22    0.06
   5  -8  -7    0.21    0.05
   5  -8  -7    0.13    0.03
   5  -8  -7    0.12    0.04
   4  -8  -7   23.91    0.57
   4  -8  -7   22.75    0.56
   4  -8  -7   23.89    0.56
   4  -8  -7   23.29    0.53
   3  -8  -7    0.17    0.05
   3  -8  -7    0.35    0.04
   3  -8  -7    0.32    0.06
   3  -8  -7    0.20    0.05
   2  -8  -7    1.99    0.08
   2  -8  -7    2.07    0.11
   2  -8  -7    1.76    0.10
   2  -8  -7    2.02    0.10
  -2   8   7    1.95    0.13
  -2   8   7    1.66    0.12
   1  -8  -7    8.25    0.24
   1  -8  -7    9.02    0.25
   1  -8  -7    8.80    0.25
   1  -8  -7    8.76    0.24
  -1   8   7    7.76    0.27
   0  -8  -7    5.93    0.19
   0  -8  -7    6.44    0.18
   0   8   7    4.82    0.22
  -1  -8  -7    1.38    0.08
  -1  -8  -7    1.25    0.11
  -2  -8  -7    6.40    0.17
  -2  -8  -7    6.28    0.20
  -2  -8  -7    6.46    0.23
  -2  -8  -7    6.29    0.19
  -3  -8  -7   13.00    0.30
  -3  -8  -7   12.35    0.33
   3   8   7   12.22    0.37
  -4  -8  -7   10.94    0.29
  -4  -8  -7   10.44    0.24
   4   8   7    9.76    0.31
  -5  -8  -7    2.72    0.13
   5   8   7    2.99    0.12
  -6  -8  -7    0.33    0.06
   6   8   7    0.33    0.06
  -7  -8  -7    5.50    0.20
   7   8   7    5.67    0.19
  -8  -8  -7    2.94    0.14
   8   8   7    2.63    0.12
  -9  -8  -7    3.55    0.14
   9   8   7    3.77    0.13
 -10  -8  -7    2.20    0.09
  10   8   7    2.08    0.09
   8  -9  -7    0.04    0.03
   8  -9  -7    0.06    0.02
   8  -9  -7    0.05    0.03
   7  -9  -7    3.49    0.13
   7  -9  -7    3.39    0.13
   7  -9  -7    3.53    0.10
   6  -9  -7    1.77    0.07
   6  -9  -7    1.95    0.10
   6  -9  -7    1.77    0.10
   5  -9  -7    7.43    0.22
   5  -9  -7    6.86    0.18
   5  -9  -7    6.89    0.22
   5  -9  -7    6.74    0.21
   4  -9  -7   17.93    0.43
   4  -9  -7   15.49    0.42
   4  -9  -7   17.59    0.43
   4  -9  -7   17.04    0.43
   3  -9  -7    4.01    0.16
   3  -9  -7    4.31    0.16
   3  -9  -7    4.17    0.15
   2  -9  -7    5.04    0.17
   2  -9  -7    4.75    0.17
   2  -9  -7    4.99    0.16
   2  -9  -7    4.56    0.14
  -2   9   7    4.30    0.19
   1  -9  -7    6.35    0.17
   1  -9  -7    6.56    0.20
   1  -9  -7    6.39    0.20
   1  -9  -7    6.38    0.19
  -1   9   7    5.39    0.24
   0  -9  -7    0.39    0.07
   0  -9  -7    0.32    0.06
   0  -9  -7    0.39    0.04
   0  -9  -7    0.34    0.05
   0  -9  -7    0.31    0.05
  -1  -9  -7   23.00    0.51
  -1  -9  -7   22.48    0.55
  -1  -9  -7   23.14    0.60
  -1  -9  -7   23.05    0.59
  -2  -9  -7    0.44    0.08
  -2  -9  -7    0.58    0.05
  -2  -9  -7    0.54    0.07
  -3  -9  -7    0.26    0.06
  -3  -9  -7    0.42    0.04
  -4  -9  -7    6.58    0.22
  -4  -9  -7    7.10    0.18
   4   9   7    6.85    0.26
  -5  -9  -7    8.13    0.25
   5   9   7    8.14    0.23
  -6  -9  -7   10.35    0.29
   6   9   7   10.06    0.27
  -7  -9  -7    0.29    0.07
   7   9   7    0.44    0.06
  -8  -9  -7    1.62    0.10
   8   9   7    1.37    0.09
  -9  -9  -7    2.52    0.11
   9   9   7    2.47    0.10
   7 -10  -7    2.40    0.10
   7 -10  -7    2.47    0.08
   7 -10  -7    2.47    0.10
   6 -10  -7    1.16    0.08
   6 -10  -7    1.20    0.08
   6 -10  -7    1.15    0.06
   5 -10  -7    1.46    0.10
   5 -10  -7    1.47    0.07
   5 -10  -7    1.61    0.10
   4 -10  -7    2.97    0.13
   4 -10  -7    3.10    0.13
   4 -10  -7    3.26    0.14
   4 -10  -7    3.08    0.12
   3 -10  -7    0.84    0.08
   3 -10  -7    0.92    0.08
   3 -10  -7    0.88    0.09
   3 -10  -7    0.86    0.08
   2 -10  -7    4.64    0.14
   2 -10  -7    4.72    0.16
   2 -10  -7    4.88    0.17
   2 -10  -7    4.47    0.17
  -2  10   7    4.22    0.20
   1 -10  -7    0.64    0.08
   1 -10  -7    0.73    0.08
   1 -10  -7    0.61    0.05
  -1  10   7    0.40    0.10
   0 -10  -7   22.46    0.55
   0 -10  -7   23.09    0.51
   0 -10  -7   23.34    0.59
   0 -10  -7   22.16    0.55
  -1 -10  -7    9.39    0.28
  -1 -10  -7    9.92    0.24
  -1 -10  -7    9.20    0.31
  -2 -10  -7    3.06    0.11
  -2 -10  -7    3.08    0.17
  -2 -10  -7    3.06    0.14
  -3 -10  -7   24.71    0.55
  -3 -10  -7   25.18    0.60
  -4 -10  -7   13.74    0.32
  -4 -10  -7   13.86    0.37
   4  10   7   14.14    0.40
  -6 -10  -7    6.79    0.22
   6  10   7    6.58    0.20
  -7 -10  -7    0.43    0.07
   7  10   7    0.37    0.05
  -8 -10  -7    0.27    0.05
   8  10   7    0.31    0.04
   7 -11  -7    2.32    0.07
   6 -11  -7    5.38    0.16
   6 -11  -7    5.43    0.14
   6 -11  -7    5.48    0.17
   5 -11  -7    8.67    0.23
   5 -11  -7    8.69    0.24
   5 -11  -7    8.27    0.21
   4 -11  -7    0.08    0.05
   4 -11  -7    0.08    0.04
   4 -11  -7    0.09    0.03
   3 -11  -7   19.45    0.48
   3 -11  -7   18.88    0.47
   3 -11  -7   19.49    0.44
   2 -11  -7    2.10    0.12
   2 -11  -7    2.29    0.09
   2 -11  -7    2.24    0.11
  -2  11   7    2.30    0.15
   1 -11  -7    0.68    0.06
   1 -11  -7    0.64    0.08
   1 -11  -7    0.61    0.07
  -1  11   7    0.49    0.10
   0 -11  -7    2.51    0.13
   0 -11  -7    2.31    0.15
   0 -11  -7    2.31    0.12
   0 -11  -7    2.43    0.09
  -1 -11  -7    4.78    0.14
  -1 -11  -7    4.44    0.18
  -1 -11  -7    4.46    0.21
  -2 -11  -7    1.57    0.11
  -2 -11  -7    1.46    0.07
  -2 -11  -7    1.30    0.13
  -3 -11  -7   19.11    0.49
  -3 -11  -7   19.84    0.44
   3  11   7   19.84    0.52
  -4 -11  -7   11.04    0.26
  -4 -11  -7   10.97    0.31
   4  11   7   10.87    0.33
  -5 -11  -7    3.92    0.16
  -6 -11  -7    1.84    0.11
  -7 -11  -7    1.54    0.09
   7  11   7    1.44    0.07
  -8 -11  -7    3.21    0.11
   6 -12  -7    2.59    0.12
   5 -12  -7    0.60    0.04
   5 -12  -7    0.67    0.06
   4 -12  -7    0.60    0.05
   4 -12  -7    0.58    0.06
   3 -12  -7    6.01    0.16
   3 -12  -7    6.39    0.20
   2 -12  -7    3.24    0.14
   2 -12  -7    3.23    0.10
  -2  12   7    2.98    0.15
   1 -12  -7    3.08    0.10
   1 -12  -7    3.15    0.14
  -1  12   7    2.92    0.17
   0 -12  -7    1.23    0.07
   0 -12  -7    1.13    0.10
   0  12   7    1.76    0.16
  -1 -12  -7    3.46    0.15
  -1 -12  -7    3.43    0.12
   1  12   7    4.14    0.20
  -2 -12  -7   13.76    0.33
  -2 -12  -7   13.19    0.36
   2  12   7   15.03    0.41
  -3 -12  -7    5.63    0.19
  -3 -12  -7    5.58    0.15
   3  12   7    6.10    0.23
  -4 -12  -7    2.87    0.13
  -4 -12  -7    2.49    0.07
   4  12   7    2.42    0.14
  -5 -12  -7    0.68    0.07
  -6 -12  -7    0.15    0.04
   4 -13  -7    0.50    0.04
   4 -13  -7    0.49    0.05
   3 -13  -7    1.23    0.08
   3 -13  -7    1.26    0.06
   2 -13  -7    0.97    0.08
   2 -13  -7    1.02    0.05
  -2  13   7    1.07    0.09
   1 -13  -7    0.25    0.05
   1 -13  -7    0.20    0.03
  -1  13   7    0.23    0.07
   0 -13  -7    0.12    0.03
   0 -13  -7    0.12    0.05
   0  13   7    0.22    0.08
  -1 -13  -7    3.02    0.13
  -1 -13  -7    3.02    0.10
   1  13   7    3.50    0.17
  -2 -13  -7    0.92    0.08
  -2 -13  -7    0.91    0.05
   2  13   7    1.12    0.12
  -3 -13  -7    3.13    0.09
  -3 -13  -7    3.13    0.12
   3  13   7    3.11    0.15
  -4 -13  -7    1.77    0.09
   4  13   7    1.47    0.09
  -5 -13  -7    0.83    0.06
   2 -14  -7    4.00    0.10
   2 -14  -7    4.09    0.13
   1 -14  -7    1.22    0.05
   1 -14  -7    1.12    0.07
  -1  14   7    1.26    0.08
   0 -14  -7    0.19    0.04
   0 -14  -7    0.15    0.03
   0  14   7    0.17    0.05
  -1 -14  -7    3.47    0.12
  -1 -14  -7    3.43    0.09
   1  14   7    3.54    0.13
  -2 -14  -7    0.96    0.06
  -2 -14  -7    0.85    0.04
   2  14   7    0.81    0.08
   1  -8   8    1.34    0.11
   2  -8   8    0.12    0.04
  -2  -7   8    0.37    0.03
  -1  -7   8    0.17    0.04
  -1  -7   8    0.15    0.02
  -1  -7   8    0.07    0.04
   0  -7   8    0.19    0.04
   0  -7   8    0.16    0.05
   0  -7   8    0.28    0.03
   1  -7   8    1.21    0.08
   1  -7   8    1.22    0.10
   2  -7   8    1.05    0.10
   2  -7   8    1.12    0.08
   3  -7   8    0.87    0.09
   3  -7   8    0.90    0.07
   4  -7   8    2.36    0.12
   4  -7   8    2.22    0.10
   5  -7   8    0.37    0.05
  -3  -6   8    4.66    0.12
  -2  -6   8    0.97    0.07
  -2  -6   8    0.85    0.08
  -2  -6   8    1.04    0.05
  -1  -6   8    6.17    0.21
  -1  -6   8    6.09    0.16
  -1  -6   8    6.10    0.19
   0  -6   8    0.26    0.06
   0  -6   8    0.23    0.05
   1  -6   8    0.16    0.06
   1  -6   8    0.10    0.05
   2  -6   8    2.88    0.13
   2  -6   8    2.69    0.15
   3  -6   8    1.48    0.12
   3  -6   8    1.59    0.10
   4  -6   8    7.84    0.25
   4  -6   8    7.83    0.23
   5  -6   8    0.59    0.07
   5  -6   8    0.57    0.06
   6  -6   8    0.20    0.04
  -4  -5   8    8.96    0.20
  -3  -5   8   13.79    0.32
  -2  -5   8    9.99    0.30
  -2  -5   8    9.98    0.28
  -2  -5   8   10.51    0.25
  -1  -5   8    1.19    0.10
  -1  -5   8    1.04    0.11
   0  -5   8    0.12    0.05
   0  -5   8    0.04    0.04
   0  -5   8    0.09    0.06
   1  -5   8   16.11    0.41
   1  -5   8   15.70    0.41
   1  -5   8   16.06    0.44
   2  -5   8   32.18    0.75
   2  -5   8   33.02    0.76
   2  -5   8   32.71    0.79
   3  -5   8   11.87    0.32
   3  -5   8   11.90    0.35
   3  -5   8   11.26    0.31
   4  -5   8   11.99    0.33
   4  -5   8   11.87    0.35
   4  -5   8   11.28    0.31
   4  -5   8   11.85    0.33
   5  -5   8    0.50    0.07
   5  -5   8    0.51    0.07
   5  -5   8    0.53    0.07
   5  -5   8    0.50    0.09
   6  -5   8    3.84    0.15
   6  -5   8    3.59    0.14
   7  -5   8    9.44    0.26
   7  -5   8    9.94    0.26
   8  -5   8    1.85    0.14
   5   4  -8   10.56    0.26
   4   4  -8    4.67    0.14
  -4  -4   8    4.43    0.12
   3   4  -8    2.20    0.10
  -3  -4   8    2.13    0.08
   2   4  -8    7.25    0.21
  -2  -4   8    7.35    0.22
  -2  -4   8    7.71    0.25
   1   4  -8    6.34    0.19
  -1  -4   8    6.22    0.23
  -1  -4   8    6.19    0.21
  -1  -4   8    6.56    0.21
   0   4  -8   12.35    0.32
   0  -4   8   12.27    0.34
   0  -4   8   12.59    0.34
   0  -4   8   12.56    0.37
   1  -4   8    0.55    0.07
   1  -4   8    0.49    0.08
   1  -4   8    0.49    0.07
   1  -4   8    0.55    0.07
   2  -4   8    2.11    0.12
   2  -4   8    1.83    0.12
   2  -4   8    2.07    0.11
   2  -4   8    1.91    0.14
   3  -4   8   20.43    0.50
   3  -4   8   20.05    0.50
   3  -4   8   20.21    0.49
   3  -4   8   20.43    0.53
   4  -4   8   20.39    0.49
   4  -4   8   19.33    0.49
   4  -4   8   19.08    0.47
   4  -4   8   19.37    0.51
   5  -4   8    0.52    0.07
   5  -4   8    0.38    0.07
   5  -4   8    0.34    0.05
   5  -4   8    0.37    0.07
   6  -4   8    1.60    0.11
   6  -4   8    1.61    0.09
   6  -4   8    1.53    0.11
   7  -4   8   11.85    0.32
   7  -4   8   11.83    0.32
   8  -4   8    5.04    0.16
   8  -4   8    4.88    0.17
   9  -4   8    5.98    0.18
   6   3  -8    1.82    0.08
   5   3  -8    2.93    0.11
   4   3  -8    1.21    0.08
  -4  -3   8    1.23    0.06
   3   3  -8    2.27    0.11
  -3  -3   8    2.54    0.09
   2   3  -8    0.43    0.06
  -2  -3   8    0.46    0.07
  -2  -3   8    0.49    0.06
   1   3  -8    6.00    0.18
  -1  -3   8    5.50    0.22
  -1  -3   8    5.96    0.21
  -1  -3   8    5.70    0.19
   0  -3   8    9.71    0.28
   0  -3   8    9.73    0.31
   0  -3   8    9.74    0.28
   0  -3   8    9.42    0.27
   1  -3   8   13.89    0.36
   1  -3   8   14.28    0.37
   1  -3   8   12.94    0.36
   1  -3   8   13.71    0.39
   2  -3   8    1.45    0.12
   2  -3   8    1.44    0.10
   2  -3   8    1.38    0.10
   2  -3   8    1.30    0.10
   3  -3   8   18.52    0.46
   3  -3   8   17.79    0.46
   3  -3   8   17.79    0.48
   3  -3   8   18.50    0.45
   4  -3   8    0.56    0.07
   4  -3   8    0.78    0.08
   4  -3   8    0.72    0.08
   4  -3   8    0.55    0.08
   5  -3   8    1.38    0.11
   5  -3   8    1.23    0.12
   5  -3   8    1.22    0.08
   5  -3   8    1.17    0.11
   6  -3   8    4.94    0.19
   6  -3   8    5.22    0.19
   6  -3   8    5.05    0.17
   7  -3   8    0.12    0.04
   7  -3   8    0.08    0.06
   7  -3   8    0.18    0.06
   8  -3   8    0.11    0.06
   8  -3   8    0.09    0.05
   9  -3   8    3.62    0.15
   9  -3   8    3.56    0.17
  10  -3   8    9.85    0.26
   7   2  -8    0.85    0.06
   6   2  -8    1.97    0.09
   5   2  -8    1.74    0.10
   4   2  -8    3.31    0.13
  -4  -2   8    3.12    0.10
   3   2  -8    7.81    0.22
   2   2  -8    5.04    0.17
  -2  -2   8    5.04    0.20
  -1  -2   8    3.20    0.13
  -1  -2   8    3.29    0.14
  -1  -2   8    3.15    0.14
  -1  -2   8    3.25    0.16
   0  -2   8    7.40    0.23
   0  -2   8    7.09    0.22
   0  -2   8    7.21    0.25
   0  -2   8    7.14    0.23
   1  -2   8    4.40    0.16
   1  -2   8    4.68    0.17
   1  -2   8    4.72    0.19
   1  -2   8    4.59    0.17
   2  -2   8   12.29    0.36
   2  -2   8   12.43    0.34
   2  -2   8   12.69    0.33
   2  -2   8   12.29    0.33
   3  -2   8    5.32    0.18
   3  -2   8    5.21    0.21
   3  -2   8    5.17    0.19
   3  -2   8    5.57    0.18
   4  -2   8    0.45    0.06
   4  -2   8    0.45    0.07
   4  -2   8    0.45    0.07
   4  -2   8    0.45    0.07
   5  -2   8   18.70    0.48
   5  -2   8   19.02    0.47
   5  -2   8   18.95    0.46
   6  -2   8    5.70    0.20
   6  -2   8    5.94    0.19
   6  -2   8    6.05    0.21
   7  -2   8    9.69    0.29
   7  -2   8    9.77    0.27
   7  -2   8   10.05    0.29
   8  -2   8   12.62    0.34
   8  -2   8   12.87    0.33
   8  -2   8   13.44    0.35
   8  -2   8   13.33    0.36
   9  -2   8    5.81    0.19
   9  -2   8    6.09    0.20
   9  -2   8    5.53    0.18
  10  -2   8    5.52    0.17
  10  -2   8    4.98    0.16
  11  -2   8    0.63    0.06
   8   1  -8    0.20    0.03
   7   1  -8    0.41    0.05
   6   1  -8    3.65    0.13
   5   1  -8    0.19    0.05
   4   1  -8   14.25    0.36
  -4  -1   8   13.84    0.32
   3   1  -8   18.96    0.46
   2   1  -8    3.80    0.14
  -2  -1   8    3.46    0.16
   1   1  -8   10.79    0.32
  -1  -1   8   10.28    0.31
  -1  -1   8   10.58    0.30
  -1  -1   8   10.83    0.30
   0   1  -8    4.00    0.17
   0  -1   8    4.29    0.16
   0  -1   8    3.77    0.16
   0  -1   8    3.92    0.15
   0  -1   8    4.05    0.14
  -1   1  -8   20.29    0.53
   1  -1   8   21.03    0.51
   1  -1   8   21.59    0.51
   1  -1   8   20.83    0.53
   1  -1   8   20.65    0.49
  -2   1  -8   23.13    0.59
   2  -1   8   23.52    0.57
   2  -1   8   23.84    0.59
   2  -1   8   23.91    0.56
   2  -1   8   25.10    0.57
  -3   1  -8    8.60    0.28
   3  -1   8    8.87    0.28
   3  -1   8    8.94    0.26
   3  -1   8    8.47    0.25
   3  -1   8    9.50    0.25
  -4   1  -8    0.15    0.05
   4  -1   8    0.24    0.05
   4  -1   8    0.23    0.06
   4  -1   8    0.28    0.06
   4  -1   8    0.25    0.05
   5  -1   8    5.85    0.18
   5  -1   8    6.16    0.20
   5  -1   8    5.89    0.20
   6  -1   8    0.66    0.08
   6  -1   8    0.58    0.07
   6  -1   8    0.60    0.07
   6  -1   8    0.50    0.06
   7  -1   8   16.39    0.42
   7  -1   8   16.77    0.43
   7  -1   8   16.44    0.43
   7  -1   8   16.88    0.42
   8  -1   8    3.01    0.15
   8  -1   8    2.97    0.13
   8  -1   8    3.15    0.15
   8  -1   8    2.91    0.14
   9  -1   8    0.14    0.05
   9  -1   8    0.07    0.05
   9  -1   8    0.15    0.06
  10  -1   8    1.92    0.11
  10  -1   8    1.96    0.10
  10  -1   8    1.80    0.10
  11  -1   8    0.06    0.04
  11  -1   8    0.06    0.04
   8   0  -8    0.12    0.03
   7   0  -8    4.46    0.15
   6   0  -8    0.97    0.08
   5   0  -8    5.74    0.19
   4   0  -8    8.56    0.24
   3   0  -8    0.36    0.05
   2   0  -8    0.65    0.08
   2   0  -8    0.56    0.06
  -2   0   8    0.77    0.08
   1   0  -8    9.62    0.29
  -1   0   8    9.40    0.27
  -1   0   8   10.18    0.27
   0   0  -8    5.26    0.19
   0   0   8    5.32    0.18
  -1   0  -8   20.29    0.51
  -1   0  -8   20.67    0.52
  -1   0  -8   20.04    0.51
   1   0   8   19.53    0.55
   1   0   8   21.72    0.49
   1   0   8   19.60    0.55
  -2   0  -8    1.18    0.09
  -2   0  -8    1.28    0.09
   2   0   8    1.21    0.11
   2   0   8    1.35    0.08
   2   0   8    1.26    0.08
  -3   0  -8    7.59    0.24
   3   0   8    7.77    0.22
   3   0   8    7.79    0.22
  -4   0  -8    3.00    0.14
   4   0   8    3.38    0.13
   4   0   8    3.06    0.13
   4   0   8    3.22    0.12
  -5   0  -8    0.19    0.05
   5   0   8    0.62    0.07
   5   0   8    0.20    0.05
   5   0   8    0.22    0.05
   5   0   8    0.20    0.05
   6   0   8    0.56    0.07
   6   0   8    0.51    0.06
   6   0   8    0.60    0.07
   6   0   8    0.57    0.07
   7   0   8    6.83    0.23
   7   0   8    6.96    0.23
   7   0   8    6.62    0.21
   7   0   8    7.04    0.22
   8   0   8    0.25    0.06
   8   0   8    0.22    0.06
   8   0   8    0.16    0.05
   8   0   8    0.22    0.07
   9   0   8    2.04    0.12
   9   0   8    2.40    0.12
   9   0   8    1.95    0.13
   9   0   8    2.04    0.11
  10   0   8    1.95    0.10
  10   0   8    1.86    0.11
  10   0   8    1.60    0.10
  11   0   8    0.27    0.05
  11   0   8    0.23    0.04
   8  -1  -8    0.10    0.03
   7  -1  -8   12.93    0.33
   6  -1  -8    0.50    0.06
   5  -1  -8    0.84    0.08
   4  -1  -8    1.44    0.09
   3  -1  -8    4.72    0.20
   3  -1  -8    4.67    0.15
   2  -1  -8    4.69    0.18
   2  -1  -8    4.47    0.15
   1  -1  -8    3.39    0.14
   0  -1  -8    5.83    0.20
   0   1   8    5.81    0.32
   0   1   8    5.79    0.18
  -1  -1  -8   22.82    0.57
  -1  -1  -8   23.78    0.56
   1   1   8   22.75    0.57
   1   1   8   23.28    0.65
   1   1   8   24.07    0.55
   1   1   8   22.45    0.61
  -2  -1  -8    1.85    0.10
  -2  -1  -8    1.99    0.11
   2   1   8    1.93    0.11
   2   1   8    2.09    0.16
   2   1   8    1.75    0.12
   2   1   8    2.08    0.10
  -3  -1  -8    2.92    0.13
  -3  -1  -8    2.86    0.13
   3   1   8    3.22    0.12
   3   1   8    2.91    0.24
   3   1   8    2.77    0.15
   3   1   8    2.95    0.14
  -4  -1  -8    1.89    0.11
   4   1   8    1.90    0.10
   4   1   8    2.02    0.09
   4   1   8    2.10    0.10
  -5  -1  -8    0.24    0.05
   5   1   8    0.12    0.05
   5   1   8    0.30    0.05
   5   1   8    0.21    0.05
   5   1   8    0.19    0.05
   6   1   8    4.68    0.16
   6   1   8    4.60    0.16
   6   1   8    4.29    0.16
   6   1   8    4.35    0.16
   7   1   8    9.52    0.28
   7   1   8    9.80    0.28
   7   1   8    9.87    0.28
   7   1   8    9.59    0.28
   8   1   8    0.25    0.06
   8   1   8    0.33    0.06
   8   1   8    0.34    0.06
   8   1   8    0.29    0.07
   9   1   8    1.28    0.10
   9   1   8    1.15    0.10
   9   1   8    1.12    0.10
   9   1   8    1.15    0.10
  10   1   8    0.25    0.05
  10   1   8    0.35    0.06
  10   1   8    0.27    0.06
  11   1   8    1.02    0.07
  11   1   8    1.05    0.08
  11   1   8    0.95    0.07
   8  -2  -8    5.56    0.16
   7  -2  -8    3.57    0.13
   6  -2  -8    7.29    0.22
   5  -2  -8    2.46    0.11
   4  -2  -8    0.08    0.04
   3  -2  -8   26.05    0.69
   3  -2  -8   24.88    0.58
   2  -2  -8   20.59    0.51
   1  -2  -8    2.25    0.11
  -1   2   8    1.99    0.14
   0  -2  -8   11.19    0.30
   0   2   8   10.70    0.37
  -1  -2  -8    0.66    0.06
   1   2   8    0.65    0.10
   1   2   8    0.68    0.06
   1   2   8    0.68    0.10
  -2  -2  -8    0.76    0.07
  -2  -2  -8    0.81    0.07
   2   2   8    0.74    0.10
   2   2   8    0.85    0.09
   2   2   8    0.78    0.07
   2   2   8    0.72    0.07
  -3  -2  -8   15.88    0.41
  -3  -2  -8   15.69    0.41
   3   2   8   15.16    0.48
   3   2   8   16.04    0.45
   3   2   8   15.48    0.42
   3   2   8   17.01    0.39
  -4  -2  -8   12.13    0.33
  -4  -2  -8   11.87    0.34
   4   2   8   12.11    0.37
   4   2   8   13.29    0.47
   4   2   8   12.82    0.32
   4   2   8   11.55    0.31
   4   2   8   12.21    0.31
   5   2   8    3.53    0.14
   5   2   8    3.68    0.14
   5   2   8    3.70    0.14
   6   2   8   10.48    0.28
   6   2   8    9.84    0.28
   6   2   8    9.92    0.28
   6   2   8    9.82    0.33
   6   2   8    9.93    0.28
   7   2   8   27.39    0.64
   7   2   8   26.92    0.64
   7   2   8   26.31    0.63
   7   2   8   26.95    0.63
   8   2   8   62.16    1.35
   8   2   8   61.65    1.35
   8   2   8   61.72    1.36
   8   2   8   60.89    1.36
   9   2   8    6.60    0.23
   9   2   8    7.44    0.23
   9   2   8    7.27    0.23
   9   2   8    7.41    0.23
  10   2   8    4.38    0.16
  10   2   8    4.26    0.16
  10   2   8    4.29    0.16
  11   2   8    0.19    0.04
  11   2   8    0.09    0.04
  11   2   8    0.20    0.04
   8  -3  -8    7.52    0.20
   7  -3  -8    0.09    0.04
   6  -3  -8   10.19    0.27
   5  -3  -8    4.93    0.16
   4  -3  -8    5.82    0.18
   4  -3  -8    5.73    0.14
   3  -3  -8   43.93    0.98
   3  -3  -8   45.43    0.95
   2  -3  -8    2.72    0.10
  -1   3   8    8.00    0.30
   0   3   8    3.28    0.18
  -1  -3  -8    3.72    0.18
   1   3   8    3.83    0.20
  -2  -3  -8   11.23    0.30
   2   3   8   11.47    0.30
   2   3   8   11.29    0.31
   2   3   8   11.38    0.38
  -3  -3  -8   23.85    0.61
  -3  -3  -8   24.24    0.58
   3   3   8   24.65    0.68
   3   3   8   24.24    0.59
   3   3   8   25.92    0.73
   3   3   8   25.49    0.58
  -4  -3  -8   28.14    0.69
  -4  -3  -8   28.50    0.68
   4   3   8   29.80    0.72
   4   3   8   29.20    0.78
   4   3   8   28.60    0.74
   4   3   8   30.11    0.66
   4   3   8   30.00    0.67
   5   3   8   26.27    0.61
   5   3   8   25.40    0.65
   5   3   8   26.92    0.62
   5   3   8   27.67    0.62
   6   3   8   13.48    0.34
   6   3   8   13.15    0.34
   6   3   8   13.28    0.35
   6   3   8   12.58    0.38
   6   3   8   12.82    0.34
   7   3   8    3.96    0.16
   7   3   8    4.05    0.16
   7   3   8    4.13    0.16
   7   3   8    4.48    0.17
   8   3   8    0.22    0.06
   8   3   8    0.14    0.06
   8   3   8    0.20    0.06
   8   3   8    0.19    0.06
   9   3   8    4.11    0.16
   9   3   8    3.69    0.16
   9   3   8    4.10    0.16
   9   3   8    3.86    0.16
  10   3   8    0.39    0.06
  10   3   8    0.31    0.06
  11   3   8    3.09    0.11
  11   3   8    2.90    0.15
   8  -4  -8    0.39    0.04
   7  -4  -8    1.17    0.08
   6  -4  -8   17.38    0.42
   6  -4  -8   17.65    0.39
   5  -4  -8    0.35    0.03
   5  -4  -8    0.32    0.05
   5  -4  -8    0.23    0.05
   4  -4  -8    9.07    0.21
   4  -4  -8    8.67    0.24
   4  -4  -8    8.16    0.24
   3  -4  -8    0.24    0.03
   3  -4  -8    0.23    0.04
   2  -4  -8    0.19    0.04
  -1   4   8    2.97    0.17
   0   4   8    1.93    0.14
   1   4   8    0.34    0.08
   2   4   8   26.24    0.70
   3   4   8   12.04    0.33
   3   4   8   12.36    0.33
   3   4   8   12.45    0.41
  -4  -4  -8   58.79    1.27
   4   4   8   58.79    1.29
   4   4   8   59.59    1.28
   5   4   8    1.67    0.10
   5   4   8    1.71    0.09
   5   4   8    1.62    0.10
   6   4   8    0.19    0.05
   6   4   8    0.22    0.05
   6   4   8    0.16    0.05
   7   4   8    0.58    0.07
   7   4   8    0.54    0.07
   7   4   8    0.46    0.07
   8   4   8    0.37    0.07
   8   4   8    0.32    0.07
   9   4   8    2.51    0.13
   9   4   8    2.51    0.13
  10   4   8    0.02    0.05
  10   4   8    0.08    0.05
 -11  -4  -8    0.79    0.06
  11   4   8    0.89    0.07
   7  -5  -8    1.20    0.08
   6  -5  -8    0.63    0.05
   6  -5  -8    0.79    0.07
   5  -5  -8   18.22    0.41
   5  -5  -8   17.81    0.44
   4  -5  -8   13.69    0.31
   4  -5  -8   13.03    0.34
   3  -5  -8    0.21    0.04
   3  -5  -8    0.14    0.03
  -3   5   8    0.18    0.08
   2  -5  -8    1.11    0.07
   1  -5  -8    4.99    0.16
   0   5   8    0.28    0.07
   1   5   8    4.83    0.23
   2   5   8   10.37    0.36
  -3  -5  -8    0.19    0.04
   3   5   8    0.16    0.04
  -4  -5  -8   14.19    0.35
   4   5   8   13.86    0.34
  -5  -5  -8    2.49    0.11
   5   5   8    2.25    0.11
  -6  -5  -8    3.02    0.13
   6   5   8    3.13    0.13
   7   5   8    1.88    0.11
   7   5   8    2.22    0.12
   8   5   8    6.87    0.22
  -9  -5  -8   12.92    0.33
   9   5   8   13.47    0.34
 -10  -5  -8    4.24    0.14
  10   5   8    4.35    0.15
  11   5   8    0.83    0.07
   8  -6  -8    0.49    0.05
   7  -6  -8    4.43    0.12
   7  -6  -8    4.19    0.15
   6  -6  -8    0.24    0.05
   6  -6  -8    0.23    0.03
   5  -6  -8    5.24    0.15
   5  -6  -8    5.50    0.18
   4  -6  -8    0.26    0.05
   4  -6  -8    0.27    0.03
   3  -6  -8   19.80    0.48
   3  -6  -8   20.64    0.45
  -3   6   8   19.37    0.64
   2  -6  -8   10.24    0.27
  -2   6   8   10.20    0.34
   1  -6  -8    0.90    0.07
   0  -6  -8    0.60    0.06
  -1  -6  -8    4.36    0.14
  -2  -6  -8   13.40    0.33
  -3  -6  -8    3.44    0.13
  -4  -6  -8    6.55    0.19
   4   6   8    6.31    0.19
   4   6   8    6.57    0.25
  -5  -6  -8    2.80    0.12
   5   6   8    2.91    0.12
  -6  -6  -8    1.07    0.09
   6   6   8    1.01    0.09
  -7  -6  -8    1.39    0.09
   7   6   8    1.43    0.10
  -8  -6  -8    5.07    0.17
   8   6   8    5.78    0.19
   9   6   8   30.53    0.70
  10   6   8    8.93    0.24
   8  -7  -8    0.65    0.05
   7  -7  -8    0.25    0.05
   7  -7  -8    0.27    0.03
   6  -7  -8    0.35    0.04
   6  -7  -8    0.41    0.06
   5  -7  -8   15.74    0.40
   5  -7  -8   15.86    0.36
   4  -7  -8    4.45    0.16
   4  -7  -8    4.34    0.13
   3  -7  -8    1.22    0.06
   3  -7  -8    1.17    0.09
   2  -7  -8   11.83    0.28
   2  -7  -8   11.96    0.31
  -2   7   8   12.22    0.33
   1  -7  -8    1.64    0.09
   1  -7  -8    1.72    0.07
  -1   7   8    1.95    0.11
   0  -7  -8   10.46    0.28
   0   7   8   10.72    0.30
   1   7   8    0.26    0.06
  -2  -7  -8    1.06    0.07
   2   7   8    1.09    0.11
  -3  -7  -8    1.07    0.08
   3   7   8    1.10    0.11
  -4  -7  -8    5.20    0.17
   4   7   8    5.28    0.19
  -5  -7  -8    2.00    0.10
   5   7   8    1.96    0.10
  -6  -7  -8    1.54    0.10
   6   7   8    1.73    0.10
   7   7   8    0.40    0.06
   8   7   8    7.81    0.23
   9   7   8    0.60    0.07
  10   7   8    0.64    0.06
   8  -8  -8    3.11    0.11
   8  -8  -8    3.15    0.08
   7  -8  -8    0.04    0.02
   7  -8  -8    0.04    0.04
   6  -8  -8    6.58    0.20
   6  -8  -8    6.34    0.17
   5  -8  -8    7.82    0.23
   5  -8  -8    7.47    0.19
   4  -8  -8   17.96    0.44
   4  -8  -8   17.21    0.44
   4  -8  -8   17.85    0.40
   3  -8  -8    9.54    0.26
   3  -8  -8    9.04    0.27
   3  -8  -8    9.22    0.23
   2  -8  -8    0.80    0.07
   2  -8  -8    0.69    0.05
   2  -8  -8    0.81    0.08
  -2   8   8    1.25    0.10
   1  -8  -8   10.28    0.27
   1  -8  -8    9.77    0.24
  -1   8   8    9.91    0.29
   0  -8  -8    6.36    0.17
   0  -8  -8    6.36    0.19
   0   8   8    6.35    0.23
  -1  -8  -8    3.98    0.12
  -1  -8  -8    3.67    0.14
   1   8   8    3.87    0.18
  -2  -8  -8   27.92    0.64
  -2  -8  -8   28.49    0.61
   2   8   8   27.80    0.68
  -3  -8  -8    0.57    0.06
  -3  -8  -8    0.58    0.04
   3   8   8    0.49    0.08
  -4  -8  -8   19.63    0.47
   4   8   8   20.02    0.50
  -5  -8  -8    0.21    0.06
  -6  -8  -8    0.14    0.06
   6   8   8    0.15    0.05
  -7  -8  -8    0.55    0.07
   7   8   8    0.53    0.06
  -8  -8  -8    5.65    0.19
   8   8   8    5.70    0.18
  -9  -8  -8    3.34    0.13
   9   8   8    3.51    0.13
  10   8   8    1.46    0.10
   8  -9  -8    4.15    0.10
   7  -9  -8    0.55    0.04
   7  -9  -8    0.52    0.05
   6  -9  -8    4.31    0.12
   6  -9  -8    4.21    0.15
   6  -9  -8    4.57    0.15
   5  -9  -8    0.29    0.05
   5  -9  -8    0.28    0.04
   5  -9  -8    0.28    0.05
   4  -9  -8   18.88    0.45
   4  -9  -8   17.84    0.45
   4  -9  -8   18.43    0.41
   4  -9  -8   17.63    0.45
   3  -9  -8    4.46    0.17
   3  -9  -8    4.88    0.14
   3  -9  -8    4.62    0.17
   3  -9  -8    4.94    0.17
   2  -9  -8    2.16    0.11
   2  -9  -8    2.12    0.08
   2  -9  -8    2.15    0.11
   2  -9  -8    2.38    0.11
  -2   9   8    2.58    0.13
   1  -9  -8    4.64    0.18
   1  -9  -8    4.70    0.14
   1  -9  -8    4.76    0.16
   1  -9  -8    4.50    0.16
  -1   9   8    4.70    0.19
   0  -9  -8   12.71    0.33
   0  -9  -8   12.15    0.33
   0  -9  -8   12.94    0.30
   0   9   8   12.57    0.36
  -1  -9  -8   14.21    0.38
  -1  -9  -8   14.83    0.34
  -1  -9  -8   14.60    0.37
   1   9   8   15.16    0.41
  -2  -9  -8   14.56    0.37
  -2  -9  -8   15.06    0.34
  -2  -9  -8   14.69    0.38
   2   9   8   15.03    0.42
  -3  -9  -8    0.35    0.03
  -3  -9  -8    0.22    0.05
  -4  -9  -8    8.80    0.26
  -4  -9  -8    9.51    0.24
   4   9   8    9.09    0.29
  -5  -9  -8    1.44    0.10
  -6  -9  -8    6.94    0.22
   6   9   8    6.93    0.21
  -7  -9  -8    2.04    0.11
   7   9   8    2.11    0.11
  -8  -9  -8    1.04    0.08
   8   9   8    1.05    0.08
  -9  -9  -8    0.43    0.05
   9   9   8    0.37    0.04
   7 -10  -8    2.01    0.06
   6 -10  -8    0.35    0.03
   6 -10  -8    0.29    0.04
   6 -10  -8    0.30    0.05
   5 -10  -8    0.17    0.04
   5 -10  -8    0.15    0.03
   5 -10  -8    0.16    0.05
   4 -10  -8    0.40    0.06
   4 -10  -8    0.34    0.07
   4 -10  -8    0.31    0.04
   4 -10  -8    0.30    0.06
   3 -10  -8    2.04    0.11
   3 -10  -8    1.94    0.11
   3 -10  -8    2.26    0.08
   3 -10  -8    1.98    0.11
   2 -10  -8    2.50    0.12
   2 -10  -8    2.90    0.12
   2 -10  -8    2.57    0.09
   2 -10  -8    2.44    0.12
  -2  10   8    2.75    0.14
   1 -10  -8   16.49    0.43
   1 -10  -8   17.53    0.42
   1 -10  -8   16.80    0.39
   1 -10  -8   16.48    0.45
  -1  10   8   17.46    0.45
   0 -10  -8    3.94    0.15
   0 -10  -8    3.95    0.14
   0 -10  -8    3.95    0.12
   0  10   8    3.68    0.19
  -1 -10  -8    1.36    0.07
  -1 -10  -8    1.44    0.10
   1  10   8    1.60    0.16
  -2 -10  -8   11.12    0.31
  -2 -10  -8   11.42    0.27
   2  10   8   11.30    0.35
  -3 -10  -8    3.38    0.10
  -3 -10  -8    3.40    0.15
   3  10   8    3.71    0.20
  -4 -10  -8    7.23    0.17
  -4 -10  -8    7.02    0.23
   4  10   8    7.67    0.26
  -5 -10  -8    7.67    0.23
  -6 -10  -8   15.57    0.39
  -7 -10  -8    1.38    0.09
   7  10   8    1.37    0.08
  -8 -10  -8    1.55    0.09
   8  10   8    1.54    0.08
   6 -11  -8    0.69    0.04
   6 -11  -8    0.64    0.05
   5 -11  -8    1.64    0.08
   5 -11  -8    1.64    0.07
   5 -11  -8    1.85    0.09
   4 -11  -8    5.34    0.17
   4 -11  -8    5.40    0.17
   4 -11  -8    5.37    0.14
   3 -11  -8    4.23    0.15
   3 -11  -8    4.19    0.16
   3 -11  -8    4.32    0.13
   2 -11  -8    8.72    0.26
   2 -11  -8    9.21    0.23
   2 -11  -8    9.25    0.26
   2 -11  -8    9.05    0.25
  -2  11   8    9.01    0.27
   1 -11  -8    2.22    0.12
   1 -11  -8    2.05    0.08
  -1  11   8    2.04    0.14
   0 -11  -8    4.43    0.13
   0 -11  -8    4.79    0.17
   0  11   8    4.83    0.21
  -1 -11  -8   17.14    0.40
  -1 -11  -8   17.51    0.44
   1  11   8   17.61    0.48
  -2 -11  -8    1.46    0.07
  -2 -11  -8    1.49    0.11
   2  11   8    1.86    0.16
  -3 -11  -8    0.32    0.03
  -3 -11  -8    0.33    0.06
   3  11   8    0.34    0.09
  -4 -11  -8    0.91    0.09
   4  11   8    0.64    0.09
  -5 -11  -8    0.15    0.05
  -6 -11  -8   10.43    0.28
  -7 -11  -8    5.51    0.17
   5 -12  -8    6.77    0.18
   5 -12  -8    6.73    0.16
   4 -12  -8    1.83    0.09
   4 -12  -8    2.06    0.07
   3 -12  -8    1.38    0.09
   3 -12  -8    1.27    0.06
   2 -12  -8    3.48    0.14
   2 -12  -8    3.39    0.10
  -2  12   8    3.36    0.14
   1 -12  -8    0.23    0.03
   1 -12  -8    0.20    0.05
  -1  12   8    0.25    0.07
   0 -12  -8    3.96    0.15
   0 -12  -8    3.79    0.12
   0  12   8    4.06    0.18
  -1 -12  -8    8.87    0.26
  -1 -12  -8    8.72    0.22
   1  12   8    9.08    0.29
  -2 -12  -8    7.74    0.19
  -2 -12  -8    7.67    0.23
   2  12   8    7.79    0.26
  -3 -12  -8   16.01    0.35
  -3 -12  -8   16.13    0.40
   3  12   8   15.71    0.42
  -4 -12  -8    1.31    0.09
   4  12   8    0.93    0.09
  -5 -12  -8    2.02    0.10
  -6 -12  -8    7.47    0.21
   4 -13  -8    0.35    0.03
   3 -13  -8    0.15    0.03
   3 -13  -8    0.13    0.04
   2 -13  -8    5.12    0.13
   2 -13  -8    5.12    0.16
  -2  13   8    5.18    0.16
   1 -13  -8    0.28    0.03
   1 -13  -8    0.35    0.05
  -1  13   8    0.40    0.06
   0 -13  -8    9.80    0.26
   0 -13  -8    9.98    0.23
   0  13   8    9.70    0.28
  -1 -13  -8    1.74    0.10
  -1 -13  -8    1.60    0.06
   1  13   8    1.57    0.12
  -2 -13  -8    1.58    0.06
  -2 -13  -8    1.65    0.09
   2  13   8    1.61    0.12
  -3 -13  -8    0.76    0.07
   3  13   8    0.59    0.07
  -4 -13  -8    0.07    0.04
   4  13   8    0.06    0.04
  -5 -13  -8    4.36    0.13
   2 -14  -8    0.09    0.03
   1 -14  -8    7.30    0.17
   1 -14  -8    7.38    0.20
   0 -14  -8    2.30    0.07
   0 -14  -8    2.31    0.09
   0  14   8    2.14    0.10
  -1 -14  -8    0.42    0.05
  -1 -14  -8    0.43    0.03
   1  14   8    0.39    0.05
  -2 -14  -8    0.61    0.06
   2  14   8    0.52    0.05
   1  -7   9    2.84    0.13
   2  -7   9    2.77    0.12
   3  -7   9    1.55    0.09
  -2  -6   9    0.39    0.03
  -1  -6   9    0.11    0.02
  -1  -6   9    0.08    0.04
   0  -6   9    2.21    0.07
   0  -6   9    2.08    0.11
   0  -6   9    2.11    0.10
   1  -6   9    0.89    0.09
   1  -6   9    0.80    0.07
   2  -6   9    8.27    0.23
   2  -6   9    8.13    0.25
   3  -6   9    0.15    0.05
   3  -6   9    0.18    0.05
   4  -6   9    1.41    0.10
   4  -6   9    1.38    0.08
   5  -6   9    1.68    0.09
  -3  -5   9    3.49    0.09
  -2  -5   9    0.50    0.05
  -2  -5   9    0.54    0.04
  -1  -5   9    1.71    0.07
  -1  -5   9    1.80    0.10
  -1  -5   9    1.82    0.11
   0  -5   9    1.14    0.10
   0  -5   9    1.05    0.09
   1  -5   9    0.86    0.08
   1  -5   9    0.83    0.09
   2  -5   9   16.38    0.41
   2  -5   9   16.61    0.45
   3  -5   9   10.43    0.29
   3  -5   9   10.32    0.31
   4  -5   9    0.23    0.06
   4  -5   9    0.28    0.06
   4  -5   9    0.23    0.06
   5  -5   9    5.08    0.17
   5  -5   9    4.87    0.17
   5  -5   9    4.89    0.18
   6  -5   9    4.94    0.21
   6  -5   9    4.88    0.16
   7  -5   9    3.14    0.12
   4   4  -9   16.11    0.37
   3   4  -9    2.45    0.09
  -3  -4   9    2.38    0.08
   2   4  -9    0.66    0.06
  -2  -4   9    0.60    0.05
  -2  -4   9    0.58    0.06
  -2  -4   9    0.69    0.07
   1   4  -9   14.34    0.35
  -1  -4   9   14.70    0.40
  -1  -4   9   14.26    0.36
   0   4  -9   10.86    0.28
   0  -4   9   10.93    0.33
   0  -4   9   10.64    0.30
   1  -4   9    4.32    0.19
   1  -4   9    4.26    0.17
   1  -4   9    4.42    0.16
   1  -4   9    4.33    0.17
   2  -4   9    6.25    0.20
   2  -4   9    5.69    0.20
   2  -4   9    6.16    0.23
   2  -4   9    6.05    0.20
   3  -4   9    0.20    0.06
   3  -4   9    0.26    0.06
   3  -4   9    0.21    0.07
   3  -4   9    0.13    0.05
   4  -4   9    0.14    0.05
   4  -4   9    0.16    0.06
   4  -4   9    0.16    0.07
   4  -4   9    0.17    0.06
   5  -4   9   11.08    0.30
   5  -4   9   10.64    0.32
   5  -4   9   10.46    0.30
   6  -4   9   10.20    0.29
   6  -4   9   10.41    0.29
   7  -4   9    1.63    0.10
   7  -4   9    1.78    0.10
   8  -4   9    0.43    0.05
   8  -4   9    0.41    0.06
   5   3  -9    2.47    0.09
   4   3  -9    2.14    0.09
   3   3  -9    8.57    0.23
  -3  -3   9    8.42    0.21
   2   3  -9    0.25    0.05
  -2  -3   9    0.27    0.06
   1   3  -9    2.40    0.11
  -1  -3   9    2.45    0.12
  -1  -3   9    2.55    0.15
   0   3  -9    1.40    0.09
   0  -3   9    1.29    0.10
   0  -3   9    1.32    0.10
   0  -3   9    1.42    0.13
   1  -3   9   10.57    0.30
   1  -3   9   10.43    0.33
   1  -3   9   10.43    0.30
   1  -3   9   10.83    0.31
   2  -3   9   18.18    0.46
   2  -3   9   18.72    0.50
   2  -3   9   18.07    0.46
   2  -3   9   18.41    0.47
   3  -3   9   18.87    0.48
   3  -3   9   18.66    0.47
   3  -3   9   19.29    0.51
   3  -3   9   19.35    0.48
   4  -3   9    4.68    0.17
   4  -3   9    4.90    0.20
   4  -3   9    4.77    0.18
   4  -3   9    4.68    0.18
   5  -3   9    8.78    0.26
   5  -3   9    8.45    0.27
   5  -3   9    8.54    0.26
   5  -3   9    8.33    0.25
   6  -3   9    9.16    0.27
   6  -3   9    8.95    0.27
   6  -3   9    8.95    0.25
   7  -3   9    2.13    0.12
   7  -3   9    2.21    0.12
   8  -3   9    0.99    0.09
   8  -3   9    1.17    0.09
   9  -3   9    3.90    0.14
   9  -3   9    4.17    0.15
   6   2  -9    0.53    0.05
   5   2  -9    1.07    0.07
   4   2  -9    1.14    0.08
   3   2  -9    8.47    0.24
  -3  -2   9    8.77    0.21
   2   2  -9    2.44    0.11
  -2  -2   9    2.47    0.14
   1   2  -9    5.08    0.17
  -1  -2   9    5.26    0.21
  -1  -2   9    4.89    0.18
   0  -2   9    4.86    0.21
   0  -2   9    5.22    0.18
   0  -2   9    4.96    0.19
   0  -2   9    5.07    0.19
   1  -2   9    0.23    0.07
   1  -2   9    0.33    0.06
   1  -2   9    0.38    0.06
   1  -2   9    0.28    0.06
   2  -2   9    1.66    0.11
   2  -2   9    1.44    0.13
   2  -2   9    1.56    0.11
   2  -2   9    1.58    0.11
   3  -2   9    1.46    0.13
   3  -2   9    1.62    0.11
   3  -2   9    1.63    0.10
   3  -2   9    1.59    0.12
   4  -2   9    0.46    0.07
   4  -2   9    0.47    0.07
   4  -2   9    0.57    0.08
   4  -2   9    0.53    0.08
   5  -2   9    0.65    0.08
   5  -2   9    0.76    0.09
   5  -2   9    0.61    0.09
   5  -2   9    0.65    0.08
   6  -2   9    3.63    0.17
   6  -2   9    4.07    0.17
   6  -2   9    3.80    0.15
   7  -2   9    0.13    0.05
   7  -2   9    0.17    0.06
   7  -2   9    0.16    0.06
   8  -2   9   10.42    0.29
   8  -2   9   10.05    0.28
   9  -2   9   10.14    0.28
   9  -2   9   10.26    0.27
  10  -2   9    5.36    0.16
   7   1  -9    0.07    0.03
   6   1  -9    1.03    0.07
   5   1  -9    1.59    0.09
   4   1  -9    1.59    0.09
   3   1  -9   17.38    0.42
  -3  -1   9   17.44    0.39
   2   1  -9    7.72    0.22
  -2  -1   9    7.24    0.25
   1   1  -9    5.43    0.18
  -1  -1   9    5.56    0.21
   0  -1   9    9.33    0.28
   0  -1   9    9.20    0.29
   0  -1   9    8.78    0.26
   0  -1   9    9.17    0.27
   1  -1   9    0.17    0.06
   1  -1   9    0.19    0.05
   1  -1   9    0.17    0.06
   1  -1   9    0.20    0.05
   2  -1   9    0.63    0.08
   2  -1   9    0.52    0.07
   2  -1   9    0.69    0.08
   2  -1   9    0.46    0.07
   3  -1   9    0.28    0.06
   3  -1   9    0.40    0.07
   3  -1   9    0.26    0.07
   3  -1   9    0.28    0.06
   4  -1   9   10.76    0.30
   4  -1   9   10.88    0.30
   4  -1   9   10.57    0.31
   4  -1   9   10.51    0.32
   5  -1   9    4.81    0.20
   5  -1   9    4.86    0.19
   5  -1   9    5.05    0.17
   5  -1   9    5.00    0.19
   6  -1   9    8.43    0.26
   6  -1   9    8.42    0.25
   6  -1   9    8.30    0.26
   7  -1   9    4.09    0.17
   7  -1   9    4.04    0.16
   7  -1   9    3.76    0.16
   7  -1   9    3.85    0.15
   8  -1   9    3.29    0.15
   8  -1   9    3.27    0.15
   8  -1   9    3.36    0.13
   8  -1   9    3.13    0.13
   9  -1   9    3.32    0.13
   9  -1   9    3.39    0.15
   9  -1   9    3.19    0.13
  10  -1   9    1.13    0.07
  10  -1   9    1.20    0.08
  10  -1   9    1.13    0.08
   7   0  -9    0.14    0.03
   6   0  -9   11.47    0.29
   5   0  -9    5.00    0.17
   4   0  -9    8.38    0.24
   3   0  -9    4.58    0.16
  -3   0   9    4.69    0.13
   2   0  -9    0.51    0.06
  -2   0   9    0.59    0.08
  -1   0   9   11.12    0.33
  -1   0   9   11.34    0.31
   0   0   9   37.82    0.90
   0   0   9   39.08    0.88
   0   0   9   38.41    0.88
  -1   0  -9    0.16    0.05
   1   0   9    0.17    0.06
   1   0   9    0.21    0.05
   1   0   9    0.14    0.05
   1   0   9    0.16    0.06
  -2   0  -9    1.78    0.11
   2   0   9    1.89    0.11
   2   0   9    1.68    0.12
   2   0   9    1.85    0.10
   2   0   9    2.02    0.11
  -3   0  -9    0.24    0.08
   3   0   9    0.29    0.06
   3   0   9    0.24    0.05
   3   0   9    0.11    0.05
   3   0   9    0.13    0.06
   4   0   9    0.77    0.08
   4   0   9    0.74    0.08
   4   0   9    0.94    0.10
   4   0   9    0.87    0.09
   5   0   9    0.75    0.08
   5   0   9    0.74    0.10
   5   0   9    0.45    0.07
   5   0   9    0.73    0.08
   6   0   9   10.70    0.31
   6   0   9   10.61    0.30
   6   0   9   10.65    0.30
   6   0   9   10.30    0.29
   7   0   9    0.64    0.08
   7   0   9    0.59    0.07
   7   0   9    0.74    0.08
   7   0   9    0.56    0.08
   8   0   9    0.10    0.05
   8   0   9    0.09    0.06
   8   0   9    0.12    0.06
   8   0   9    0.17    0.05
   9   0   9    0.42    0.07
   9   0   9    0.50    0.07
   9   0   9    0.42    0.06
  10   0   9    1.52    0.09
  10   0   9    1.72    0.09
  10   0   9    1.52    0.10
  11   0   9    2.53    0.10
   7  -1  -9    0.92    0.07
   6  -1  -9    6.12    0.18
   5  -1  -9    0.24    0.05
   4  -1  -9    0.32    0.05
   3  -1  -9    4.92    0.16
  -3   1   9    4.76    0.13
   2  -1  -9    1.03    0.08
  -2   1   9    1.12    0.10
   1  -1  -9   15.68    0.43
  -1   1   9   15.72    0.42
  -1   1   9   15.55    0.40
   0  -1  -9    0.21    0.05
   0   1   9    0.31    0.06
   0   1   9    0.26    0.06
   0   1   9    0.26    0.05
  -1  -1  -9    0.15    0.05
   1   1   9    0.22    0.05
   1   1   9    0.34    0.07
   1   1   9    0.18    0.05
  -2  -1  -9    0.43    0.07
   2   1   9    0.46    0.06
   2   1   9    0.52    0.07
   2   1   9    0.46    0.06
  -3  -1  -9   12.20    0.35
   3   1   9   12.69    0.34
   3   1   9   12.44    0.33
   3   1   9   13.14    0.34
   3   1   9   12.65    0.36
  -4  -1  -9    5.97    0.18
  -4  -1  -9    5.74    0.21
   4   1   9    6.05    0.20
   4   1   9    5.89    0.19
   4   1   9    5.82    0.21
   4   1   9    6.21    0.20
   5   1   9    1.92    0.10
   5   1   9    2.11    0.12
   5   1   9    2.13    0.12
   5   1   9    2.03    0.12
   6   1   9    0.46    0.07
   6   1   9    0.49    0.07
   6   1   9    0.47    0.07
   6   1   9    0.48    0.06
   7   1   9    0.72    0.09
   7   1   9    0.75    0.08
   7   1   9    0.85    0.09
   7   1   9    0.57    0.07
   8   1   9    1.96    0.11
   8   1   9    1.58    0.12
   8   1   9    1.89    0.11
   8   1   9    1.92    0.12
   9   1   9    0.87    0.08
   9   1   9    0.99    0.09
   9   1   9    0.98    0.09
  10   1   9    0.26    0.05
  10   1   9    0.22    0.05
  10   1   9    0.23    0.06
 -11  -1  -9    1.06    0.07
  11   1   9    1.05    0.07
   8  -2  -9    0.84    0.05
   7  -2  -9    4.36    0.14
   6  -2  -9    0.53    0.06
   5  -2  -9    2.46    0.11
   4  -2  -9    3.21    0.13
   3  -2  -9    0.17    0.04
   2  -2  -9    6.72    0.20
   1  -2  -9    4.32    0.17
  -1   2   9    4.60    0.17
  -1   2   9    4.46    0.16
   0  -2  -9    1.09    0.09
   0   2   9    1.02    0.10
   0   2   9    1.08    0.09
  -1  -2  -9    2.51    0.12
   1   2   9    2.78    0.17
   1   2   9    2.76    0.12
  -2  -2  -9    0.91    0.07
  -2  -2  -9    0.93    0.08
   2   2   9    1.00    0.08
   2   2   9    0.97    0.12
  -3  -2  -9    1.16    0.07
  -3  -2  -9    1.26    0.09
   3   2   9    1.39    0.09
   3   2   9    1.23    0.08
   3   2   9    1.25    0.11
  -4  -2  -9    4.09    0.17
  -4  -2  -9    4.31    0.14
   4   2   9    4.31    0.16
   4   2   9    4.10    0.16
   4   2   9    4.48    0.18
   4   2   9    4.25    0.15
  -5  -2  -9    5.98    0.24
   5   2   9    6.16    0.20
   5   2   9    6.70    0.21
   5   2   9    6.37    0.20
   5   2   9    6.57    0.21
   6   2   9    1.86    0.12
   6   2   9    1.80    0.11
   6   2   9    2.06    0.12
   6   2   9    1.90    0.11
   7   2   9    0.49    0.07
   7   2   9    0.35    0.07
   7   2   9    0.39    0.07
   7   2   9    0.42    0.07
   8   2   9    0.84    0.09
   8   2   9    0.98    0.09
   8   2   9    0.90    0.09
   8   2   9    0.97    0.09
   9   2   9    2.71    0.13
   9   2   9    2.71    0.13
   9   2   9    2.64    0.13
  10   2   9    0.13    0.05
  10   2   9    0.22    0.05
  10   2   9    0.17    0.05
 -11  -2  -9    1.97    0.09
  11   2   9    1.83    0.08
   8  -3  -9    0.79    0.05
   7  -3  -9    1.24    0.07
   6  -3  -9    1.95    0.10
   5  -3  -9   14.90    0.37
   4  -3  -9    0.30    0.05
   3  -3  -9    2.84    0.11
   2  -3  -9   26.06    0.59
   1  -3  -9    0.39    0.05
  -1   3   9    0.41    0.06
   0  -3  -9    3.70    0.13
  -1  -3  -9   24.62    0.56
  -2  -3  -9    2.29    0.10
   2   3   9    2.31    0.11
  -3  -3  -9   22.50    0.52
   3   3   9   22.86    0.54
   3   3   9   22.43    0.52
  -4  -3  -9   34.13    0.76
   4   3   9   33.61    0.79
   4   3   9   33.05    0.77
   4   3   9   34.16    0.80
   4   3   9   34.00    0.76
  -5  -3  -9    5.54    0.17
   5   3   9    4.87    0.17
   5   3   9    5.14    0.18
   5   3   9    5.08    0.18
   6   3   9   27.17    0.63
   6   3   9   25.54    0.62
   6   3   9   27.07    0.64
   6   3   9   26.67    0.63
   7   3   9   20.67    0.52
   7   3   9   21.01    0.52
   7   3   9   21.36    0.52
   7   3   9   21.96    0.52
   8   3   9   10.35    0.29
   8   3   9   10.01    0.28
   8   3   9    9.24    0.28
   9   3   9    0.29    0.06
   9   3   9    0.21    0.06
   9   3   9    0.24    0.06
  10   3   9    1.69    0.10
  10   3   9    1.65    0.09
 -11  -3  -9    0.66    0.06
  11   3   9    0.64    0.06
   8  -4  -9    5.19    0.14
   7  -4  -9    1.30    0.07
   6  -4  -9    6.17    0.18
   5  -4  -9   39.60    0.88
   4  -4  -9    0.14    0.02
   4  -4  -9    0.18    0.04
   3  -4  -9    1.54    0.09
   3  -4  -9    1.68    0.06
   2  -4  -9    2.21    0.10
   1  -4  -9    0.30    0.05
  -1   4   9    0.23    0.05
   0  -4  -9   28.78    0.65
  -1  -4  -9   21.38    0.49
  -2  -4  -9    9.09    0.24
  -3  -4  -9    7.68    0.22
   3   4   9    7.76    0.34
  -4  -4  -9   42.39    0.91
   4   4   9   40.09    0.91
   4   4   9   41.47    0.95
   4   4   9   40.63    0.93
  -5  -4  -9   10.37    0.27
   5   4   9    9.77    0.29
   5   4   9   10.16    0.27
  -6  -4  -9    0.19    0.05
   6   4   9    0.11    0.05
   6   4   9    0.11    0.05
   7   4   9    0.10    0.05
   7   4   9    0.07    0.06
   7   4   9    0.21    0.06
   8   4   9    1.06    0.09
   8   4   9    1.10    0.10
  -9  -4  -9    7.01    0.21
   9   4   9    7.17    0.22
 -10  -4  -9    3.03    0.12
  10   4   9    2.81    0.12
  11   4   9    3.30    0.14
   5  -5  -9    0.63    0.06
   5  -5  -9    0.63    0.04
   4  -5  -9    1.02    0.08
   4  -5  -9    1.10    0.05
   3  -5  -9    1.70    0.06
   3  -5  -9    1.79    0.10
   2  -5  -9   11.12    0.26
   2  -5  -9   11.10    0.29
  -2   5   9   10.86    0.35
   1  -5  -9    5.81    0.18
   1  -5  -9    5.80    0.15
  -1   5   9    5.92    0.20
   0  -5  -9   34.30    0.77
   0   5   9   34.32    0.80
  -1  -5  -9   17.46    0.42
   1   5   9   17.85    0.47
  -2  -5  -9   22.03    0.51
   2   5   9   22.07    0.55
  -3  -5  -9    0.17    0.04
   3   5   9    0.21    0.05
  -4  -5  -9    1.07    0.08
   4   5   9    0.99    0.10
   4   5   9    0.94    0.08
  -5  -5  -9    0.79    0.07
   5   5   9    0.87    0.08
  -6  -5  -9    8.37    0.24
   6   5   9    8.25    0.24
  -7  -5  -9    1.62    0.10
   7   5   9    1.70    0.11
  -8  -5  -9    0.16    0.05
   8   5   9    0.16    0.06
  -9  -5  -9    2.46    0.11
   9   5   9    2.43    0.12
 -10  -5  -9    2.16    0.09
  10   5   9    2.17    0.10
   7  -6  -9    0.71    0.06
   6  -6  -9    3.85    0.14
   6  -6  -9    3.74    0.10
   5  -6  -9    1.61    0.06
   5  -6  -9    1.40    0.09
   4  -6  -9    0.60    0.04
   4  -6  -9    0.48    0.06
   3  -6  -9   10.47    0.29
   3  -6  -9   11.16    0.26
   2  -6  -9    5.64    0.18
   2  -6  -9    5.53    0.15
  -2   6   9    5.36    0.20
   1  -6  -9    9.68    0.26
   1  -6  -9    9.86    0.23
  -1   6   9    9.93    0.29
   0  -6  -9   20.11    0.44
   0  -6  -9   20.37    0.48
   0   6   9   19.83    0.50
  -1  -6  -9   17.48    0.42
   1   6   9   17.46    0.45
  -2  -6  -9    0.25    0.05
   2   6   9    0.40    0.06
  -3  -6  -9    5.92    0.18
   3   6   9    6.10    0.21
  -4  -6  -9    3.69    0.14
   4   6   9    3.31    0.16
  -5  -6  -9   27.86    0.65
   5   6   9   28.41    0.64
  -6  -6  -9    2.29    0.11
   6   6   9    2.09    0.11
  -7  -6  -9    7.03    0.21
   7   6   9    7.37    0.22
  -8  -6  -9    6.49    0.20
   8   6   9    6.61    0.21
  -9  -6  -9    2.71    0.11
   9   6   9    2.78    0.13
  10   6   9    1.37    0.08
   7  -7  -9    1.91    0.09
   6  -7  -9    0.59    0.06
   6  -7  -9    0.59    0.04
   5  -7  -9    0.34    0.06
   5  -7  -9    0.30    0.03
   4  -7  -9    9.29    0.22
   4  -7  -9    8.95    0.26
   3  -7  -9    3.03    0.13
   3  -7  -9    3.09    0.10
   2  -7  -9    4.15    0.12
   2  -7  -9    4.37    0.15
  -2   7   9    4.23    0.17
   1  -7  -9    4.92    0.14
   1  -7  -9    5.01    0.17
  -1   7   9    5.05    0.19
   0  -7  -9    9.97    0.27
   0  -7  -9   10.23    0.24
   0   7   9   10.30    0.30
  -1  -7  -9   14.87    0.37
  -1  -7  -9   14.93    0.34
   1   7   9   15.03    0.40
  -2  -7  -9    0.23    0.02
  -2  -7  -9    0.25    0.05
   2   7   9    0.19    0.06
  -3  -7  -9    4.52    0.15
   3   7   9    4.45    0.18
  -4  -7  -9    0.38    0.06
   4   7   9    0.25    0.06
  -5  -7  -9    8.00    0.23
   5   7   9    7.86    0.23
  -6  -7  -9   18.74    0.46
   6   7   9   19.12    0.46
  -7  -7  -9   14.81    0.37
   7   7   9   15.34    0.38
  -8  -7  -9    7.69    0.22
   8   7   9    8.14    0.23
   9   7   9    2.39    0.11
  10   7   9    3.33    0.11
   7  -8  -9    0.51    0.05
   7  -8  -9    0.57    0.03
   6  -8  -9    0.09    0.02
   6  -8  -9    0.12    0.04
   5  -8  -9    4.66    0.16
   5  -8  -9    4.67    0.13
   4  -8  -9    3.64    0.14
   4  -8  -9    3.84    0.11
   3  -8  -9    1.47    0.10
   3  -8  -9    1.45    0.07
   2  -8  -9    3.52    0.14
   2  -8  -9    3.61    0.11
  -2   8   9    3.72    0.16
   1  -8  -9    0.23    0.05
   1  -8  -9    0.19    0.03
  -1   8   9    0.44    0.07
   0  -8  -9    0.18    0.03
   0  -8  -9    0.20    0.05
   0   8   9    0.23    0.06
  -1  -8  -9   12.49    0.29
  -1  -8  -9   12.66    0.32
   1   8   9   12.43    0.36
  -2  -8  -9   13.97    0.32
  -2  -8  -9   13.80    0.35
   2   8   9   14.38    0.39
  -3  -8  -9    1.76    0.10
   3   8   9    1.58    0.13
  -4  -8  -9    1.09    0.08
   4   8   9    0.90    0.09
  -5  -8  -9    4.07    0.15
   5   8   9    4.08    0.17
  -6  -8  -9    9.97    0.27
   6   8   9   10.31    0.27
   7   8   9    0.52    0.06
   8   8   9    0.23    0.05
   9   8   9    0.17    0.04
   7  -9  -9    0.25    0.02
   6  -9  -9    3.55    0.10
   6  -9  -9    3.53    0.12
   5  -9  -9    6.98    0.21
   5  -9  -9    6.98    0.17
   4  -9  -9    0.72    0.05
   4  -9  -9    0.60    0.06
   3  -9  -9    5.63    0.18
   3  -9  -9    5.43    0.15
   2  -9  -9    3.70    0.15
   2  -9  -9    4.05    0.12
  -2   9   9    4.11    0.17
   1  -9  -9    0.95    0.09
   1  -9  -9    1.05    0.06
  -1   9   9    1.25    0.11
   0  -9  -9   29.25    0.63
   0  -9  -9   28.68    0.66
   0   9   9   28.74    0.70
  -1  -9  -9    0.94    0.08
  -1  -9  -9    0.92    0.05
   1   9   9    1.03    0.10
  -2  -9  -9    6.05    0.19
  -2  -9  -9    5.88    0.15
   2   9   9    5.96    0.23
  -3  -9  -9    3.13    0.09
  -3  -9  -9    3.20    0.13
   3   9   9    2.77    0.16
  -4  -9  -9    0.31    0.05
   4   9   9    0.11    0.07
   5   9   9    0.62    0.08
   7   9   9    0.49    0.06
   8   9   9    0.13    0.04
   6 -10  -9    3.67    0.12
   6 -10  -9    3.68    0.10
   5 -10  -9    2.68    0.11
   5 -10  -9    2.74    0.08
   4 -10  -9    0.14    0.03
   4 -10  -9    0.29    0.05
   3 -10  -9    7.22    0.22
   3 -10  -9    7.44    0.19
   2 -10  -9    1.49    0.09
   2 -10  -9    1.41    0.07
  -2  10   9    1.64    0.11
   1 -10  -9    7.12    0.22
   1 -10  -9    7.24    0.19
  -1  10   9    7.53    0.25
   0 -10  -9    2.09    0.08
   0 -10  -9    1.98    0.10
   0  10   9    2.08    0.14
  -1 -10  -9    0.91    0.13
  -1 -10  -9    0.74    0.05
  -1 -10  -9    0.68    0.07
   1  10   9    0.55    0.09
  -2 -10  -9    6.14    0.20
  -2 -10  -9    6.01    0.19
  -2 -10  -9    6.11    0.16
   2  10   9    6.12    0.23
  -3 -10  -9    0.80    0.04
  -3 -10  -9    0.83    0.08
   3  10   9    0.67    0.09
  -4 -10  -9    5.35    0.18
   4  10   9    5.21    0.21
  -5 -10  -9   13.07    0.34
   5  10   9   13.00    0.35
  -6 -10  -9    5.25    0.17
  -7 -10  -9    3.06    0.12
   6 -11  -9    0.14    0.02
   5 -11  -9    2.70    0.08
   5 -11  -9    2.62    0.10
   4 -11  -9    1.67    0.08
   4 -11  -9    1.63    0.08
   4 -11  -9    1.73    0.07
   3 -11  -9    5.01    0.16
   3 -11  -9    5.07    0.16
   3 -11  -9    4.95    0.13
   2 -11  -9   10.08    0.24
   2 -11  -9   10.04    0.27
   2 -11  -9    9.92    0.27
  -2  11   9   10.10    0.28
   1 -11  -9   11.67    0.27
   1 -11  -9   10.78    0.30
   1 -11  -9   10.95    0.29
  -1  11   9   11.25    0.32
   0 -11  -9    1.19    0.09
   0 -11  -9    1.24    0.06
   0  11   9    1.34    0.13
  -1 -11  -9    0.86    0.05
  -1 -11  -9    0.82    0.08
   1  11   9    0.69    0.09
  -2 -11  -9    7.44    0.23
  -2 -11  -9    7.58    0.19
   2  11   9    7.53    0.26
  -3 -11  -9    9.67    0.23
  -3 -11  -9   10.25    0.28
   3  11   9   10.03    0.30
  -4 -11  -9   15.04    0.38
   4  11   9   14.88    0.40
  -5 -11  -9    0.12    0.05
   5  11   9    0.10    0.06
  -6 -11  -9    0.56    0.06
  -7 -11  -9    1.17    0.07
   5 -12  -9    0.49    0.03
   4 -12  -9   10.73    0.24
   4 -12  -9   10.01    0.26
   3 -12  -9    0.81    0.05
   3 -12  -9    0.75    0.06
   2 -12  -9    1.78    0.09
   2 -12  -9    1.60    0.07
  -2  12   9    1.82    0.10
   1 -12  -9    2.12    0.08
   1 -12  -9    1.93    0.10
  -1  12   9    2.11    0.12
   0 -12  -9    0.13    0.03
   0 -12  -9    0.13    0.05
   0  12   9    0.14    0.06
  -1 -12  -9    6.56    0.16
  -1 -12  -9    6.14    0.20
   1  12   9    6.41    0.22
  -2 -12  -9    0.51    0.04
  -2 -12  -9    0.49    0.06
   2  12   9    0.36    0.07
  -3 -12  -9    0.52    0.06
   3  12   9    0.56    0.08
  -4 -12  -9   17.24    0.41
   4  12   9   17.03    0.42
  -5 -12  -9    8.77    0.23
  -6 -12  -9    3.44    0.12
   3 -13  -9    0.88    0.04
   2 -13  -9    1.93    0.09
   2 -13  -9    1.98    0.07
  -2  13   9    2.28    0.11
   1 -13  -9    2.31    0.10
   1 -13  -9    2.63    0.08
  -1  13   9    2.45    0.11
   0 -13  -9    2.13    0.10
   0 -13  -9    2.27    0.07
   0  13   9    2.10    0.11
  -1 -13  -9   10.54    0.24
  -1 -13  -9   10.41    0.27
   1  13   9   10.43    0.29
  -2 -13  -9    0.83    0.03
  -2 -13  -9    0.89    0.07
   2  13   9    0.70    0.07
  -3 -13  -9    1.61    0.08
   3  13   9    1.42    0.09
  -4 -13  -9    4.04    0.13
   4  13   9    4.03    0.13
   2  -6  10    0.35    0.05
  -1  -5  10    0.11    0.05
  -1  -5  10    0.12    0.02
   0  -5  10    0.39    0.06
   0  -5  10    0.34    0.04
   0  -5  10    0.38    0.03
   1  -5  10    0.35    0.06
   1  -5  10    0.43    0.05
   2  -5  10    0.20    0.05
   2  -5  10    0.23    0.04
   3  -5  10    0.53    0.07
   3  -5  10    0.54    0.06
   4  -5  10   13.50    0.34
   4  -5  10   13.76    0.36
   5  -5  10   12.26    0.32
   5  -5  10   12.42    0.31
   2   4 -10    5.98    0.16
  -2  -4  10    6.20    0.15
   1   4 -10    1.13    0.06
  -1  -4  10    1.11    0.09
  -1  -4  10    1.23    0.06
  -1  -4  10    1.07    0.07
   0   4 -10    1.66    0.08
   0  -4  10    1.61    0.11
   0  -4  10    1.64    0.09
  -1   4 -10    5.82    0.17
   1  -4  10    5.72    0.18
   1  -4  10    5.81    0.21
   2  -4  10    8.90    0.25
   2  -4  10    9.15    0.28
   3  -4  10    6.14    0.19
   3  -4  10    5.75    0.19
   3  -4  10    6.11    0.22
   4  -4  10    2.31    0.12
   4  -4  10    2.17    0.13
   4  -4  10    2.33    0.11
   5  -4  10    1.22    0.09
   5  -4  10    1.24    0.09
   5  -4  10    1.17    0.10
   6  -4  10    1.96    0.10
   6  -4  10    1.81    0.10
   7  -4  10    0.76    0.07
   7  -4  10    0.71    0.06
   4   3 -10    0.47    0.04
   3   3 -10    0.25    0.04
  -3  -3  10    0.19    0.02
   2   3 -10    0.67    0.06
  -2  -3  10    0.77    0.05
   1   3 -10   14.46    0.35
  -1  -3  10   14.13    0.39
   0   3 -10    1.94    0.10
   0  -3  10    2.06    0.13
   0  -3  10    1.87    0.10
   1  -3  10    0.09    0.04
   1  -3  10    0.08    0.05
   1  -3  10    0.09    0.06
   2  -3  10    6.71    0.22
   2  -3  10    6.74    0.22
   2  -3  10    6.72    0.22
   2  -3  10    7.26    0.25
   3  -3  10    6.82    0.22
   3  -3  10    6.85    0.24
   3  -3  10    6.62    0.22
   3  -3  10    6.61    0.22
   4  -3  10   25.73    0.63
   4  -3  10   25.65    0.60
   4  -3  10   25.23    0.60
   4  -3  10   24.80    0.61
   5  -3  10   10.40    0.29
   5  -3  10    9.89    0.30
   5  -3  10   10.12    0.28
   6  -3  10    0.10    0.05
   6  -3  10    0.13    0.05
   7  -3  10    0.30    0.06
   7  -3  10    0.41    0.06
   8  -3  10    5.51    0.16
   8  -3  10    5.34    0.17
   5   2 -10    3.89    0.11
   4   2 -10    2.39    0.09
   3   2 -10    0.14    0.04
  -3  -2  10    0.11    0.02
   2   2 -10    2.47    0.11
  -2  -2  10    2.68    0.09
  -2  -2  10    2.41    0.13
   1   2 -10   17.18    0.42
  -1  -2  10   17.10    0.45
   0   2 -10    1.83    0.10
   0  -2  10    1.99    0.11
   0  -2  10    2.11    0.14
   0  -2  10    1.84    0.12
   1  -2  10   15.27    0.41
   1  -2  10   15.71    0.40
   1  -2  10   15.90    0.44
   1  -2  10   16.07    0.41
   2  -2  10   16.82    0.45
   2  -2  10   15.94    0.42
   2  -2  10   16.07    0.42
   2  -2  10   15.86    0.41
   3  -2  10    2.80    0.14
   3  -2  10    2.69    0.14
   3  -2  10    2.85    0.14
   3  -2  10    2.73    0.16
   4  -2  10    1.09    0.09
   4  -2  10    1.17    0.09
   4  -2  10    1.04    0.12
   4  -2  10    0.97    0.09
   5  -2  10    2.87    0.15
   5  -2  10    2.84    0.13
   5  -2  10    2.84    0.14
   5  -2  10    2.81    0.16
   6  -2  10    0.18    0.07
   6  -2  10    0.21    0.06
   6  -2  10    0.25    0.06
   7  -2  10    3.68    0.15
   7  -2  10    3.66    0.15
   8  -2  10    0.57    0.06
   8  -2  10    0.54    0.07
   9  -2  10    2.26    0.10
   6   1 -10    4.59    0.13
   5   1 -10    1.15    0.07
   4   1 -10    0.19    0.04
   3   1 -10    0.86    0.07
  -3  -1  10    0.69    0.04
   2   1 -10    3.70    0.14
  -2  -1  10    3.40    0.16
   1   1 -10    3.71    0.14
  -1  -1  10    3.95    0.18
   0  -1  10    1.90    0.13
   1  -1  10    1.00    0.09
   1  -1  10    1.13    0.12
   1  -1  10    1.13    0.10
   1  -1  10    1.17    0.11
   2  -1  10    0.20    0.06
   2  -1  10    0.18    0.07
   2  -1  10    0.29    0.06
   2  -1  10    0.25    0.06
   3  -1  10    0.27    0.06
   3  -1  10    0.15    0.06
   3  -1  10    0.21    0.07
   3  -1  10    0.16    0.06
   4  -1  10    0.50    0.07
   4  -1  10    0.75    0.09
   4  -1  10    0.71    0.08
   4  -1  10    0.74    0.08
   5  -1  10    0.48    0.08
   5  -1  10    0.45    0.07
   5  -1  10    0.41    0.06
   5  -1  10    0.40    0.07
   6  -1  10   10.66    0.30
   6  -1  10   10.73    0.31
   6  -1  10   10.07    0.29
   7  -1  10   14.10    0.38
   7  -1  10   14.15    0.37
   8  -1  10   11.86    0.32
   8  -1  10   11.53    0.31
   9  -1  10    0.87    0.08
   9  -1  10    0.79    0.08
  10  -1  10    1.15    0.07
   6   0 -10    1.76    0.08
   5   0 -10    8.56    0.23
   4   0 -10    4.45    0.15
   3   0 -10    2.61    0.11
  -3   0  10    2.30    0.09
   2   0 -10    1.84    0.10
  -2   0  10    1.74    0.12
   1   0 -10    0.50    0.06
  -1   0  10    0.42    0.08
   0   0  10    0.74    0.09
   0   0  10    0.69    0.08
   1   0  10    0.86    0.11
   1   0  10    0.88    0.09
   1   0  10    0.92    0.09
   1   0  10    1.06    0.12
   2   0  10    2.86    0.16
   2   0  10    2.95    0.14
   2   0  10    2.82    0.13
   2   0  10    2.88    0.14
   3   0  10    1.45    0.11
   3   0  10    1.45    0.10
   3   0  10    1.33    0.13
   3   0  10    1.29    0.11
   4   0  10    0.48    0.07
   4   0  10    0.50    0.07
   4   0  10    0.51    0.08
   4   0  10    0.41    0.07
   5   0  10    9.53    0.30
   5   0  10    9.79    0.28
   5   0  10    9.62    0.28
   5   0  10    9.57    0.29
   6   0  10   11.14    0.32
   6   0  10   11.10    0.31
   6   0  10   11.12    0.31
  -7   0 -10    2.86    0.12
   7   0  10    3.08    0.15
   7   0  10    2.67    0.13
   7   0  10    2.94    0.14
  -8   0 -10    4.07    0.14
   8   0  10    4.37    0.16
   8   0  10    4.18    0.17
  -9   0 -10    3.12    0.12
   9   0  10    3.37    0.14
   9   0  10    3.20    0.13
  10   0  10    3.65    0.13
   6  -1 -10   10.81    0.27
   5  -1 -10    1.62    0.09
   4  -1 -10    0.04    0.04
   3  -1 -10    9.51    0.26
   2  -1 -10    4.68    0.16
  -2   1  10    4.66    0.19
   1  -1 -10   10.01    0.27
  -1   1  10    9.74    0.30
   0   1  10   10.35    0.32
   0   1  10   10.68    0.30
   1   1  10    3.65    0.15
   1   1  10    3.63    0.15
   1   1  10    3.57    0.17
   2   1  10    9.20    0.26
   2   1  10    9.27    0.30
   2   1  10    9.47    0.28
   2   1  10    9.07    0.27
   3   1  10    1.85    0.12
   3   1  10    2.03    0.12
   3   1  10    1.81    0.11
   3   1  10    1.69    0.13
   4   1  10    6.45    0.21
   4   1  10    6.34    0.22
   4   1  10    6.44    0.24
   4   1  10    6.56    0.22
  -5  -1 -10    5.88    0.19
   5   1  10    6.45    0.21
   5   1  10    6.45    0.22
   5   1  10    6.23    0.23
   5   1  10    6.63    0.22
  -6  -1 -10    1.78    0.10
   6   1  10    2.02    0.13
   6   1  10    1.94    0.12
   6   1  10    1.84    0.13
  -7  -1 -10    2.78    0.12
   7   1  10    3.03    0.14
   7   1  10    2.88    0.14
   7   1  10    2.84    0.15
  -8  -1 -10    2.99    0.12
   8   1  10    2.99    0.14
   8   1  10    3.27    0.15
   8   1  10    2.90    0.16
  -9  -1 -10    3.17    0.12
   9   1  10    3.15    0.13
   9   1  10    3.14    0.14
 -10  -1 -10    7.64    0.20
  10   1  10    7.63    0.21
  10   1  10    7.63    0.21
   7  -2 -10    0.09    0.03
   6  -2 -10    7.65    0.20
   5  -2 -10    0.05    0.04
   4  -2 -10    0.61    0.06
   3  -2 -10    4.77    0.16
   2  -2 -10    2.21    0.10
  -2   2  10    2.32    0.14
   1  -2 -10   15.09    0.37
  -1   2  10   14.45    0.40
   0   2  10    1.03    0.11
   0   2  10    0.99    0.09
   1   2  10    0.68    0.09
   1   2  10    0.60    0.07
   2   2  10    4.86    0.18
   2   2  10    4.98    0.20
   2   2  10    5.06    0.18
  -3  -2 -10    0.62    0.06
   3   2  10    0.57    0.07
   3   2  10    0.52    0.06
   3   2  10    0.46    0.08
   3   2  10    0.56    0.07
  -4  -2 -10    0.76    0.07
   4   2  10    0.83    0.08
   4   2  10    0.75    0.07
   4   2  10    0.76    0.09
   4   2  10    0.71    0.09
  -5  -2 -10    4.24    0.15
   5   2  10    4.02    0.16
   5   2  10    4.08    0.17
   5   2  10    4.12    0.17
   5   2  10    4.13    0.18
  -6  -2 -10    0.19    0.05
   6   2  10    0.16    0.06
   6   2  10    0.12    0.06
   6   2  10    0.19    0.06
  -7  -2 -10    0.13    0.05
   7   2  10    0.10    0.05
   7   2  10    0.13    0.06
   7   2  10    0.17    0.06
  -8  -2 -10    0.36    0.06
   8   2  10    0.32    0.06
   8   2  10    0.12    0.05
   8   2  10    0.21    0.06
  -9  -2 -10    1.03    0.08
   9   2  10    1.10    0.09
   9   2  10    1.00    0.09
 -10  -2 -10    1.19    0.08
  10   2  10    1.11    0.08
  10   2  10    1.16    0.08
   7  -3 -10    0.18    0.03
   6  -3 -10    0.27    0.04
   5  -3 -10    0.24    0.05
   4  -3 -10    3.23    0.13
   3  -3 -10    1.28    0.08
   2  -3 -10    3.28    0.12
  -2   3  10    3.31    0.18
   1  -3 -10   11.90    0.31
  -1   3  10   12.56    0.35
   0   3  10    3.15    0.14
  -1  -3 -10    0.39    0.05
   1   3  10    0.34    0.06
   1   3  10    0.37    0.07
  -2  -3 -10    1.03    0.08
   2   3  10    1.11    0.09
   2   3  10    1.13    0.11
  -3  -3 -10    3.59    0.13
   3   3  10    3.67    0.15
   3   3  10    3.59    0.15
   3   3  10    3.67    0.17
  -4  -3 -10   17.22    0.42
   4   3  10   17.37    0.44
   4   3  10   16.90    0.43
   4   3  10   17.09    0.42
   4   3  10   17.12    0.46
  -5  -3 -10    8.73    0.24
   5   3  10    8.45    0.25
   5   3  10    8.73    0.25
   5   3  10    8.76    0.26
   5   3  10    8.13    0.27
  -6  -3 -10    1.12    0.09
   6   3  10    1.05    0.10
   6   3  10    1.19    0.10
   6   3  10    1.02    0.10
  -7  -3 -10    1.53    0.10
   7   3  10    1.77    0.12
   7   3  10    1.60    0.11
   7   3  10    1.48    0.11
  -8  -3 -10    0.16    0.05
   8   3  10    0.27    0.06
   8   3  10    0.15    0.06
   8   3  10    0.16    0.05
  -9  -3 -10    4.31    0.15
   9   3  10    4.19    0.16
   9   3  10    4.25    0.15
 -10  -3 -10    1.64    0.08
  10   3  10    1.44    0.12
  10   3  10    1.49    0.09
   6  -4 -10    1.46    0.07
   5  -4 -10    9.77    0.25
   4  -4 -10   11.03    0.29
   3  -4 -10    0.07    0.04
   2  -4 -10   14.76    0.36
  -2   4  10   14.31    0.42
   1  -4 -10   12.09    0.31
  -1   4  10   12.14    0.35
   0  -4 -10    3.23    0.12
   0   4  10    3.21    0.16
  -1  -4 -10    0.55    0.06
   1   4  10    0.54    0.08
  -2  -4 -10    3.50    0.13
   2   4  10    3.37    0.16
  -3  -4 -10    4.10    0.15
   3   4  10    4.44    0.19
  -4  -4 -10   33.02    0.75
   4   4  10   33.38    0.79
   4   4  10   33.20    0.75
  -5  -4 -10   25.36    0.58
   5   4  10   24.84    0.58
   5   4  10   23.89    0.61
  -6  -4 -10    5.04    0.17
   6   4  10    5.25    0.18
  -7  -4 -10    0.32    0.06
   7   4  10    0.38    0.07
  -8  -4 -10    0.73    0.07
   8   4  10    0.92    0.09
  -9  -4 -10    1.49    0.09
   9   4  10    1.46    0.10
 -10  -4 -10    2.50    0.10
  10   4  10    2.47    0.11
   4  -5 -10    1.24    0.08
   3  -5 -10    0.31    0.05
   2  -5 -10    5.35    0.17
  -2   5  10    5.51    0.21
   1  -5 -10   20.45    0.48
  -1   5  10   20.22    0.52
   0  -5 -10   60.18    1.31
   0   5  10   61.13    1.36
  -1  -5 -10    7.34    0.21
   1   5  10    7.30    0.25
  -2  -5 -10    8.67    0.24
   2   5  10    8.46    0.27
  -3  -5 -10   16.72    0.41
   3   5  10   17.01    0.45
  -4  -5 -10    7.32    0.22
   4   5  10    7.10    0.25
  -5  -5 -10   26.31    0.60
   5   5  10   25.38    0.63
   5   5  10   25.62    0.60
  -6  -5 -10    0.84    0.08
   6   5  10    0.96    0.08
  -7  -5 -10    0.84    0.08
   7   5  10    0.85    0.08
  -8  -5 -10    1.04    0.09
   8   5  10    1.12    0.10
  -9  -5 -10   10.50    0.27
   9   5  10   10.36    0.28
 -10  -5 -10    1.25    0.07
  10   5  10    1.34    0.08
   5  -6 -10    0.84    0.07
   4  -6 -10    7.94    0.22
   4  -6 -10    7.73    0.18
   3  -6 -10    8.15    0.19
   3  -6 -10    8.18    0.23
   2  -6 -10    5.02    0.13
   2  -6 -10    5.13    0.17
  -2   6  10    4.92    0.19
   1  -6 -10    1.68    0.10
  -1   6  10    1.59    0.12
   0  -6 -10   13.53    0.35
   0   6  10   13.55    0.38
  -1  -6 -10    0.22    0.05
   1   6  10    0.22    0.06
  -2  -6 -10    0.58    0.06
   2   6  10    0.71    0.09
  -3  -6 -10    0.22    0.05
   3   6  10    0.21    0.06
  -4  -6 -10    8.85    0.25
   4   6  10    8.37    0.28
  -5  -6 -10    3.62    0.14
   5   6  10    3.55    0.14
   5   6  10    3.63    0.17
  -6  -6 -10    3.23    0.14
   6   6  10    3.01    0.13
  -7  -6 -10    0.21    0.05
   7   6  10    0.21    0.06
  -8  -6 -10    2.74    0.12
   8   6  10    2.80    0.13
  -9  -6 -10    0.47    0.05
   9   6  10    0.42    0.06
  10   6  10    2.55    0.10
   6  -7 -10    0.67    0.06
   5  -7 -10    2.31    0.07
   5  -7 -10    2.32    0.10
   4  -7 -10    1.10    0.05
   4  -7 -10    1.19    0.09
   3  -7 -10   10.53    0.29
   3  -7 -10   10.77    0.25
   2  -7 -10    2.40    0.08
   2  -7 -10    2.28    0.11
  -2   7  10    2.54    0.14
   1  -7 -10   18.67    0.41
   1  -7 -10   18.66    0.45
  -1   7  10   18.13    0.48
   0  -7 -10    2.43    0.12
   0  -7 -10    2.24    0.07
   0   7  10    2.37    0.14
  -1  -7 -10    0.54    0.06
   1   7  10    0.56    0.08
  -2  -7 -10    4.89    0.17
   2   7  10    4.99    0.20
  -3  -7 -10   14.23    0.36
   3   7  10   13.80    0.39
  -4  -7 -10    0.26    0.06
   4   7  10    0.21    0.06
  -5  -7 -10   16.61    0.40
   5   7  10   15.74    0.43
  -6  -7 -10    8.77    0.25
   6   7  10    8.53    0.24
  -7  -7 -10    0.09    0.05
   7   7  10    0.10    0.05
  -8  -7 -10    0.40    0.05
   8   7  10    0.37    0.06
  -9  -7 -10    5.32    0.15
   9   7  10    5.47    0.17
   6  -8 -10    0.67    0.06
   6  -8 -10    0.76    0.03
   5  -8 -10    2.96    0.08
   5  -8 -10    2.91    0.12
   4  -8 -10    9.79    0.23
   4  -8 -10   10.03    0.27
   3  -8 -10    3.94    0.11
   3  -8 -10    4.02    0.15
   2  -8 -10    1.30    0.06
   2  -8 -10    1.11    0.09
  -2   8  10    1.29    0.11
   1  -8 -10    1.81    0.10
   1  -8 -10    1.96    0.07
  -1   8  10    1.94    0.13
   0  -8 -10    0.29    0.03
   0  -8 -10    0.29    0.05
   0   8  10    0.28    0.07
  -1  -8 -10    0.30    0.03
  -1  -8 -10    0.29    0.05
   1   8  10    0.30    0.07
  -2  -8 -10    2.68    0.12
   2   8  10    2.49    0.15
  -3  -8 -10    8.56    0.24
   3   8  10    8.16    0.27
  -4  -8 -10   11.23    0.30
   4   8  10   10.94    0.33
  -5  -8 -10    6.70    0.20
   5   8  10    6.54    0.23
  -6  -8 -10   21.60    0.51
  -7  -8 -10    2.64    0.11
   7   8  10    2.80    0.12
   8   8  10    0.75    0.06
   9   8  10    0.13    0.04
   6  -9 -10    0.09    0.03
   6  -9 -10    0.14    0.02
   5  -9 -10    5.43    0.14
   5  -9 -10    5.66    0.17
   4  -9 -10    5.24    0.14
   4  -9 -10    5.31    0.17
   3  -9 -10    0.07    0.04
   3  -9 -10    0.09    0.03
   2  -9 -10    0.25    0.03
   2  -9 -10    0.24    0.05
  -2   9  10    0.24    0.06
   1  -9 -10    0.17    0.05
   1  -9 -10    0.26    0.03
  -1   9  10    0.18    0.06
   0  -9 -10    5.45    0.18
   0  -9 -10    5.40    0.14
   0   9  10    5.21    0.21
  -1  -9 -10    0.55    0.06
  -1  -9 -10    0.48    0.04
   1   9  10    0.58    0.09
  -2  -9 -10    0.87    0.08
   2   9  10    0.68    0.09
  -3  -9 -10    4.30    0.15
   3   9  10    4.26    0.19
  -4  -9 -10    1.55    0.10
   4   9  10    1.49    0.12
  -5  -9 -10    1.62    0.09
   5   9  10    1.55    0.11
   7   9  10    0.28    0.05
   8   9  10    0.05    0.03
   5 -10 -10    3.54    0.12
   5 -10 -10    3.52    0.09
   4 -10 -10    2.26    0.07
   4 -10 -10    2.19    0.10
   3 -10 -10    4.18    0.15
   3 -10 -10    4.21    0.12
   2 -10 -10    6.36    0.19
   2 -10 -10    6.27    0.16
  -2  10  10    6.09    0.21
   1 -10 -10    0.97    0.08
   1 -10 -10    0.94    0.05
  -1  10  10    0.94    0.10
   0 -10 -10    1.13    0.09
   0 -10 -10    1.12    0.06
   0  10  10    1.22    0.12
  -1 -10 -10    4.82    0.13
  -1 -10 -10    4.56    0.16
   1  10  10    4.62    0.19
  -2 -10 -10    1.60    0.10
  -2 -10 -10    1.70    0.07
   2  10  10    1.47    0.13
  -3 -10 -10    6.03    0.18
   3  10  10    5.83    0.22
   4  10  10    0.11    0.06
   5  10  10    0.86    0.08
   5 -11 -10    0.35    0.02
   4 -11 -10    2.29    0.07
   4 -11 -10    2.11    0.09
   3 -11 -10    4.26    0.14
   3 -11 -10    4.50    0.12
   2 -11 -10    0.45    0.04
   2 -11 -10    0.54    0.06
  -2  11  10    0.45    0.06
   1 -11 -10    0.21    0.03
   1 -11 -10    0.37    0.05
  -1  11  10    0.18    0.05
   0 -11 -10    1.04    0.05
   0 -11 -10    0.97    0.07
   0  11  10    1.10    0.11
  -1 -11 -10    0.21    0.03
  -1 -11 -10    0.12    0.04
   1  11  10   -0.01    0.06
   2  11  10    7.39    0.24
   3  11  10    9.80    0.29
   4  11  10    3.25    0.14
   5  11  10    3.22    0.13
   4 -12 -10    3.78    0.09
   3 -12 -10   12.37    0.27
   2 -12 -10    2.57    0.08
   2 -12 -10    2.37    0.09
  -2  12  10    2.72    0.14
   1 -12 -10    1.39    0.05
  -1  12  10    1.60    0.10
   0 -12 -10    2.06    0.07
   0  12  10    1.96    0.11
  -1 -12 -10    4.95    0.12
   1  12  10    4.91    0.18
   2  12  10    6.20    0.21
   3  12  10    0.22    0.06
   4  12  10    1.12    0.08
   2 -13 -10    0.19    0.02
   1 -13 -10    5.23    0.13
  -1  13  10    5.42    0.16
   0 -13 -10    9.53    0.21
   0  13  10    9.87    0.26
  -1 -13 -10    3.59    0.13
   1  13  10    3.64    0.13
  -2 -13 -10    4.89    0.15
   2  13  10    4.47    0.15
   3  13  10    1.29    0.08
  -1  -4  11    1.14    0.04
   0   4 -11    2.53    0.10
   0  -4  11    2.33    0.07
   0  -4  11    2.24    0.10
  -1   4 -11    1.18    0.06
   1  -4  11    1.23    0.09
  -2   4 -11    3.67    0.11
   2  -4  11    3.59    0.14
   2  -4  11    3.47    0.12
  -3   4 -11   17.58    0.40
   3  -4  11   17.70    0.42
   3  -4  11   17.69    0.44
   4  -4  11    7.02    0.21
   4  -4  11    6.80    0.19
   4  -4  11    6.87    0.19
   5  -4  11    1.42    0.10
   5  -4  11    1.35    0.07
   2   3 -11    1.72    0.07
  -2  -3  11    1.56    0.05
   1   3 -11    0.44    0.04
  -1  -3  11    0.47    0.03
  -1  -3  11    0.52    0.06
   0   3 -11    5.62    0.16
   0  -3  11    5.67    0.19
  -1   3 -11    2.03    0.09
   1  -3  11    1.82    0.09
   1  -3  11    2.02    0.12
  -2   3 -11    0.20    0.04
   2  -3  11    0.18    0.05
   2  -3  11    0.20    0.06
   3  -3  11    0.23    0.06
   3  -3  11    0.27    0.05
   3  -3  11    0.23    0.05
   4  -3  11    1.68    0.10
   4  -3  11    1.66    0.10
   4  -3  11    1.77    0.12
   5  -3  11    2.21    0.11
   5  -3  11    2.17    0.12
   5  -3  11    2.23    0.11
   6  -3  11    3.21    0.12
   6  -3  11    3.14    0.12
   7  -3  11    1.81    0.09
   3   2 -11    5.82    0.16
   2   2 -11    7.35    0.19
  -2  -2  11    7.07    0.17
   1   2 -11   10.39    0.26
  -1  -2  11   10.32    0.29
   0   2 -11   11.42    0.29
   0  -2  11   11.07    0.32
  -1   2 -11    2.18    0.10
   1  -2  11    1.93    0.10
   1  -2  11    1.98    0.13
   2  -2  11    7.68    0.24
   2  -2  11    7.79    0.23
   2  -2  11    7.88    0.26
   3  -2  11   13.80    0.36
   3  -2  11   13.82    0.39
   3  -2  11   14.13    0.36
   4  -2  11    1.51    0.12
   4  -2  11    1.49    0.11
   4  -2  11    1.76    0.10
   5  -2  11    0.15    0.05
   5  -2  11    0.23    0.06
   5  -2  11    0.27    0.06
   6  -2  11    0.88    0.08
   6  -2  11    0.95    0.09
   7  -2  11    0.27    0.05
   7  -2  11    0.19    0.05
   8  -2  11    1.11    0.07
   4   1 -11    2.13    0.08
   3   1 -11    5.43    0.16
   2   1 -11    2.94    0.11
  -2  -1  11    2.91    0.08
   1   1 -11   11.04    0.28
  -1  -1  11   10.86    0.32
   0   1 -11    9.36    0.25
   0  -1  11    8.92    0.29
   1  -1  11    1.66    0.13
   1  -1  11    1.48    0.11
   1  -1  11    1.56    0.11
   2  -1  11    3.09    0.14
   2  -1  11    3.16    0.15
   2  -1  11    3.07    0.17
   2  -1  11    3.21    0.14
   3  -1  11    2.01    0.12
   3  -1  11    1.91    0.14
   3  -1  11    1.92    0.12
   3  -1  11    2.17    0.13
   4  -1  11    3.52    0.16
   4  -1  11    3.30    0.17
   4  -1  11    3.48    0.15
   4  -1  11    3.23    0.14
   5  -1  11    3.35    0.16
   5  -1  11    3.28    0.15
   5  -1  11    3.42    0.15
   6  -1  11    5.55    0.19
   6  -1  11    5.30    0.18
   7  -1  11    2.04    0.11
   7  -1  11    1.88    0.11
   8  -1  11    0.36    0.05
   8  -1  11    0.39    0.06
   9  -1  11    2.12    0.09
   5   0 -11    0.12    0.03
   4   0 -11    3.88    0.13
   3   0 -11    1.58    0.08
   2   0 -11   11.75    0.30
  -2   0  11   11.30    0.26
   1   0 -11    5.59    0.18
  -1   0  11    5.37    0.20
   0   0 -11    2.31    0.11
   0   0  11    2.36    0.15
   1   0  11    1.24    0.12
   1   0  11    1.13    0.10
   2   0  11    7.68    0.24
   2   0  11    8.28    0.25
   2   0  11    8.27    0.28
   2   0  11    8.15    0.26
   3   0  11    4.67    0.18
   3   0  11    4.57    0.17
   3   0  11    4.75    0.21
   3   0  11    4.82    0.18
   4   0  11   21.23    0.55
   4   0  11   20.51    0.52
   4   0  11   21.20    0.51
   4   0  11   21.55    0.53
   5   0  11   14.24    0.37
   5   0  11   13.49    0.37
   5   0  11   13.48    0.38
   5   0  11   13.46    0.36
   6   0  11    6.05    0.20
   6   0  11    5.84    0.22
   6   0  11    6.12    0.21
   7   0  11    2.17    0.12
   7   0  11    2.12    0.12
   8   0  11    0.74    0.07
   8   0  11    0.74    0.07
   9   0  11    0.63    0.06
   9   0  11    0.67    0.06
   5  -1 -11    5.46    0.15
   4  -1 -11    0.32    0.05
   3  -1 -11    0.73    0.07
   2  -1 -11    5.34    0.17
  -2   1  11    5.13    0.13
   1  -1 -11    0.84    0.08
  -1   1  11    0.88    0.09
   0  -1 -11    2.10    0.11
   0   1  11    2.03    0.14
   1   1  11    1.53    0.13
   1   1  11    1.49    0.12
   2   1  11    0.20    0.06
   2   1  11    0.15    0.06
   2   1  11    0.22    0.07
   3   1  11   11.24    0.33
   3   1  11   11.36    0.31
   3   1  11   11.91    0.35
   3   1  11   12.09    0.33
   4   1  11   27.17    0.67
   4   1  11   27.41    0.65
   4   1  11   27.30    0.64
   4   1  11   26.61    0.65
   5   1  11    0.53    0.08
   5   1  11    0.67    0.07
   5   1  11    0.51    0.08
   5   1  11    0.55    0.07
  -6  -1 -11    4.46    0.15
   6   1  11    4.63    0.18
   6   1  11    4.46    0.17
   6   1  11    4.38    0.17
  -7  -1 -11    1.56    0.09
   7   1  11    1.67    0.12
   7   1  11    1.62    0.11
  -8  -1 -11    6.42    0.19
   8   1  11    6.61    0.20
   8   1  11    6.76    0.21
  -9  -1 -11    3.26    0.11
   9   1  11    3.28    0.12
   9   1  11    3.18    0.12
   6  -2 -11    0.91    0.05
   5  -2 -11    9.75    0.25
   4  -2 -11    1.03    0.08
   3  -2 -11   13.91    0.34
   2  -2 -11    3.29    0.13
   1  -2 -11    1.97    0.10
  -1   2  11    2.03    0.13
   0  -2 -11    5.47    0.17
   0   2  11    5.51    0.21
   1   2  11    4.14    0.17
   1   2  11    3.70    0.18
   2   2  11    0.87    0.09
   2   2  11    0.82    0.10
   3   2  11   11.53    0.32
   3   2  11   10.83    0.32
   3   2  11   10.84    0.30
   3   2  11   11.31    0.34
  -4  -2 -11   23.09    0.55
   4   2  11   24.11    0.58
   4   2  11   23.24    0.56
   4   2  11   24.23    0.60
   4   2  11   23.86    0.57
  -5  -2 -11    4.50    0.16
   5   2  11    4.77    0.19
   5   2  11    4.89    0.18
   5   2  11    4.75    0.20
   5   2  11    4.77    0.17
  -6  -2 -11    0.91    0.08
   6   2  11    0.99    0.10
   6   2  11    0.98    0.09
   6   2  11    0.98    0.09
  -7  -2 -11    1.40    0.09
   7   2  11    1.59    0.11
   7   2  11    1.43    0.11
   7   2  11    1.45    0.12
  -8  -2 -11    6.90    0.20
   8   2  11    7.32    0.22
   8   2  11    7.16    0.22
  -9  -2 -11    1.05    0.07
   9   2  11    0.91    0.08
   9   2  11    1.08    0.08
   6  -3 -11    1.09    0.06
   5  -3 -11    5.77    0.16
   4  -3 -11    2.95    0.11
   3  -3 -11    4.81    0.16
   2  -3 -11    0.23    0.05
   1  -3 -11    2.54    0.11
  -1   3  11    2.56    0.14
   0  -3 -11    0.33    0.05
   0   3  11    0.27    0.07
   1   3  11    0.27    0.06
   1   3  11    0.21    0.07
  -2  -3 -11    3.95    0.14
   2   3  11    3.97    0.18
   2   3  11    3.99    0.16
  -3  -3 -11    5.39    0.17
   3   3  11    5.71    0.22
   3   3  11    5.57    0.19
  -4  -3 -11    0.70    0.07
   4   3  11    0.76    0.08
   4   3  11    0.89    0.08
   4   3  11    0.62    0.09
  -5  -3 -11    0.28    0.05
   5   3  11    0.18    0.06
   5   3  11    0.16    0.06
   5   3  11    0.21    0.07
   5   3  11    0.28    0.06
  -6  -3 -11    0.18    0.05
   6   3  11    0.02    0.05
   6   3  11    0.02    0.05
   6   3  11    0.17    0.06
  -7  -3 -11    0.18    0.05
   7   3  11    0.24    0.06
   7   3  11    0.17    0.06
   7   3  11    0.20    0.06
  -8  -3 -11    0.27    0.05
   8   3  11    0.21    0.06
   8   3  11    0.28    0.06
  -9  -3 -11    0.91    0.07
   9   3  11    0.81    0.07
   9   3  11    0.77    0.07
 -10  -3 -11    1.96    0.11
  10   3  11    2.04    0.12
   5  -4 -11    4.40    0.13
   4  -4 -11    2.26    0.10
   3  -4 -11    2.15    0.10
   2  -4 -11    0.35    0.05
  -1   4  11    1.14    0.11
   0  -4 -11    0.81    0.07
   0   4  11    0.69    0.08
  -1  -4 -11    1.75    0.09
   1   4  11    1.95    0.14
  -2  -4 -11    1.83    0.10
   2   4  11    2.03    0.14
  -3  -4 -11    0.54    0.06
   3   4  11    0.79    0.10
  -4  -4 -11    5.70    0.18
   4   4  11    5.52    0.22
  -5  -4 -11   10.82    0.29
   5   4  11   10.86    0.29
   5   4  11   10.47    0.32
  -6  -4 -11    7.08    0.21
   6   4  11    6.77    0.22
  -7  -4 -11    0.23    0.05
   7   4  11    0.20    0.06
  -8  -4 -11    0.09    0.05
   8   4  11    0.11    0.05
  -9  -4 -11    0.39    0.05
   9   4  11    0.30    0.05
 -10  -4 -11    0.72    0.08
  10   4  11    0.64    0.08
   2  -5 -11    0.13    0.04
  -2   5  11    0.22    0.10
   1  -5 -11    2.23    0.11
  -1   5  11    2.39    0.14
   0  -5 -11    0.18    0.05
   0   5  11    0.17    0.06
  -1  -5 -11   41.20    0.91
   1   5  11   40.76    0.96
  -2  -5 -11   42.02    0.93
   2   5  11   42.00    0.98
  -3  -5 -11    7.49    0.22
   3   5  11    7.58    0.26
  -4  -5 -11    7.18    0.21
   4   5  11    6.84    0.25
  -5  -5 -11    4.78    0.16
   5   5  11    4.23    0.16
   5   5  11    4.60    0.19
  -6  -5 -11    0.70    0.07
   6   5  11    0.65    0.07
  -7  -5 -11    1.45    0.10
   7   5  11    1.33    0.10
  -8  -5 -11    3.03    0.12
   8   5  11    2.97    0.13
  -9  -5 -11    1.04    0.08
   9   5  11    0.92    0.08
   4  -6 -11    6.16    0.18
   3  -6 -11    6.82    0.20
   2  -6 -11   40.84    0.89
  -2   6  11   39.12    0.98
   1  -6 -11    2.58    0.12
  -1   6  11    2.57    0.15
   0  -6 -11    6.74    0.20
   0   6  11    6.66    0.24
  -1  -6 -11   39.08    0.88
   1   6  11   39.49    0.92
  -2  -6 -11    5.10    0.17
   2   6  11    5.08    0.21
  -3  -6 -11    2.50    0.12
   3   6  11    2.61    0.15
  -4  -6 -11    5.61    0.18
   4   6  11    5.34    0.21
  -5  -6 -11    0.18    0.05
   5   6  11    0.10    0.06
  -6  -6 -11    1.21    0.09
   6   6  11    1.29    0.10
  -7  -6 -11    3.66    0.14
   7   6  11    3.48    0.14
  -8  -6 -11    3.02    0.12
   8   6  11    3.23    0.13
  -9  -6 -11    1.76    0.08
   9   6  11    1.82    0.09
   5  -7 -11    6.16    0.17
   4  -7 -11    3.06    0.12
   3  -7 -11    2.53    0.11
   2  -7 -11    3.83    0.14
  -2   7  11    3.76    0.17
   1  -7 -11    0.10    0.04
  -1   7  11    0.08    0.06
   0  -7 -11    1.59    0.10
   0   7  11    1.98    0.14
  -1  -7 -11   14.12    0.36
   1   7  11   13.98    0.40
  -2  -7 -11    0.27    0.06
   2   7  11    0.22    0.07
  -3  -7 -11    2.53    0.12
   3   7  11    2.51    0.15
  -4  -7 -11    0.22    0.05
   4   7  11    0.19    0.06
  -5  -7 -11    3.98    0.15
   5   7  11    3.69    0.17
  -6  -7 -11    6.57    0.20
  -7  -7 -11    1.85    0.10
   7   7  11    1.77    0.10
  -8  -7 -11    1.16    0.08
   8   7  11    1.21    0.08
  -9  -7 -11    0.57    0.08
   9   7  11    0.52    0.05
   5  -8 -11    2.61    0.10
   4  -8 -11    1.71    0.09
   3  -8 -11    6.71    0.20
   2  -8 -11    2.04    0.10
  -2   8  11    1.92    0.12
   1  -8 -11    0.62    0.07
  -1   8  11    0.89    0.10
   0  -8 -11    0.16    0.05
   0   8  11    0.21    0.07
  -1  -8 -11    3.59    0.15
   1   8  11    3.84    0.18
  -2  -8 -11    8.53    0.24
   2   8  11    8.41    0.28
  -3  -8 -11    1.21    0.09
   3   8  11    1.05    0.12
  -4  -8 -11    0.78    0.07
   4   8  11    0.55    0.08
  -5  -8 -11    2.01    0.10
   5   8  11    1.78    0.12
  -6  -8 -11    5.50    0.17
  -7  -8 -11    2.85    0.11
   7   8  11    3.03    0.15
  -8  -8 -11    0.31    0.04
   8   8  11    0.34    0.04
   5  -9 -11    0.84    0.06
   4  -9 -11    6.01    0.18
   3  -9 -11    1.26    0.05
   3  -9 -11    1.45    0.08
   2  -9 -11    0.11    0.04
   2  -9 -11    0.09    0.02
  -2   9  11    0.12    0.05
   1  -9 -11    4.03    0.11
   1  -9 -11    4.32    0.15
  -1   9  11    4.42    0.18
   0  -9 -11    0.31    0.06
   0   9  11    0.12    0.06
  -1  -9 -11    7.15    0.21
   1   9  11    6.95    0.24
  -2  -9 -11   14.42    0.37
   2   9  11   15.10    0.41
  -3  -9 -11    4.96    0.16
   3   9  11    4.61    0.19
  -4  -9 -11   11.45    0.30
   4   9  11   11.60    0.33
  -5  -9 -11    9.45    0.25
   5   9  11    9.34    0.28
  -6  -9 -11    0.60    0.06
   4 -10 -11    2.89    0.08
   4 -10 -11    2.69    0.10
   3 -10 -11    2.91    0.08
   3 -10 -11    3.00    0.11
   2 -10 -11    0.16    0.04
   2 -10 -11    0.16    0.02
  -2  10  11    0.13    0.07
   1 -10 -11    5.31    0.17
   1 -10 -11    5.40    0.13
  -1  10  11    5.59    0.19
   0 -10 -11    0.11    0.04
   0  10  11    0.09    0.06
  -1 -10 -11    0.62    0.06
   1  10  11    0.46    0.08
  -2 -10 -11    2.65    0.12
   2  10  11    2.60    0.15
  -3 -10 -11    0.84    0.08
   3  10  11    0.65    0.08
  -4 -10 -11    4.41    0.15
   4  10  11    4.71    0.18
   5  10  11    1.03    0.09
   3 -11 -11    0.26    0.02
   3 -11 -11    0.24    0.04
   2 -11 -11    1.50    0.08
   2 -11 -11    1.56    0.05
   1 -11 -11    3.10    0.11
   1 -11 -11    3.02    0.08
  -1  11  11    3.17    0.13
   0 -11 -11    3.31    0.12
   0  11  11    3.13    0.14
  -1 -11 -11    1.13    0.07
   1  11  11    0.98    0.10
  -2 -11 -11    0.22    0.04
   2  11  11    0.16    0.06
   3  11  11    1.06    0.10
   4  11  11    0.28    0.06
   5  11  11    1.67    0.09
   1 -12 -11    0.16    0.03
  -1  12  11    0.17    0.04
   0 -12 -11    3.00    0.13
   0  12  11    3.01    0.13
   1  12  11    0.86    0.08
   2  12  11    1.45    0.10
   3  12  11    2.16    0.11
   4  12  11    0.08    0.04
   0  13  11    7.45    0.22
   1  13  11    0.98    0.07
   2  13  11    3.13    0.11
   0  -3  12    1.68    0.05
  -1   3 -12    1.63    0.06
   1  -3  12    1.82    0.09
  -2   3 -12    6.75    0.17
   2  -3  12    6.84    0.21
  -3   3 -12    3.75    0.11
   3  -3  12    3.81    0.14
  -4   3 -12    0.09    0.03
   4  -3  12    0.16    0.04
   1   2 -12    0.90    0.05
  -1  -2  12    0.84    0.03
   0   2 -12    2.82    0.10
   0  -2  12    2.90    0.12
  -1   2 -12    0.97    0.06
   1  -2  12    1.03    0.09
  -2   2 -12    0.36    0.04
   2  -2  12    0.31    0.06
   2  -2  12    0.32    0.04
   3  -2  12    7.28    0.21
   3  -2  12    7.21    0.23
   3  -2  12    7.15    0.20
   4  -2  12    1.24    0.10
   4  -2  12    1.17    0.08
   4  -2  12    1.00    0.08
   5  -2  12    4.67    0.15
   5  -2  12    4.63    0.15
   5  -2  12    4.43    0.16
   6  -2  12    1.49    0.09
   6  -2  12    1.47    0.08
   2   1 -12    1.84    0.08
   1   1 -12    0.79    0.06
  -1  -1  12    0.84    0.04
  -1  -1  12    0.81    0.08
   0   1 -12    4.92    0.15
   0  -1  12    4.77    0.18
  -1   1 -12    1.30    0.08
   1  -1  12    1.31    0.11
   2  -1  12    2.63    0.12
   2  -1  12    2.42    0.11
   2  -1  12    2.37    0.14
   3  -1  12    2.92    0.13
   3  -1  12    2.64    0.12
   3  -1  12    2.78    0.15
   4  -1  12    0.18    0.05
   4  -1  12    0.16    0.06
   4  -1  12    0.11    0.05
   5  -1  12    0.19    0.05
   5  -1  12    0.21    0.05
   5  -1  12    0.25    0.05
   6  -1  12    0.84    0.08
   6  -1  12    0.83    0.07
   7  -1  12    0.59    0.06
   7  -1  12    0.55    0.05
   3   0 -12    8.15    0.21
   2   0 -12    0.10    0.03
   1   0 -12    9.44    0.24
  -1   0  12    9.15    0.27
  -1   0  12    9.00    0.21
   0   0 -12   18.13    0.42
   0   0  12   17.65    0.46
  -1   0 -12    1.44    0.09
   1   0  12    1.57    0.12
   2   0  12    0.82    0.10
   2   0  12    0.83    0.08
   3   0  12    7.18    0.22
   3   0  12    6.63    0.24
   3   0  12    6.50    0.20
   4   0  12    2.18    0.14
   4   0  12    2.04    0.11
   4   0  12    2.23    0.12
   5   0  12    0.96    0.08
   5   0  12    0.94    0.09
   5   0  12    0.83    0.09
   6   0  12    1.13    0.09
   6   0  12    1.15    0.09
   7   0  12    1.82    0.10
   7   0  12    1.96    0.10
   8   0  12    0.35    0.05
   8   0  12    0.46    0.05
   4  -1 -12    8.00    0.20
   3  -1 -12    1.48    0.07
   2  -1 -12    6.86    0.19
   1  -1 -12    0.51    0.05
  -1   1  12    0.58    0.08
   0  -1 -12    0.34    0.05
   0   1  12    0.38    0.07
  -1  -1 -12    3.20    0.12
   1   1  12    2.91    0.16
   2   1  12   10.71    0.33
   2   1  12   11.03    0.31
   3   1  12    7.39    0.25
   3   1  12    7.36    0.23
   3   1  12    6.77    0.22
   4   1  12   17.67    0.46
   4   1  12   16.95    0.43
   4   1  12   17.68    0.44
   5   1  12    0.92    0.08
   5   1  12    0.94    0.09
   5   1  12    0.84    0.08
   6   1  12    0.76    0.07
   6   1  12    0.74    0.08
   7   1  12    0.26    0.06
   7   1  12    0.25    0.05
   8   1  12    0.92    0.08
   8   1  12    1.18    0.08
   4  -2 -12    2.39    0.09
   3  -2 -12    0.59    0.05
   2  -2 -12    7.54    0.21
   1  -2 -12    0.93    0.07
  -1   2  12    0.99    0.10
   0  -2 -12    7.98    0.23
   0   2  12    8.28    0.27
   1   2  12   12.84    0.37
   2   2  12    5.67    0.22
   2   2  12    5.49    0.20
   3   2  12    7.78    0.24
   3   2  12    7.48    0.27
   4   2  12    5.20    0.18
   4   2  12    5.43    0.19
   4   2  12    5.57    0.22
   5   2  12    3.02    0.13
   5   2  12    3.11    0.16
   5   2  12    3.03    0.14
  -6  -2 -12   11.06    0.28
   6   2  12   11.17    0.30
   6   2  12   11.41    0.31
  -7  -2 -12    7.61    0.21
   7   2  12    7.51    0.22
   7   2  12    7.57    0.22
  -8  -2 -12    0.09    0.03
   8   2  12    0.13    0.04
   8   2  12    0.13    0.04
   9   2  12    0.74    0.08
   4  -3 -12    0.41    0.04
   3  -3 -12    0.50    0.05
   2  -3 -12    4.86    0.15
   1  -3 -12    1.00    0.07
  -1   3  12    1.01    0.10
   0  -3 -12   23.98    0.55
   0   3  12   24.10    0.60
  -1  -3 -12   10.41    0.27
   1   3  12   10.40    0.32
   2   3  12    3.60    0.18
   2   3  12    3.64    0.15
  -3  -3 -12    0.15    0.05
   3   3  12    0.26    0.07
   3   3  12    0.18    0.06
  -4  -3 -12    0.12    0.04
   4   3  12    0.21    0.06
   4   3  12    0.25    0.07
  -5  -3 -12    3.83    0.14
   5   3  12    3.64    0.15
   5   3  12    3.88    0.17
   5   3  12    4.08    0.16
  -6  -3 -12    4.76    0.16
   6   3  12    4.71    0.17
   6   3  12    4.73    0.17
  -7  -3 -12    0.43    0.05
   7   3  12    0.56    0.07
   7   3  12    0.49    0.06
  -8  -3 -12    0.12    0.04
   8   3  12    0.15    0.04
   8   3  12    0.25    0.05
  -9  -3 -12    0.68    0.06
   9   3  12    0.75    0.06
   3  -4 -12    0.40    0.06
   2  -4 -12    3.42    0.15
  -1   4  12    0.94    0.10
   0   4  12   27.86    0.68
  -1  -4 -12    1.49    0.09
   1   4  12    1.66    0.13
  -2  -4 -12    0.99    0.08
   2   4  12    1.10    0.12
  -3  -4 -12    0.32    0.05
   3   4  12    0.25    0.07
  -4  -4 -12    0.34    0.05
   4   4  12    0.40    0.08
  -5  -4 -12    4.22    0.15
   5   4  12    4.16    0.18
   5   4  12    4.25    0.15
  -6  -4 -12    1.88    0.10
   6   4  12    1.53    0.10
  -7  -4 -12    0.64    0.06
  -8  -4 -12    0.15    0.04
   8   4  12    0.16    0.05
  -9  -4 -12    3.64    0.12
   9   4  12    3.43    0.12
   1  -5 -12    1.18    0.08
  -1   5  12    1.15    0.11
   0  -5 -12    0.12    0.04
   0   5  12    0.22    0.07
  -1  -5 -12    0.60    0.06
   1   5  12    0.44    0.08
  -2  -5 -12    0.20    0.05
   2   5  12    0.03    0.06
  -3  -5 -12    2.72    0.12
   3   5  12    2.79    0.16
  -4  -5 -12    2.18    0.11
   4   5  12    2.35    0.15
  -5  -5 -12    0.20    0.05
   5   5  12    0.19    0.06
  -6  -5 -12    0.48    0.06
   6   5  12    0.46    0.06
  -7  -5 -12    1.55    0.09
   7   5  12    1.61    0.10
  -8  -5 -12    0.13    0.04
   8   5  12    0.11    0.04
  -9  -5 -12    0.17    0.04
   3  -6 -12    0.72    0.08
   2  -6 -12    1.62    0.09
   1  -6 -12   16.48    0.40
  -1   6  12   16.27    0.43
   0  -6 -12   31.50    0.71
   0   6  12   31.54    0.75
  -1  -6 -12   32.03    0.73
   1   6  12   32.13    0.77
  -2  -6 -12    7.21    0.21
   2   6  12    7.37    0.26
  -3  -6 -12    0.16    0.05
   3   6  12    0.15    0.07
  -4  -6 -12    0.16    0.05
   4   6  12    0.12    0.06
  -5  -6 -12    1.28    0.09
  -6  -6 -12    4.80    0.16
  -7  -6 -12    0.45    0.06
   7   6  12    0.43    0.06
  -8  -6 -12    0.37    0.05
   8   6  12    0.31    0.05
   4  -7 -12    5.06    0.15
   3  -7 -12    4.61    0.15
   2  -7 -12   15.16    0.37
   1  -7 -12    7.17    0.21
  -1   7  12    7.44    0.24
   0  -7 -12    0.24    0.05
   0   7  12    0.27    0.07
  -1  -7 -12    5.58    0.18
   1   7  12    5.67    0.22
  -2  -7 -12    0.32    0.06
   2   7  12    0.36    0.08
  -3  -7 -12    0.72    0.07
   3   7  12    0.61    0.09
  -4  -7 -12    0.54    0.06
   4   7  12    0.69    0.09
  -5  -7 -12    1.78    0.10
   5   7  12    1.75    0.12
  -6  -7 -12   13.51    0.34
  -7  -7 -12    6.50    0.19
  -8  -7 -12    1.81    0.08
   8   7  12    1.76    0.08
   4  -8 -12    5.49    0.15
   3  -8 -12    2.19    0.10
   2  -8 -12    7.68    0.22
   1  -8 -12    0.93    0.08
  -1   8  12    0.76    0.08
   0  -8 -12    0.24    0.05
   0   8  12    0.15    0.06
  -1  -8 -12    2.03    0.11
   1   8  12    2.01    0.14
  -2  -8 -12    0.19    0.05
   2   8  12    0.13    0.07
  -3  -8 -12    2.16    0.11
   3   8  12    2.11    0.14
  -4  -8 -12    2.12    0.11
   4   8  12    2.08    0.13
  -5  -8 -12    3.69    0.14
   5   8  12    3.71    0.16
  -6  -8 -12    0.60    0.06
  -7  -8 -12    0.47    0.05
   4  -9 -12    0.36    0.05
   3  -9 -12    3.66    0.12
   2  -9 -12    0.41    0.05
   1  -9 -12    0.95    0.08
  -1   9  12    0.87    0.09
   0  -9 -12    1.09    0.08
   0   9  12    1.07    0.10
  -1  -9 -12    0.25    0.05
   1   9  12    0.19    0.06
  -2  -9 -12    4.23    0.15
   2   9  12    4.23    0.18
  -3  -9 -12    8.39    0.23
   3   9  12    8.11    0.26
  -4  -9 -12    1.98    0.10
   4   9  12    1.76    0.12
  -5  -9 -12    2.06    0.09
   5   9  12    2.06    0.12
  -6  -9 -12    1.56    0.08
   3 -10 -12    1.64    0.08
   2 -10 -12    0.37    0.05
   1 -10 -12    1.50    0.08
  -1  10  12    1.65    0.10
   0 -10 -12    8.88    0.24
   0  10  12    8.86    0.26
  -1 -10 -12    8.43    0.23
   1  10  12    8.47    0.26
  -2 -10 -12   19.37    0.46
   2  10  12   19.44    0.49
  -3 -10 -12    9.87    0.26
   3  10  12   10.24    0.29
  -4 -10 -12    0.37    0.05
   4  10  12    0.41    0.06
  -5 -10 -12    1.92    0.08
   5  10  12    2.05    0.10
   2 -11 -12    1.81    0.08
   1 -11 -12    0.98    0.06
  -1  11  12    1.11    0.08
   0 -11 -12    0.09    0.03
   0  11  12    0.18    0.05
  -1 -11 -12    2.16    0.09
   1  11  12    2.08    0.11
  -2 -11 -12    3.56    0.12
   2  11  12    3.70    0.15
  -3 -11 -12    2.25    0.09
   3  11  12    2.38    0.12
   4  11  12    0.40    0.06
   5  11  12    0.26    0.04
   0  12  12    2.14    0.10
   1  12  12    8.06    0.22
   2  12  12    2.86    0.12
   3  12  12    0.11    0.04
   0   1 -13    1.59    0.06
  -1   1 -13    2.74    0.09
   1  -1  13    2.73    0.12
  -2   1 -13    1.32    0.07
   2  -1  13    1.26    0.09
  -3   1 -13    1.03    0.06
   3  -1  13    0.90    0.08
   4  -1  13    1.18    0.07
   4  -1  13    1.01    0.08
   5  -1  13    1.25    0.07
   1   0 -13    4.83    0.13
   0   0 -13    4.05    0.12
   0   0  13    3.87    0.14
   0   0  13    3.68    0.09
  -1   0 -13    1.00    0.06
   1   0  13    1.00    0.09
  -2   0 -13    0.99    0.06
   2   0  13    1.03    0.09
   3   0  13    0.55    0.06
   3   0  13    0.45    0.07
   4   0  13    1.87    0.11
   4   0  13    1.88    0.10
   4   0  13    1.76    0.09
   5   0  13    1.59    0.09
   5   0  13    1.40    0.09
   5   0  13    1.45    0.08
   6   0  13    1.54    0.08
   2  -1 -13    2.95    0.10
   1  -1 -13    9.02    0.22
  -1   1  13    8.66    0.24
   0  -1 -13    1.43    0.07
   0   1  13    1.32    0.10
  -1  -1 -13    0.65    0.06
   1   1  13    0.58    0.07
  -2  -1 -13    0.41    0.05
   2   1  13    0.42    0.07
   3   1  13    0.68    0.08
   3   1  13    0.63    0.07
   4   1  13    3.34    0.14
   4   1  13    3.46    0.17
   4   1  13    3.48    0.15
   5   1  13    4.82    0.16
   5   1  13    4.98    0.18
   5   1  13    5.57    0.17
   6   1  13    0.35    0.05
   6   1  13    0.29    0.05
   7   1  13    0.70    0.06
   3  -2 -13    0.34    0.03
   2  -2 -13    0.77    0.05
   1  -2 -13    2.53    0.09
  -1   2  13    2.55    0.12
   0  -2 -13    7.91    0.21
   0   2  13    7.79    0.24
  -1  -2 -13    3.03    0.11
   1   2  13    3.21    0.15
  -2  -2 -13   20.76    0.48
   2   2  13   20.90    0.53
   3   2  13    0.35    0.06
   3   2  13    0.22    0.07
   4   2  13    1.19    0.11
   4   2  13    1.11    0.09
   5   2  13    0.86    0.08
   5   2  13    0.74    0.08
   5   2  13    0.77    0.06
   6   2  13    2.99    0.12
   6   2  13    2.83    0.11
   7   2  13    1.44    0.08
   7   2  13    1.46    0.08
   3  -3 -13    0.25    0.03
   2  -3 -13    0.47    0.04
   1  -3 -13    3.90    0.12
  -1   3  13    3.79    0.15
   0  -3 -13    6.64    0.19
   0   3  13    6.85    0.22
  -1  -3 -13   20.47    0.48
   1   3  13   20.96    0.52
  -2  -3 -13    3.03    0.11
   2   3  13    3.11    0.16
   3   3  13    0.43    0.06
   3   3  13    0.40    0.08
   4   3  13    6.33    0.22
   4   3  13    6.44    0.20
  -5  -3 -13    8.71    0.27
   5   3  13    8.81    0.26
   5   3  13    8.98    0.25
  -6  -3 -13    0.64    0.06
   6   3  13    0.80    0.07
   6   3  13    0.71    0.07
  -7  -3 -13    1.07    0.06
   7   3  13    0.96    0.07
   7   3  13    0.99    0.07
  -1   4  13    1.51    0.10
   0   4  13    0.48    0.07
   1   4  13    2.25    0.14
   2   4  13    2.67    0.15
  -3  -4 -13    4.95    0.15
   3   4  13    5.23    0.20
  -4  -4 -13    2.53    0.10
   4   4  13    2.61    0.14
  -5  -4 -13    4.32    0.14
   5   4  13    4.35    0.17
  -6  -4 -13    1.77    0.09
   6   4  13    1.76    0.09
  -7  -4 -13    3.01    0.11
   7   4  13    3.02    0.11
  -1   5  13    0.32    0.06
   0   5  13    0.34    0.07
  -1  -5 -13    0.25    0.04
   1   5  13    0.29    0.07
  -2  -5 -13    0.12    0.04
   2   5  13    0.10    0.06
  -3  -5 -13    0.46    0.05
   3   5  13    0.47    0.08
  -4  -5 -13    0.12    0.04
   4   5  13    0.20    0.06
  -5  -5 -13    0.69    0.06
   5   5  13    0.59    0.07
  -6  -5 -13    0.28    0.05
  -7  -5 -13    2.38    0.10
   7   5  13    2.27    0.09
  -8  -5 -13    2.87    0.12
   1  -6 -13    0.73    0.06
  -1   6  13    0.75    0.08
   0  -6 -13    3.39    0.12
   0   6  13    3.73    0.16
  -1  -6 -13    8.43    0.23
   1   6  13    8.54    0.27
  -2  -6 -13    9.14    0.25
   2   6  13    9.19    0.28
  -3  -6 -13    1.15    0.08
   3   6  13    1.20    0.11
  -4  -6 -13    0.74    0.07
   4   6  13    0.87    0.10
  -5  -6 -13    0.49    0.06
   5   6  13    0.49    0.07
  -6  -6 -13    0.39    0.05
  -7  -6 -13    2.87    0.11
   2  -7 -13    5.47    0.16
   1  -7 -13   17.77    0.41
  -1   7  13   17.45    0.43
   0  -7 -13    3.02    0.11
   0   7  13    2.85    0.14
  -1  -7 -13    0.64    0.06
   1   7  13    0.53    0.08
  -2  -7 -13    1.30    0.08
   2   7  13    1.26    0.11
  -3  -7 -13    1.23    0.08
   3   7  13    1.24    0.11
  -4  -7 -13    1.24    0.08
   4   7  13    1.30    0.11
  -5  -7 -13    2.25    0.10
   5   7  13    2.07    0.12
  -6  -7 -13    0.25    0.04
  -7  -7 -13    0.08    0.03
   2  -8 -13    2.08    0.09
   1  -8 -13    9.54    0.24
  -1   8  13    9.31    0.26
   0  -8 -13    0.34    0.05
   0   8  13    0.27    0.06
  -1  -8 -13    1.38    0.08
   1   8  13    1.35    0.11
  -2  -8 -13    3.32    0.13
   2   8  13    3.42    0.16
  -3  -8 -13    2.87    0.12
   3   8  13    2.83    0.14
  -4  -8 -13    4.32    0.14
   4   8  13    4.28    0.17
  -5  -8 -13    6.61    0.19
   5   8  13    6.51    0.20
  -6  -8 -13    0.88    0.06
   2  -9 -13    0.25    0.04
   1  -9 -13    0.27    0.04
  -1   9  13    0.31    0.05
   0  -9 -13    0.18    0.04
   0   9  13    0.25    0.06
  -1  -9 -13    0.62    0.06
   1   9  13    0.61    0.07
  -2  -9 -13    2.47    0.11
   2   9  13    2.59    0.13
  -3  -9 -13    3.44    0.12
   3   9  13    3.29    0.14
  -4  -9 -13    0.13    0.04
   4   9  13    0.16    0.05
  -5  -9 -13    0.13    0.04
   5   9  13    0.12    0.04
  -6  -9 -13    4.57    0.15
   1 -10 -13    0.64    0.05
  -1  10  13    0.61    0.06
   0 -10 -13    4.45    0.14
   0  10  13    4.44    0.15
  -1 -10 -13    3.20    0.11
   1  10  13    3.20    0.13
  -2 -10 -13    1.61    0.08
   2  10  13    1.62    0.10
  -3 -10 -13    5.49    0.16
   3  10  13    6.04    0.19
  -4 -10 -13    0.23    0.04
   4  10  13    0.19    0.05
   5  10  13    0.26    0.04
   0  11  13   14.94    0.36
   1  11  13    4.40    0.15
   2  11  13    1.30    0.09
   3  11  13    0.19    0.04
   4  11  13    0.35    0.05
  -1  -1 -14    1.06    0.05
   1   1  14    1.01    0.07
  -2  -1 -14    0.16    0.03
   2   1  14    0.21    0.05
  -3  -1 -14    0.46    0.04
   3   1  14    0.40    0.06
  -4  -1 -14    0.13    0.03
   4   1  14    0.13    0.04
   0  -2 -14    2.04    0.07
   0   2  14    2.09    0.10
  -1  -2 -14    3.49    0.11
   1   2  14    3.63    0.14
  -2  -2 -14    2.53    0.09
   2   2  14    2.73    0.12
  -3  -2 -14    0.87    0.06
   3   2  14    0.92    0.08
  -4  -2 -14    0.94    0.06
   4   2  14    0.84    0.08
   5   2  14    0.67    0.07
   5   2  14    0.60    0.06
   0  -3 -14   11.45    0.28
   0   3  14   12.83    0.31
  -1  -3 -14    5.04    0.14
   1   3  14    5.35    0.18
  -2  -3 -14    1.21    0.06
   2   3  14    1.20    0.09
  -3  -3 -14    1.60    0.07
   3   3  14    1.61    0.10
  -4  -3 -14    0.09    0.03
   4   3  14    0.08    0.05
   5   3  14    1.47    0.08
   5   3  14    1.65    0.09
  -1   4  14    3.38    0.13
   0   4  14    4.51    0.16
   1   4  14    4.13    0.16
   2   4  14    2.64    0.13
   3   4  14    0.51    0.07
   4   4  14    2.41    0.12
   5   4  14    0.94    0.08
  -1   5  14    2.96    0.11
   0   5  14    0.08    0.04
   1   5  14   14.82    0.38
   2   5  14    6.93    0.22
  -3  -5 -14    4.73    0.14
   3   5  14    4.92    0.18
  -4  -5 -14    0.11    0.03
   4   5  14    0.13    0.05
  -5  -5 -14    0.17    0.04
   5   5  14    0.18    0.05
  -6  -5 -14    0.95    0.07
  -1   6  14    0.70    0.06
   0   6  14    1.05    0.09
  -1  -6 -14    0.29    0.04
   1   6  14    0.36    0.06
  -2  -6 -14    0.42    0.05
   2   6  14    0.47    0.07
  -3  -6 -14    1.30    0.07
   3   6  14    1.31    0.10
  -4  -6 -14    1.57    0.08
   4   6  14    1.49    0.10
  -5  -6 -14    4.33    0.13
   5   6  14    4.03    0.15
  -6  -6 -14    2.53    0.09
  -1   7  14    3.05    0.11
   0  -7 -14    2.07    0.08
   0   7  14    2.29    0.11
  -1  -7 -14    0.43    0.04
   1   7  14    0.53    0.06
  -2  -7 -14    0.07    0.03
   2   7  14    0.10    0.05
   3   7  14    0.35    0.06
  -4  -7 -14    1.32    0.07
   4   7  14    1.10    0.09
  -5  -7 -14    1.15    0.07
   5   7  14    1.20    0.08
   0  -8 -14    0.20    0.03
   0   8  14    0.18    0.04
  -1  -8 -14    1.84    0.08
   1   8  14    1.77    0.10
  -2  -8 -14    2.20    0.09
   2   8  14    2.35    0.12
  -3  -8 -14    5.06    0.15
   3   8  14    5.07    0.17
  -4  -8 -14    0.19    0.04
   4   8  14    0.21    0.05
  -5  -8 -14    0.45    0.05
   5   8  14    0.45    0.05
   0   9  14    0.32    0.05
  -1  -9 -14    1.01    0.06
   1   9  14    1.17    0.08
  -2  -9 -14    4.86    0.14
   2   9  14    4.97    0.17
  -3  -9 -14    4.42    0.13
   3   9  14    4.70    0.16
  -4  -9 -14    0.22    0.04
   4   9  14    0.15    0.04
   1  10  14    2.31    0.10
   2  10  14    1.98    0.09
   3  10  14    0.23    0.04
   2   4  15    0.56    0.06
   3   4  15    0.99    0.07
   2   5  15    5.07    0.16
   3   5  15    2.87    0.11
   1   6  15    2.48    0.13
   2   6  15    0.26    0.05
   3   6  15    2.32    0.10
   2   7  15    2.34    0.10
   3   7  15    6.27    0.18
   0   0   0    0.00    0.00
;
_shelx_hkl_checksum              901
_shelx_res_file
;
    ponebar_sq.res created by SHELXL-2014/7
TITL PONEBAR in P-1
CELL 1.54178  10.52110  11.91230  12.63550  66.1342  78.3107  89.5778
ZERR    1.00   0.00010   0.00010   0.00010   0.0005   0.0005   0.0006
LATT 1
SFAC C  H  N  Cl Mn
UNIT 54  50  6  2  1
L.S. 25 0   63
OMIT -2 3 2
BOND
EQIV $1 -X,-Y,-Z
MPLA 13 C5 C6 C7 C8 C9 N2 C10 C1_$1 C2_$1 C3_$1 C4_$1 C5_$1 N1_$1
MPLA 13 C5 C4 C3 C2 C1 N1 C10_$1 C9_$1 C8_$1 C7_$1 C6_$1 C5_$1 N2_$1
MPLA 13 C10_$1 C1 C2 C3 C4 N1 C5 C6 C7 C8 C9 C10 N2
MPLA 13 C10 C1_$1 C2_$1 C3_$1 C4_$1 N1_$1 C5_$1 C6_$1 C7_$1 C8_$1 C9_$1 =
 C10_$1 N2_$1
MPLA 4 N1 N2 N1_$1 N2_$1
MPLA 4 N1 N2 N1_$1 N2_$1 MN1
MPLA 3 MN1 C17_$1 C10_$1
MPLA 3 MN1 C17 C10
MPLA 3 MN1 C5_$1 C11_$1
MPLA 3 MN1 C5 C11
MPLA 5 N1 N2 N1_$1 N2_$1 MN1
MPLA 6 C17 C18 C19 C20 C21 C22
MPLA 5 N1 N2 N1_$1 N2_$1 MN1
MPLA 6 C17_$1 C18_$1 C19_$1 C20_$1 C21_$1 C22_$1
MPLA 5 N1 N2 N1_$1 N2_$1 MN1
MPLA 6 C11 C12 C13 C14 C15 C16
MPLA 5 N1 N2 N1_$1 N2_$1 MN1
MPLA 6 C11_$1 C12_$1 C13_$1 C14_$1 C15_$1 C16_$1
RTAB NMNN N3 MN1 N3_$1
ACTA
FMAP 2
PLAN 15
SIZE 0.24 0.257 0.475
ABIN
TEMP -173.150
WGHT    0.054800    1.637500
FVAR       0.16369
MOLE 1
MN1   5    0.000000    0.000000    0.000000    10.50000    0.01923    0.01132 =
         0.01209   -0.00305   -0.00382    0.00178
N1    3    0.012410   -0.122012    0.163648    11.00000    0.02040    0.01356 =
         0.01510   -0.00411   -0.00422    0.00163
N2    3    0.088987    0.133301    0.025700    11.00000    0.02067    0.01456 =
         0.01313   -0.00337   -0.00263    0.00288
C5    1    0.128787    0.012435    0.225813    11.00000    0.01733    0.01934 =
         0.01596   -0.00681   -0.00269    0.00360
N3    3   -0.208677    0.042473    0.081137    11.00000    0.01992    0.01783 =
         0.01941   -0.00761   -0.00310    0.00265
AFIX  13
H4    2   -0.252306   -0.038138    0.143324    11.00000   -1.20000
AFIX   0
C4    1    0.068321   -0.099663    0.243545    11.00000    0.01851    0.01894 =
         0.01498   -0.00550   -0.00334    0.00366
C9    1    0.117233    0.255306   -0.053147    11.00000    0.01941    0.01522 =
         0.01653   -0.00535   -0.00045    0.00228
C1    1   -0.026077   -0.246357    0.214449    11.00000    0.02037    0.01542 =
         0.01725   -0.00429   -0.00297    0.00285
C2    1    0.005179   -0.301195    0.329309    11.00000    0.02841    0.01598 =
         0.01795   -0.00043   -0.00676    0.00264
AFIX  43
H2    2   -0.010964   -0.385641    0.382642    11.00000   -1.20000
AFIX   0
C7    1    0.203504    0.234831    0.101809    11.00000    0.02064    0.02066 =
         0.01912   -0.00882   -0.00491   -0.00004
AFIX  43
H6    2    0.247971    0.250036    0.153665    11.00000   -1.20000
AFIX   0
C3    1    0.061258   -0.211866    0.347863    11.00000    0.02666    0.02200 =
         0.01593   -0.00455   -0.00815    0.00369
AFIX  43
H3    2    0.090739   -0.221094    0.416976    11.00000   -1.20000
AFIX   0
C6    1    0.139107    0.119923    0.122813    11.00000    0.01683    0.02003 =
         0.01691   -0.00803   -0.00339    0.00487
C8    1    0.189420    0.317724   -0.005355    11.00000    0.02332    0.01695 =
         0.01961   -0.00653   -0.00136   -0.00195
AFIX  43
H7    2    0.221553    0.402031   -0.042251    11.00000   -1.20000
AFIX   0
C11   1    0.188870    0.017701    0.321613    11.00000    0.02096    0.01700 =
         0.01725   -0.00068   -0.00525   -0.00394
C12   1    0.302372   -0.039477    0.344298    11.00000    0.01902    0.02937 =
         0.02288   -0.00147   -0.00196   -0.00016
AFIX  43
H12   2    0.340906   -0.084389    0.300491    11.00000   -1.20000
AFIX   0
C16   1    0.133644    0.081699    0.387989    11.00000    0.02917    0.02115 =
         0.02296   -0.00726   -0.00913    0.00042
AFIX  43
H16   2    0.055708    0.120226    0.373815    11.00000   -1.20000
AFIX   0
C13   1    0.359303   -0.030634    0.431472    11.00000    0.01921    0.04196 =
         0.03253    0.00516   -0.01186   -0.00723
AFIX  43
H13   2    0.436592   -0.069845    0.446928    11.00000   -1.20000
AFIX   0
C14   1    0.304356    0.034539    0.495413    11.00000    0.03890    0.04161 =
         0.02701   -0.00462   -0.01430   -0.01654
AFIX  43
H14   2    0.344585    0.041241    0.553709    11.00000   -1.20000
AFIX   0
C15   1    0.190912    0.090037    0.474720    11.00000    0.04414    0.02783 =
         0.02505   -0.00954   -0.01092   -0.00756
AFIX  43
H15   2    0.152117    0.133787    0.519627    11.00000   -1.20000
AFIX   0
C10   1    0.084081    0.310421   -0.163344    11.00000    0.01914    0.01557 =
         0.01714   -0.00542   -0.00038    0.00185
C27   1   -0.205640    0.124920    0.141946    11.00000    0.02324    0.03548 =
         0.03589   -0.02476   -0.00897    0.00741
AFIX  23
H26A  2   -0.160359    0.205401    0.083912    11.00000   -1.20000
H26B  2   -0.154656    0.089215    0.203970    11.00000   -1.20000
AFIX   0
C23   1   -0.293630    0.088431   -0.005667    11.00000    0.02314    0.03644 =
         0.02643   -0.01645   -0.00824    0.00592
AFIX  23
H22A  2   -0.300495    0.028171   -0.040319    11.00000   -1.20000
H22B  2   -0.251947    0.166827   -0.070852    11.00000   -1.20000
AFIX   0
C25   1   -0.425035    0.194954    0.108885    11.00000    0.02496    0.04094 =
         0.04931   -0.02823   -0.01041    0.01342
AFIX  23
H24A  2   -0.388775    0.278269    0.049567    11.00000   -1.20000
H24B  2   -0.514177    0.201485    0.148922    11.00000   -1.20000
AFIX   0
C26   1   -0.340927    0.145936    0.199195    11.00000    0.02525    0.05132 =
         0.04261   -0.03627   -0.00902    0.01141
AFIX  23
H25A  2   -0.383089    0.067308    0.263683    11.00000   -1.20000
H25B  2   -0.332552    0.205420    0.234427    11.00000   -1.20000
AFIX   0
C24   1   -0.430273    0.109792    0.047218    11.00000    0.02445    0.04187 =
         0.03653   -0.02182   -0.00983    0.00790
AFIX  23
H23A  2   -0.478862    0.146421   -0.016551    11.00000   -1.20000
H23B  2   -0.477211    0.029917    0.104862    11.00000   -1.20000
AFIX   0
C18   1    0.044266    0.523932   -0.181471    11.00000    0.02535    0.01920 =
         0.02029   -0.00601   -0.00237    0.00282
AFIX  43
H18   2   -0.017591    0.489141   -0.108155    11.00000   -1.20000
AFIX   0
C17   1    0.111020    0.447012   -0.229032    11.00000    0.02304    0.01662 =
         0.01626   -0.00435   -0.00686    0.00250
C22   1    0.201319    0.499175   -0.336326    11.00000    0.02508    0.01841 =
         0.01905   -0.00602   -0.00540    0.00322
AFIX  43
H22   2    0.247151    0.447688   -0.369245    11.00000   -1.20000
AFIX   0
C20   1    0.158061    0.702453   -0.348428    11.00000    0.02837    0.01367 =
         0.02743   -0.00328   -0.00916   -0.00074
AFIX  43
H20   2    0.173764    0.789430   -0.389327    11.00000   -1.20000
AFIX   0
C21   1    0.224798    0.626570   -0.395674    11.00000    0.02447    0.02006 =
         0.01938   -0.00180   -0.00430   -0.00056
AFIX  43
H21   2    0.286805    0.661732   -0.468870    11.00000   -1.20000
AFIX   0
C19   1    0.068180    0.650583   -0.241027    11.00000    0.03012    0.01929 =
         0.02824   -0.01165   -0.00665    0.00495
AFIX  43
H19   2    0.022805    0.702347   -0.208206    11.00000   -1.20000
AFIX   0
CL1   4    0.627786    0.799403    0.315540    11.00000    0.09192    0.02784 =
         0.06884   -0.00958    0.03788   -0.00199
HKLF 4
REM  PONEBAR in P-1
REM R1 =  0.0449 for    4719 Fo > 4sig(Fo)  and  0.0451 for all    4750 data
REM    286 parameters refined using      0 restraints
END
WGHT      0.0548      1.6371
REM Highest difference peak  0.698,  deepest hole -0.997,  1-sigma level  0.056
Q1    1   0.5961  0.7834  0.2408  11.00000  0.05    0.70
Q2    1  -0.4410  0.0339  0.1135  11.00000  0.05    0.32
Q3    1   0.4891  0.5548 -0.5325  11.00000  0.05    0.30
Q4    1   0.3686  0.3844 -0.5840  11.00000  0.05    0.28
Q5    1  -0.4842  0.4373  0.2272  11.00000  0.05    0.27
Q6    1  -0.5436  0.2069 -0.1470  11.00000  0.05    0.27
Q7    1   0.7147  0.8020  0.3328  11.00000  0.05    0.26
Q8    1   0.4447  0.5781  0.3179  11.00000  0.05    0.24
Q9    1  -0.4317  0.1404  0.1011  11.00000  0.05    0.23
Q10   1   0.2579  0.4459 -0.6362  11.00000  0.05    0.22
Q11   1   0.0939  0.3821 -0.2019  11.00000  0.05    0.20
Q12   1   0.6302  0.9015  0.3185  11.00000  0.05    0.20
Q13   1  -0.5444  0.3351  0.3472  11.00000  0.05    0.19
Q14   1  -0.1785  0.1815  0.0754  11.00000  0.05    0.19
Q15   1  -0.2999  0.0169  0.0400  11.00000  0.05    0.19
;
_shelx_res_checksum              14310
_shelx_fab_file
;
    1    0    0    -65.65      0.00
    2    0    0     12.22      0.00
    3    0    0     -9.87      0.00
    4    0    0     16.87      0.00
    5    0    0    -11.63      0.00
    6    0    0      3.82      0.00
    7    0    0     -2.02      0.00
    8    0    0      3.35      0.00
    9    0    0     -2.48      0.00
   10    0    0     -0.26      0.00
   11    0    0      0.54      0.00
   12    0    0      0.43      0.00
  -12    1    0     -0.11      0.00
  -11    1    0     -0.37      0.00
  -10    1    0     -1.79      0.00
   -9    1    0      4.75      0.00
   -8    1    0     -3.89      0.00
   -7    1    0      0.45      0.00
   -6    1    0     -1.53      0.00
   -5    1    0     10.96      0.00
   -4    1    0    -17.29      0.00
   -3    1    0     10.12      0.00
   -2    1    0    -12.24      0.00
   -1    1    0     59.13      0.00
    0    1    0    -89.88      0.00
    1    1    0     45.44      0.00
    2    1    0     -5.27      0.00
    3    1    0      6.40      0.00
    4    1    0    -13.27      0.00
    5    1    0     10.20      0.00
    6    1    0     -4.96      0.00
    7    1    0      3.33      0.00
    8    1    0     -2.88      0.00
    9    1    0      0.84      0.00
   10    1    0      1.01      0.00
   11    1    0      0.50      0.00
   12    1    0     -0.95      0.00
  -12    2    0      0.06      0.00
  -11    2    0     -0.34      0.00
  -10    2    0      3.70      0.00
   -9    2    0     -6.17      0.00
   -8    2    0      3.27      0.00
   -7    2    0      2.09      0.00
   -6    2    0     -1.83      0.00
   -5    2    0     -7.53      0.00
   -4    2    0     12.37      0.00
   -3    2    0     -5.51      0.00
   -2    2    0      6.27      0.00
   -1    2    0    -34.11      0.00
    0    2    0     45.38      0.00
    1    2    0    -16.44      0.00
    2    2    0     -0.70      0.00
    3    2    0     -5.31      0.00
    4    2    0     10.81      0.00
    5    2    0     -8.30      0.00
    6    2    0      5.28      0.00
    7    2    0     -4.46      0.00
    8    2    0      2.79      0.00
    9    2    0     -0.24      0.00
   10    2    0     -0.44      0.00
   11    2    0     -1.99      0.00
  -12    3    0     -0.17      0.00
  -11    3    0      0.67      0.00
  -10    3    0     -4.11      0.00
   -9    3    0      5.59      0.00
   -8    3    0     -0.93      0.00
   -7    3    0     -5.29      0.00
   -6    3    0      5.02      0.00
   -5    3    0      3.10      0.00
   -4    3    0     -5.54      0.00
   -3    3    0      0.02      0.00
   -2    3    0      0.07      0.00
   -1    3    0     10.30      0.00
    0    3    0    -10.37      0.00
    1    3    0     -0.26      0.00
    2    3    0     -0.67      0.00
    3    3    0      8.29      0.00
    4    3    0     -9.73      0.00
    5    3    0      5.92      0.00
    6    3    0     -4.72      0.00
    7    3    0      4.95      0.00
    8    3    0     -2.87      0.00
    9    3    0      0.30      0.00
   10    3    0     -0.44      0.00
   11    3    0      2.63      0.00
  -12    4    0      0.15      0.00
  -11    4    0     -0.22      0.00
  -10    4    0      2.89      0.00
   -9    4    0     -3.40      0.00
   -8    4    0     -1.67      0.00
   -7    4    0      7.05      0.00
   -6    4    0     -6.29      0.00
   -5    4    0      0.28      0.00
   -4    4    0      0.82      0.00
   -3    4    0      2.67      0.00
   -2    4    0     -3.67      0.00
   -1    4    0      3.20      0.00
    0    4    0     -5.48      0.00
    1    4    0      3.96      0.00
    2    4    0      5.44      0.00
    3    4    0    -10.98      0.00
    4    4    0      7.37      0.00
    5    4    0     -2.54      0.00
    6    4    0      3.33      0.00
    7    4    0     -4.66      0.00
    8    4    0      2.79      0.00
    9    4    0     -0.34      0.00
   10    4    0      0.83      0.00
   11    4    0     -2.08      0.00
  -11    5    0     -0.71      0.00
  -10    5    0     -0.72      0.00
   -9    5    0      0.79      0.00
   -8    5    0      2.91      0.00
   -7    5    0     -5.98      0.00
   -6    5    0      5.04      0.00
   -5    5    0     -1.84      0.00
   -4    5    0      1.44      0.00
   -3    5    0     -3.06      0.00
   -2    5    0      4.41      0.00
   -1    5    0     -7.56      0.00
    0    5    0      9.63      0.00
    1    5    0     -3.74      0.00
    2    5    0     -7.36      0.00
    3    5    0      9.66      0.00
    4    5    0     -3.06      0.00
    5    5    0     -1.22      0.00
    6    5    0     -1.43      0.00
    7    5    0      3.70      0.00
    8    5    0     -2.08      0.00
    9    5    0     -0.26      0.00
   10    5    0     -0.52      0.00
  -11    6    0      1.18      0.00
  -10    6    0     -1.06      0.00
   -9    6    0      1.10      0.00
   -8    6    0     -2.69      0.00
   -7    6    0      3.40      0.00
   -6    6    0     -2.74      0.00
   -5    6    0      2.06      0.00
   -4    6    0     -2.51      0.00
   -3    6    0      3.07      0.00
   -2    6    0     -3.61      0.00
   -1    6    0      6.91      0.00
    0    6    0     -8.96      0.00
    1    6    0      3.05      0.00
    2    6    0      6.10      0.00
    3    6    0     -5.60      0.00
    4    6    0     -1.32      0.00
    5    6    0      4.31      0.00
    6    6    0     -0.71      0.00
    7    6    0     -2.20      0.00
    8    6    0      0.78      0.00
    9    6    0      1.15      0.00
   10    6    0      0.00      0.00
  -10    7    0      1.41      0.00
   -9    7    0     -1.51      0.00
   -8    7    0      1.69      0.00
   -7    7    0     -1.25      0.00
   -6    7    0      1.36      0.00
   -5    7    0     -2.13      0.00
   -4    7    0      3.15      0.00
   -3    7    0     -3.20      0.00
   -2    7    0      2.78      0.00
   -1    7    0     -5.17      0.00
    0    7    0      6.94      0.00
    1    7    0     -2.15      0.00
    2    7    0     -3.63      0.00
    3    7    0      1.41      0.00
    4    7    0      4.18      0.00
    5    7    0     -5.85      0.00
    6    7    0      2.29      0.00
    7    7    0      0.75      0.00
    8    7    0      0.21      0.00
    9    7    0     -1.30      0.00
  -10    8    0     -0.75      0.00
   -9    8    0      0.87      0.00
   -8    8    0     -0.53      0.00
   -7    8    0     -0.06      0.00
   -6    8    0     -0.99      0.00
   -5    8    0      2.47      0.00
   -4    8    0     -3.48      0.00
   -3    8    0      3.22      0.00
   -2    8    0     -2.50      0.00
   -1    8    0      4.08      0.00
    0    8    0     -5.27      0.00
    1    8    0      1.88      0.00
    2    8    0      0.76      0.00
    3    8    0      2.09      0.00
    4    8    0     -5.58      0.00
    5    8    0      5.53      0.00
    6    8    0     -2.41      0.00
    7    8    0     -0.04      0.00
    8    8    0     -0.30      0.00
   -8    9    0     -0.15      0.00
   -7    9    0      0.63      0.00
   -6    9    0      0.74      0.00
   -5    9    0     -2.26      0.00
   -3    9    0     -2.92      0.00
   -2    9    0      2.31      0.00
   -1    9    0     -3.29      0.00
    0    9    0      4.01      0.00
    1    9    0     -1.95      0.00
    2    9    0      1.46      0.00
    3    9    0     -4.35      0.00
    4    9    0      5.72      0.00
    5    9    0     -3.85      0.00
    6    9    0      1.35      0.00
    7    9    0     -0.02      0.00
   -3   10    0      1.88      0.00
   -2   10    0     -1.27      0.00
   -1   10    0      2.03      0.00
    0   10    0     -2.54      0.00
    1   10    0      1.35      0.00
    2   10    0     -1.81      0.00
    3   10    0      4.17      0.00
    4   10    0     -4.14      0.00
    5   10    0      1.79      0.00
    6   10    0     -0.34      0.00
   -3   11    0     -0.53      0.00
   -2   11    0     -0.37      0.00
   -1   11    0     -0.40      0.00
    0   11    0      0.82      0.00
    1   11    0     -0.21      0.00
    2   11    0      0.74      0.00
    3   11    0     -2.05      0.00
    4   11    0      1.68      0.00
    5   11    0     -0.41      0.00
   -3   12    0      0.01      0.00
   -2   12    0      0.90      0.00
   -1   12    0     -0.36      0.00
    0   12    0      0.14      0.00
    1   12    0     -0.29      0.00
    2   12    0      0.00      0.00
    3   12    0      0.41      0.00
   -1   13    0     -0.11      0.00
    0   13    0      0.11      0.00
   -3  -12    1     -0.44      0.00
   -2  -12    1      0.66      0.00
   -1  -12    1     -1.12      0.00
    0  -12    1      1.31      0.00
    1  -12    1     -0.94      0.00
    2  -12    1      1.06      0.00
    3  -12    1     -1.43      0.00
   -4  -11    1     -1.03      0.00
   -3  -11    1      0.82      0.00
   -2  -11    1     -0.71      0.00
   -1  -11    1      1.42      0.00
    0  -11    1     -1.59      0.00
    1  -11    1      0.73      0.00
    2  -11    1     -1.17      0.00
    3  -11    1      2.09      0.00
   -6  -10    1      0.30      0.00
   -5  -10    1     -1.43      0.00
   -4  -10    1      1.82      0.00
   -3  -10    1     -0.51      0.00
   -2  -10    1      0.03      0.00
   -1  -10    1     -1.32      0.00
    0  -10    1      1.68      0.00
    1  -10    1     -0.54      0.00
    2  -10    1      1.12      0.00
    3  -10    1     -2.21      0.00
    4  -10    1      1.04      0.00
   -7   -9    1     -0.08      0.00
   -6   -9    1     -0.99      0.00
   -5   -9    1      2.07      0.00
   -4   -9    1     -1.33      0.00
   -3   -9    1     -0.83      0.00
   -2   -9    1      0.79      0.00
   -1   -9    1      1.51      0.00
    0   -9    1     -1.82      0.00
    1   -9    1      0.18      0.00
    2   -9    1     -0.73      0.00
    3   -9    1      1.99      0.00
   -8   -8    1     -0.32      0.00
   -7   -8    1     -0.26      0.00
   -6   -8    1      1.81      0.00
   -5   -8    1     -1.58      0.00
   -4   -8    1     -1.28      0.00
   -3   -8    1      3.61      0.00
   -2   -8    1     -1.89      0.00
   -1   -8    1     -1.99      0.00
    0   -8    1      1.77      0.00
    1   -8    1      0.98      0.00
    2   -8    1     -0.32      0.00
    3   -8    1     -1.54      0.00
   -8   -7    1      0.86      0.00
   -7   -7    1      0.03      0.00
   -6   -7    1     -1.74      0.00
   -5   -7    1      0.01      0.00
   -4   -7    1      4.95      0.00
   -3   -7    1     -6.98      0.00
   -2   -7    1      2.80      0.00
   -1   -7    1      3.14      0.00
    0   -7    1     -2.04      0.00
    1   -7    1     -2.01      0.00
    2   -7    1      1.21      0.00
    3   -7    1      1.17      0.00
    4   -7    1     -0.66      0.00
    7   -7    1      0.40      0.00
    8   -7    1     -1.39      0.00
    9   -7    1      1.87      0.00
   10   -7    1     -1.75      0.00
   -8   -6    1     -2.00      0.00
   -7   -6    1      1.17      0.00
   -6   -6    1      0.76      0.00
   -5   -6    1      1.40      0.00
   -4   -6    1     -7.13      0.00
   -3   -6    1      8.18      0.00
   -2   -6    1     -1.15      0.00
   -1   -6    1     -6.51      0.00
    0   -6    1      4.25      0.00
    1   -6    1      1.08      0.00
    2   -6    1     -0.98      0.00
    3   -6    1     -1.01      0.00
    4   -6    1      0.40      0.00
    5   -6    1     -0.18      0.00
    6   -6    1      0.20      0.00
    7   -6    1     -0.57      0.00
    8   -6    1      0.78      0.00
    9   -6    1     -1.46      0.00
   10   -6    1      2.21      0.00
   11   -6    1     -1.24      0.00
   -9   -5    1     -0.70      0.00
   -8   -5    1      2.70      0.00
   -7   -5    1     -2.16      0.00
   -6   -5    1     -0.06      0.00
   -5   -5    1     -1.70      0.00
   -4   -5    1      6.67      0.00
   -3   -5    1     -5.93      0.00
   -2   -5    1     -3.40      0.00
   -1   -5    1     11.25      0.00
    0   -5    1     -7.69      0.00
    1   -5    1      1.36      0.00
    2   -5    1      0.11      0.00
    3   -5    1     -0.04      0.00
    4   -5    1      1.09      0.00
    5   -5    1     -0.14      0.00
    7   -5    1     -0.32      0.00
    8   -5    1      2.14      0.00
    9   -5    1     -1.38      0.00
   10   -5    1     -1.09      0.00
   11   -5    1      1.07      0.00
  -10   -4    1      1.23      0.00
   -9   -4    1     -0.15      0.00
   -8   -4    1     -2.29      0.00
   -7   -4    1      2.11      0.00
   -6   -4    1      0.11      0.00
   -5   -4    1      1.36      0.00
   -4   -4    1     -4.65      0.00
   -3   -4    1      1.90      0.00
   -2   -4    1      7.42      0.00
   -1   -4    1    -12.60      0.00
    0   -4    1      7.51      0.00
    1   -4    1     -2.39      0.00
    2   -4    1      0.50      0.00
    3   -4    1      2.96      0.00
    4   -4    1     -4.90      0.00
    5   -4    1      0.81      0.00
    6   -4    1      2.09      0.00
    7   -4    1      1.42      0.00
    8   -4    1     -5.49      0.00
    9   -4    1      4.61      0.00
   10   -4    1     -0.50      0.00
   11   -4    1     -0.46      0.00
  -11   -3    1      0.93      0.00
  -10   -3    1     -3.17      0.00
   -9   -3    1      1.28      0.00
   -8   -3    1      1.60      0.00
   -7   -3    1     -1.83      0.00
   -6   -3    1      0.22      0.00
   -5   -3    1     -1.66      0.00
   -4   -3    1      2.79      0.00
   -3   -3    1      1.28      0.00
   -2   -3    1     -6.91      0.00
   -1   -3    1      5.27      0.00
    0   -3    1      0.74      0.00
    1   -3    1      1.33      0.00
    2   -3    1     -1.31      0.00
    3   -3    1     -7.13      0.00
    4   -3    1      9.35      0.00
    5   -3    1     -0.93      0.00
    6   -3    1     -3.46      0.00
    7   -3    1     -2.21      0.00
    8   -3    1      7.30      0.00
    9   -3    1     -6.04      0.00
   10   -3    1      1.14      0.00
   11   -3    1      0.28      0.00
   12   -3    1      0.40      0.00
  -11   -2    1     -2.33      0.00
  -10   -2    1      4.27      0.00
   -9   -2    1     -1.53      0.00
   -8   -2    1     -1.40      0.00
   -7   -2    1      2.09      0.00
   -6   -2    1     -1.78      0.00
   -5   -2    1      3.42      0.00
   -4   -2    1     -2.55      0.00
   -3   -2    1     -1.50      0.00
   -2   -2    1     -0.60      0.00
   -1   -2    1     13.23      0.00
    0   -2    1    -15.44      0.00
    1   -2    1     -3.11      0.00
    2   -2    1      4.90      0.00
    3   -2    1     10.48      0.00
    4   -2    1    -11.85      0.00
    5   -2    1     -0.22      0.00
    6   -2    1      4.42      0.00
    7   -2    1      2.58      0.00
    8   -2    1     -7.41      0.00
    9   -2    1      5.64      0.00
   10   -2    1     -0.88      0.00
   11   -2    1     -0.47      0.00
   12   -2    1     -0.39      0.00
  -11   -1    1      3.05      0.00
  -10   -1    1     -3.74      0.00
   -9   -1    1      0.78      0.00
   -8   -1    1      1.40      0.00
   -7   -1    1     -2.44      0.00
   -6   -1    1      3.87      0.00
   -5   -1    1     -6.07      0.00
   -4   -1    1      3.69      0.00
   -3   -1    1     -0.23      0.00
   -2   -1    1     12.23      0.00
   -1   -1    1    -37.02      0.00
    0   -1    1     27.73      0.00
    1   -1    1     13.12      0.00
    2   -1    1    -13.56      0.00
    3   -1    1    -10.33      0.00
    4   -1    1     11.80      0.00
    5   -1    1      1.14      0.00
    6   -1    1     -4.36      0.00
    7   -1    1     -2.53      0.00
    8   -1    1      6.39      0.00
    9   -1    1     -4.17      0.00
   10   -1    1      0.34      0.00
   11   -1    1      0.27      0.00
   12   -1    1      0.62      0.00
  -12    0    1      0.11      0.00
  -11    0    1     -2.64      0.00
  -10    0    1      1.99      0.00
   -9    0    1      0.23      0.00
   -8    0    1     -0.90      0.00
   -7    0    1      1.85      0.00
   -6    0    1     -4.93      0.00
   -5    0    1      7.85      0.00
   -4    0    1     -3.77      0.00
   -3    0    1     -0.51      0.00
   -2    0    1    -18.20      0.00
   -1    0    1     49.98      0.00
    0    0    1    -27.12      0.00
    1    0    1    -27.81      0.00
    2    0    1     23.02      0.00
    3    0    1      6.88      0.00
    4    0    1    -10.47      0.00
    5    0    1     -0.11      0.00
    6    0    1      2.66      0.00
    7    0    1      2.54      0.00
    8    0    1     -4.77      0.00
    9    0    1      2.22      0.00
   10    0    1     -0.04      0.00
   11    0    1      0.75      0.00
   12    0    1     -1.18      0.00
  -12    1    1     -0.31      0.00
  -11    1    1      1.47      0.00
  -10    1    1     -0.03      0.00
   -9    1    1     -0.77      0.00
   -8    1    1     -0.50      0.00
   -7    1    1      0.25      0.00
   -6    1    1      3.92      0.00
   -5    1    1     -7.35      0.00
   -4    1    1      1.71      0.00
   -3    1    1      4.43      0.00
   -2    1    1     13.36      0.00
   -1    1    1    -41.43      0.00
    0    1    1     12.77      0.00
    1    1    1     35.73      0.00
    2    1    1    -23.89      0.00
    3    1    1     -5.13      0.00
    4    1    1      9.78      0.00
    5    1    1     -2.35      0.00
    6    1    1      0.21      0.00
    7    1    1     -2.96      0.00
    8    1    1      3.05      0.00
    9    1    1     -0.62      0.00
   10    1    1      0.55      0.00
   11    1    1     -2.37      0.00
   12    1    1      1.66      0.00
  -12    2    1      0.62      0.00
  -11    2    1     -0.27      0.00
  -10    2    1     -1.28      0.00
   -9    2    1      0.37      0.00
   -8    2    1      2.77      0.00
   -7    2    1     -3.31      0.00
   -6    2    1     -1.50      0.00
   -5    2    1      5.09      0.00
   -4    2    1      0.69      0.00
   -3    2    1     -6.74      0.00
   -2    2    1     -4.61      0.00
   -1    2    1     20.62      0.00
    0    2    1      3.08      0.00
    1    2    1    -29.89      0.00
    2    2    1     13.51      0.00
    3    2    1      8.02      0.00
    4    2    1    -10.11      0.00
    5    2    1      4.44      0.00
    6    2    1     -3.03      0.00
    7    2    1      3.62      0.00
    8    2    1     -1.81      0.00
    9    2    1      0.02      0.00
   10    2    1     -1.74      0.00
   11    2    1      3.75      0.00
   12    2    1     -1.65      0.00
  -12    3    1     -0.65      0.00
  -11    3    1     -0.39      0.00
  -10    3    1      1.45      0.00
   -9    3    1      1.05      0.00
   -8    3    1     -5.29      0.00
   -7    3    1      5.80      0.00
   -6    3    1     -0.37      0.00
   -5    3    1     -3.18      0.00
   -4    3    1     -1.44      0.00
   -3    3    1      5.31      0.00
   -2    3    1     -0.45      0.00
   -1    3    1     -4.16      0.00
    0    3    1     -8.72      0.00
    1    3    1     14.80      0.00
    2    3    1      0.52      0.00
    3    3    1    -11.73      0.00
    4    3    1      9.24      0.00
    5    3    1     -4.79      0.00
    6    3    1      4.85      0.00
    7    3    1     -4.17      0.00
    8    3    1      1.44      0.00
    9    3    1     -0.26      0.00
   10    3    1      2.69      0.00
   11    3    1     -3.92      0.00
   12    3    1      1.11      0.00
  -11    4    1      0.29      0.00
  -10    4    1     -0.66      0.00
   -9    4    1     -2.68      0.00
   -8    4    1      6.69      0.00
   -7    4    1     -6.27      0.00
   -6    4    1      0.55      0.00
   -5    4    1      2.87      0.00
   -4    4    1      0.38      0.00
   -3    4    1     -2.71      0.00
   -2    4    1      2.11      0.00
   -1    4    1     -2.79      0.00
    0    4    1      5.59      0.00
    1    4    1     -0.59      0.00
    2    4    1     -9.92      0.00
    3    4    1     11.60      0.00
    4    4    1     -5.55      0.00
    5    4    1      3.14      0.00
    6    4    1     -4.98      0.00
    7    4    1      3.91      0.00
    8    4    1     -1.15      0.00
    9    4    1      0.28      0.00
   10    4    1     -2.53      0.00
   11    4    1      2.68      0.00
  -11    5    1      0.20      0.00
  -10    5    1     -0.10      0.00
   -9    5    1      2.97      0.00
   -8    5    1     -5.60      0.00
   -7    5    1      4.26      0.00
   -6    5    1      0.48      0.00
   -5    5    1     -3.08      0.00
   -4    5    1      0.82      0.00
   -3    5    1      1.16      0.00
   -2    5    1     -2.74      0.00
   -1    5    1      4.54      0.00
    0    5    1     -2.14      0.00
    1    5    1     -5.96      0.00
    2    5    1     11.64      0.00
    3    5    1     -6.94      0.00
    4    5    1      0.09      0.00
    5    5    1     -0.35      0.00
    6    5    1      3.58      0.00
    7    5    1     -2.49      0.00
    8    5    1     -0.15      0.00
    9    5    1      0.55      0.00
   10    5    1      1.50      0.00
   11    5    1     -0.90      0.00
  -11    6    1     -0.44      0.00
  -10    6    1      0.12      0.00
   -9    6    1     -1.47      0.00
   -8    6    1      2.48      0.00
   -7    6    1     -0.99      0.00
   -6    6    1     -1.52      0.00
   -5    6    1      2.33      0.00
   -4    6    1     -0.48      0.00
   -3    6    1     -1.03      0.00
   -2    6    1      2.93      0.00
   -1    6    1     -4.74      0.00
    0    6    1      1.79      0.00
    1    6    1      5.20      0.00
    2    6    1     -7.10      0.00
    3    6    1      0.02      0.00
    4    6    1      4.94      0.00
    5    6    1     -2.11      0.00
    6    6    1     -2.14      0.00
    7    6    1      1.14      0.00
    8    6    1      1.56      0.00
    9    6    1     -1.16      0.00
   10    6    1     -0.74      0.00
  -10    7    1      0.24      0.00
   -9    7    1     -0.30      0.00
   -8    7    1      0.24      0.00
   -7    7    1     -1.06      0.00
   -6    7    1      1.30      0.00
   -5    7    1     -0.55      0.00
   -4    7    1     -0.92      0.00
   -3    7    1      1.52      0.00
   -2    7    1     -2.83      0.00
   -1    7    1      4.27      0.00
    0    7    1     -2.31      0.00
    1    7    1     -2.03      0.00
    2    7    1      1.03      0.00
    3    7    1      5.36      0.00
    4    7    1     -7.37      0.00
    5    7    1      2.78      0.00
    6    7    1      1.99      0.00
    7    7    1     -1.21      0.00
    8    7    1     -1.31      0.00
    9    7    1      0.46      0.00
   10    7    1      0.69      0.00
  -10    8    1     -0.33      0.00
   -9    8    1      0.91      0.00
   -8    8    1     -1.05      0.00
   -7    8    1      0.92      0.00
   -6    8    1      0.31      0.00
   -5    8    1     -1.28      0.00
   -4    8    1      1.63      0.00
   -3    8    1     -1.32      0.00
   -2    8    1      2.13      0.00
   -1    8    1     -3.09      0.00
    0    8    1      1.97      0.00
    1    8    1     -0.07      0.00
    2    8    1      2.65      0.00
    3    8    1     -6.99      0.00
    4    8    1      6.39      0.00
    5    8    1     -1.38      0.00
    6    8    1     -2.58      0.00
    7    8    1      1.86      0.00
    8    8    1      0.00      0.00
    9    8    1      0.55      0.00
   -9    9    1     -0.62      0.00
   -8    9    1      0.77      0.00
   -7    9    1     -0.18      0.00
   -6    9    1     -1.43      0.00
   -5    9    1      1.73      0.00
   -4    9    1     -0.90      0.00
   -3    9    1      0.12      0.00
   -2    9    1     -0.68      0.00
   -1    9    1      1.53      0.00
    0    9    1     -1.23      0.00
    1    9    1      1.00      0.00
    2    9    1     -4.03      0.00
    3    9    1      6.30      0.00
    4    9    1     -3.79      0.00
    5    9    1     -0.52      0.00
    6    9    1      2.49      0.00
    7    9    1     -1.54      0.00
    8    9    1      0.49      0.00
   -8   10    1     -0.40      0.00
   -7   10    1      0.03      0.00
   -6   10    1      0.88      0.00
   -5   10    1     -0.46      0.00
   -4   10    1     -0.69      0.00
   -3   10    1      1.32      0.00
   -2   10    1     -0.80      0.00
   -1   10    1     -0.24      0.00
    0   10    1      0.46      0.00
    1   10    1     -1.12      0.00
    2   10    1      3.98      0.00
    3   10    1     -4.86      0.00
    4   10    1      1.67      0.00
    5   10    1      1.23      0.00
    6   10    1     -1.38      0.00
    7   10    1      0.46      0.00
   -5   11    1     -0.65      0.00
   -4   11    1      1.62      0.00
   -3   11    1     -2.16      0.00
   -2   11    1      1.52      0.00
   -1   11    1     -0.41      0.00
    0   11    1      0.32      0.00
    1   11    1      0.44      0.00
    2   11    1     -2.47      0.00
    3   11    1      2.71      0.00
    4   11    1     -0.51      0.00
    5   11    1     -0.70      0.00
   -3   12    1      1.69      0.00
   -2   12    1     -1.17      0.00
   -1   12    1      0.40      0.00
    0   12    1     -0.55      0.00
    1   12    1      0.11      0.00
    2   12    1      0.65      0.00
    3   12    1     -0.78      0.00
    4   12    1      0.19      0.00
   -2   13    1      0.26      0.00
   -1   13    1     -0.02      0.00
    0   13    1      0.11      0.00
    1   13    1      0.00      0.00
    2   13    1      0.09      0.00
    0  -12    2     -0.72      0.00
    1  -12    2      0.48      0.00
    2  -12    2     -0.70      0.00
   -3  -11    2     -0.62      0.00
   -2  -11    2      0.83      0.00
   -1  -11    2     -0.87      0.00
    0  -11    2      0.30      0.00
    1  -11    2      0.00      0.00
    2  -11    2      1.16      0.00
    3  -11    2     -1.05      0.00
   -5  -10    2      0.87      0.00
   -4  -10    2     -0.52      0.00
   -3  -10    2     -0.11      0.00
   -2  -10    2     -0.09      0.00
   -1  -10    2      0.01      0.00
    0  -10    2      1.22      0.00
    1  -10    2     -1.64      0.00
    2  -10    2     -0.36      0.00
    3  -10    2      0.63      0.00
    4  -10    2      0.79      0.00
   -6   -9    2      0.68      0.00
   -5   -9    2     -0.65      0.00
   -4   -9    2     -0.64      0.00
   -3   -9    2      1.42      0.00
   -2   -9    2     -0.69      0.00
   -1   -9    2      0.92      0.00
    0   -9    2     -2.89      0.00
    1   -9    2      3.39      0.00
    2   -9    2     -0.78      0.00
    3   -9    2     -0.09      0.00
    4   -9    2     -1.11      0.00
   -7   -8    2      0.18      0.00
   -6   -8    2     -0.85      0.00
   -5   -8    2     -0.29      0.00
   -4   -8    2      2.15      0.00
   -3   -8    2     -1.70      0.00
   -2   -8    2     -0.06      0.00
   -1   -8    2     -0.67      0.00
    0   -8    2      3.92      0.00
    1   -8    2     -4.45      0.00
    2   -8    2      1.03      0.00
    3   -8    2      0.27      0.00
    4   -8    2      0.91      0.00
   -8   -7    2     -0.69      0.00
   -7   -7    2     -0.54      0.00
   -6   -7    2      0.94      0.00
   -5   -7    2      1.45      0.00
   -4   -7    2     -3.17      0.00
   -3   -7    2      0.58      0.00
   -2   -7    2      2.60      0.00
   -1   -7    2     -1.24      0.00
    0   -7    2     -4.04      0.00
    1   -7    2      4.82      0.00
    2   -7    2     -0.70      0.00
    3   -7    2     -0.51      0.00
   10   -7    2      0.36      0.00
   -8   -6    2      0.71      0.00
   -7   -6    2      0.98      0.00
   -6   -6    2     -1.27      0.00
   -5   -6    2     -1.87      0.00
   -4   -6    2      2.94      0.00
   -3   -6    2      1.64      0.00
   -2   -6    2     -6.50      0.00
   -1   -6    2      4.55      0.00
    0   -6    2      3.09      0.00
    1   -6    2     -4.64      0.00
    2   -6    2      0.60      0.00
    3   -6    2      0.08      0.00
    7   -6    2      0.85      0.00
    8   -6    2     -1.25      0.00
    9   -6    2      1.54      0.00
   10   -6    2     -0.88      0.00
   -7   -5    2     -1.44      0.00
   -6   -5    2      1.90      0.00
   -5   -5    2      1.18      0.00
   -4   -5    2     -1.15      0.00
   -3   -5    2     -5.02      0.00
   -2   -5    2     11.42      0.00
   -1   -5    2     -8.61      0.00
    0   -5    2     -1.11      0.00
    1   -5    2      4.04      0.00
    2   -5    2     -1.39      0.00
    3   -5    2      1.43      0.00
    4   -5    2     -1.65      0.00
    6   -5    2      0.25      0.00
    7   -5    2     -0.01      0.00
    8   -5    2      0.35      0.00
    9   -5    2     -1.70      0.00
   10   -5    2      1.49      0.00
   11   -5    2      0.20      0.00
   -8   -4    2      0.63      0.00
   -6   -4    2     -2.25      0.00
   -5   -4    2     -0.09      0.00
   -4   -4    2     -1.36      0.00
   -3   -4    2      8.61      0.00
   -2   -4    2    -15.38      0.00
   -1   -4    2     11.29      0.00
    0   -4    2     -0.93      0.00
    1   -4    2     -2.72      0.00
    2   -4    2      2.98      0.00
    3   -4    2     -4.55      0.00
    4   -4    2      2.09      0.00
    5   -4    2      2.39      0.00
    6   -4    2     -1.39      0.00
    7   -4    2     -1.88      0.00
    8   -4    2      1.65      0.00
    9   -4    2      1.44      0.00
   10   -4    2     -2.25      0.00
   11   -4    2      0.10      0.00
  -10   -3    2      0.94      0.00
   -9   -3    2      1.25      0.00
   -8   -3    2     -1.30      0.00
   -7   -3    2     -0.97      0.00
   -6   -3    2      1.73      0.00
   -5   -3    2     -0.40      0.00
   -4   -3    2      2.87      0.00
   -3   -3    2     -9.65      0.00
   -2   -3    2     14.32      0.00
   -1   -3    2     -9.01      0.00
    0   -3    2      1.78      0.00
    1   -3    2     -0.50      0.00
    2   -3    2     -3.88      0.00
    3   -3    2      7.80      0.00
    4   -3    2     -1.09      0.00
    5   -3    2     -6.68      0.00
    6   -3    2      3.24      0.00
    7   -3    2      3.21      0.00
    8   -3    2     -2.78      0.00
    9   -3    2     -1.72      0.00
   10   -3    2      3.35      0.00
   11   -3    2     -0.96      0.00
   12   -3    2     -0.01      0.00
  -11   -2    2      1.51      0.00
  -10   -2    2     -0.50      0.00
   -9   -2    2     -2.62      0.00
   -8   -2    2      2.71      0.00
   -7   -2    2     -0.70      0.00
   -6   -2    2     -0.01      0.00
   -5   -2    2     -0.49      0.00
   -4   -2    2     -2.25      0.00
   -3   -2    2      6.47      0.00
   -2   -2    2     -6.70      0.00
   -1   -2    2      2.36      0.00
    0   -2    2     -4.98      0.00
    1   -2    2      9.14      0.00
    2   -2    2      1.74      0.00
    3   -2    2     -8.18      0.00
    4   -2    2     -2.80      0.00
    5   -2    2     11.62      0.00
    6   -2    2     -4.74      0.00
    7   -2    2     -3.28      0.00
    8   -2    2      2.24      0.00
    9   -2    2      2.73      0.00
   10   -2    2     -4.51      0.00
   11   -2    2      1.87      0.00
   12   -2    2     -0.34      0.00
  -11   -1    2     -1.66      0.00
  -10   -1    2     -0.99      0.00
   -9   -1    2      4.07      0.00
   -8   -1    2     -4.12      0.00
   -7   -1    2      2.72      0.00
   -6   -1    2     -2.28      0.00
   -5   -1    2      1.89      0.00
   -4   -1    2      1.30      0.00
   -3   -1    2     -2.08      0.00
   -2   -1    2     -2.65      0.00
   -1   -1    2      1.79      0.00
    0   -1    2     17.52      0.00
    1   -1    2    -26.15      0.00
    2   -1    2      4.49      0.00
    3   -1    2      5.29      0.00
    4   -1    2      7.43      0.00
    5   -1    2    -14.42      0.00
    6   -1    2      4.89      0.00
    7   -1    2      2.84      0.00
    8   -1    2     -1.10      0.00
    9   -1    2     -3.53      0.00
   10   -1    2      4.66      0.00
   11   -1    2     -1.72      0.00
   12   -1    2      0.03      0.00
  -11    0    2      0.79      0.00
  -10    0    2      2.61      0.00
   -9    0    2     -4.52      0.00
   -8    0    2      4.17      0.00
   -7    0    2     -3.51      0.00
   -6    0    2      3.49      0.00
   -5    0    2     -1.56      0.00
   -4    0    2     -3.24      0.00
   -3    0    2      1.43      0.00
   -2    0    2      7.49      0.00
   -1    0    2     -0.05      0.00
    0    0    2    -35.07      0.00
    1    0    2     43.04      0.00
    2    0    2    -10.14      0.00
    3    0    2     -3.05      0.00
    4    0    2     -8.06      0.00
    5    0    2     12.76      0.00
    6    0    2     -3.55      0.00
    7    0    2     -2.39      0.00
    8    0    2      0.03      0.00
    9    0    2      3.59      0.00
   10    0    2     -3.32      0.00
   11    0    2      0.29      0.00
   12    0    2      0.73      0.00
  -11    1    2      0.34      0.00
  -10    1    2     -3.13      0.00
   -9    1    2      3.24      0.00
   -8    1    2     -2.01      0.00
   -7    1    2      2.18      0.00
   -6    1    2     -2.89      0.00
   -5    1    2     -0.52      0.00
   -4    1    2      6.84      0.00
   -3    1    2     -3.87      0.00
   -2    1    2     -7.49      0.00
   -1    1    2     -2.12      0.00
    0    1    2     40.48      0.00
    1    1    2    -42.35      0.00
    2    1    2      6.41      0.00
    3    1    2      5.74      0.00
    4    1    2      3.54      0.00
    5    1    2     -7.57      0.00
    6    1    2      1.48      0.00
    7    1    2      1.53      0.00
    8    1    2      1.36      0.00
    9    1    2     -3.28      0.00
   10    1    2      1.43      0.00
   11    1    2      0.94      0.00
   12    1    2     -0.77      0.00
  -11    2    2     -0.92      0.00
  -10    2    2      2.23      0.00
   -9    2    2     -0.66      0.00
   -8    2    2     -1.27      0.00
   -7    2    2     -0.09      0.00
   -6    2    2      2.17      0.00
   -5    2    2      1.34      0.00
   -4    2    2     -7.12      0.00
   -3    2    2      4.07      0.00
   -2    2    2      6.48      0.00
   -1    2    2      0.07      0.00
    0    2    2    -26.98      0.00
    1    2    2     21.30      0.00
    2    2    2      6.82      0.00
    3    2    2    -11.87      0.00
    4    2    2      2.00      0.00
    5    2    2      2.25      0.00
    6    2    2      0.32      0.00
    7    2    2     -0.12      0.00
    8    2    2     -2.87      0.00
    9    2    2      2.81      0.00
   10    2    2      0.04      0.00
   11    2    2     -1.00      0.00
   12    2    2     -0.22      0.00
  -11    3    2      0.81      0.00
  -10    3    2     -0.71      0.00
   -9    3    2     -1.70      0.00
   -8    3    2      3.28      0.00
   -7    3    2     -0.27      0.00
   -6    3    2     -3.32      0.00
   -5    3    2      0.77      0.00
   -4    3    2      3.27      0.00
   -3    3    2     -1.03      0.00
   -2    3    2     -5.87      0.00
   -1    3    2      3.70      0.00
    0    3    2      7.21      0.00
    1    3    2      2.22      0.00
    2    3    2    -17.89      0.00
    3    3    2     14.70      0.00
    4    3    2     -4.11      0.00
    5    3    2      0.96      0.00
    6    3    2     -1.51      0.00
    7    3    2     -1.05      0.00
    8    3    2      3.57      0.00
    9    3    2     -2.19      0.00
   10    3    2     -0.88      0.00
   11    3    2      0.52      0.00
   12    3    2      1.01      0.00
  -11    4    2     -0.32      0.00
  -10    4    2     -0.48      0.00
   -9    4    2      2.70      0.00
   -8    4    2     -2.89      0.00
   -7    4    2     -1.42      0.00
   -6    4    2      5.73      0.00
   -5    4    2     -3.81      0.00
   -4    4    2      0.37      0.00
   -3    4    2     -1.02      0.00
   -2    4    2      4.19      0.00
   -1    4    2     -5.34      0.00
    0    4    2      5.66      0.00
    1    4    2    -14.00      0.00
    2    4    2     19.18      0.00
    3    4    2    -11.22      0.00
    4    4    2      2.56      0.00
    5    4    2     -2.15      0.00
    6    4    2      2.10      0.00
    7    4    2      1.48      0.00
    8    4    2     -3.32      0.00
    9    4    2      1.61      0.00
   10    4    2      1.09      0.00
   11    4    2     -0.11      0.00
  -11    5    2     -0.03      0.00
  -10    5    2      0.72      0.00
   -9    5    2     -2.15      0.00
   -8    5    2      1.04      0.00
   -7    5    2      3.18      0.00
   -6    5    2     -6.75      0.00
   -5    5    2      4.80      0.00
   -4    5    2     -1.00      0.00
   -3    5    2      0.32      0.00
   -2    5    2     -1.39      0.00
   -1    5    2      4.33      0.00
    0    5    2     -9.64      0.00
    1    5    2     15.41      0.00
    2    5    2    -14.37      0.00
    3    5    2      5.42      0.00
    4    5    2     -0.62      0.00
    5    5    2      2.64      0.00
    6    5    2     -2.24      0.00
    7    5    2     -1.51      0.00
    8    5    2      2.63      0.00
    9    5    2     -0.79      0.00
   10    5    2     -1.02      0.00
   11    5    2     -0.25      0.00
  -11    6    2      0.03      0.00
  -10    6    2     -0.10      0.00
   -9    6    2      0.63      0.00
   -8    6    2      0.85      0.00
   -7    6    2     -3.66      0.00
   -6    6    2      5.24      0.00
   -5    6    2     -3.03      0.00
   -4    6    2     -0.34      0.00
   -3    6    2      0.93      0.00
   -2    6    2     -0.64      0.00
   -1    6    2     -2.23      0.00
    0    6    2      8.02      0.00
    1    6    2    -11.79      0.00
    2    6    2      8.39      0.00
    3    6    2     -1.37      0.00
    4    6    2      0.57      0.00
    5    6    2     -3.78      0.00
    6    6    2      2.83      0.00
    7    6    2      1.01      0.00
    8    6    2     -1.40      0.00
    9    6    2     -0.83      0.00
   10    6    2      1.27      0.00
   11    6    2      0.35      0.00
  -10    7    2     -0.48      0.00
   -9    7    2      0.63      0.00
   -8    7    2     -1.77      0.00
   -7    7    2      2.97      0.00
   -6    7    2     -2.58      0.00
   -5    7    2      0.40      0.00
   -4    7    2      1.59      0.00
   -3    7    2     -1.36      0.00
   -2    7    2      1.26      0.00
   -1    7    2      0.55      0.00
    0    7    2     -4.28      0.00
    1    7    2      6.15      0.00
    2    7    2     -2.84      0.00
    3    7    2     -0.48      0.00
    4    7    2     -2.01      0.00
    5    7    2      5.79      0.00
    6    7    2     -4.39      0.00
    7    7    2      0.41      0.00
    8    7    2     -0.42      0.00
    9    7    2      2.41      0.00
   10    7    2     -1.41      0.00
  -10    8    2      0.38      0.00
   -9    8    2     -0.75      0.00
   -8    8    2      1.33      0.00
   -7    8    2     -1.43      0.00
   -6    8    2      0.15      0.00
   -5    8    2      1.14      0.00
   -4    8    2     -1.61      0.00
   -3    8    2      1.23      0.00
   -2    8    2     -1.37      0.00
   -1    8    2      0.44      0.00
    0    8    2      1.08      0.00
    1    8    2     -1.50      0.00
    2    8    2     -0.58      0.00
    3    8    2      0.39      0.00
    4    8    2      3.99      0.00
    5    8    2     -7.53      0.00
    6    8    2      5.62      0.00
    7    8    2     -1.83      0.00
    8    8    2      1.71      0.00
    9    8    2     -2.36      0.00
   -9    9    2      0.19      0.00
   -8    9    2     -0.38      0.00
   -7    9    2     -0.07      0.00
   -6    9    2      1.25      0.00
   -5    9    2     -1.23      0.00
   -4    9    2      0.55      0.00
   -3    9    2     -0.56      0.00
   -2    9    2      1.12      0.00
   -1    9    2     -0.93      0.00
    0    9    2      0.51      0.00
    1    9    2     -0.52      0.00
    2    9    2      1.24      0.00
    3    9    2      1.09      0.00
    4    9    2     -5.67      0.00
    5    9    2      7.59      0.00
    6    9    2     -4.92      0.00
    7    9    2      1.82      0.00
    8    9    2     -1.45      0.00
   -8   10    2     -0.08      0.00
   -7   10    2      0.41      0.00
   -6   10    2     -0.97      0.00
   -5   10    2      0.25      0.00
   -4   10    2      0.66      0.00
   -3   10    2     -0.32      0.00
   -2   10    2     -0.46      0.00
   -1   10    2      0.79      0.00
    0   10    2     -0.71      0.00
    1   10    2      1.00      0.00
    2   10    2     -1.09      0.00
    3   10    2     -1.91      0.00
    4   10    2      5.49      0.00
    5   10    2     -5.46      0.00
    6   10    2      2.56      0.00
    7   10    2     -0.61      0.00
   -7   11    2      0.03      0.00
   -6   11    2     -0.17      0.00
   -5   11    2      0.85      0.00
   -4   11    2     -1.18      0.00
   -3   11    2      0.37      0.00
   -2   11    2      0.54      0.00
   -1   11    2     -0.79      0.00
    0   11    2      0.77      0.00
    1   11    2     -1.56      0.00
    2   11    2      1.66      0.00
    3   11    2      0.73      0.00
    4   11    2     -2.91      0.00
    5   11    2      2.14      0.00
    6   11    2     -0.33      0.00
   -6   12    2      0.56      0.00
   -5   12    2     -0.93      0.00
   -4   12    2      0.77      0.00
   -3   12    2      0.45      0.00
   -2   12    2     -1.52      0.00
   -1   12    2      1.49      0.00
    0   12    2     -1.47      0.00
    1   12    2      2.17      0.00
    2   12    2     -2.15      0.00
    3   12    2      1.00      0.00
    4   12    2      0.12      0.00
   -3   13    2     -0.87      0.00
   -2   13    2      1.70      0.00
   -1   13    2     -1.57      0.00
    0   13    2      1.60      0.00
    1   13    2     -1.61      0.00
    2   13    2      1.44      0.00
    3   13    2     -1.29      0.00
   -2  -11    3     -0.50      0.00
   -1  -11    3      0.20      0.00
    0  -11    3      0.00      0.00
    1  -11    3      0.41      0.00
    2  -11    3     -1.23      0.00
    3  -11    3      0.33      0.00
   -4  -10    3      0.19      0.00
   -3  -10    3     -0.22      0.00
   -2  -10    3      0.33      0.00
   -1  -10    3      0.16      0.00
    0  -10    3     -0.35      0.00
    1  -10    3     -1.05      0.00
    2  -10    3      2.52      0.00
    3  -10    3     -0.85      0.00
    4  -10    3     -0.23      0.00
   -5   -9    3      0.39      0.00
   -4   -9    3      0.37      0.00
   -3   -9    3     -0.31      0.00
   -2   -9    3      0.05      0.00
   -1   -9    3     -0.89      0.00
    0   -9    3      0.90      0.00
    1   -9    3      1.65      0.00
    2   -9    3     -3.88      0.00
    3   -9    3      1.80      0.00
    4   -9    3      0.04      0.00
   -6   -8    3      1.02      0.00
   -5   -8    3      0.04      0.00
   -4   -8    3     -0.90      0.00
   -3   -8    3      0.11      0.00
   -2   -8    3     -0.12      0.00
   -1   -8    3      1.60      0.00
    0   -8    3     -1.17      0.00
    1   -8    3     -2.72      0.00
    2   -8    3      5.60      0.00
    3   -8    3     -3.04      0.00
    4   -8    3      0.21      0.00
   -7   -7    3      1.15      0.00
   -6   -7    3     -0.80      0.00
   -5   -7    3     -0.69      0.00
   -4   -7    3      0.33      0.00
   -3   -7    3      1.77      0.00
   -2   -7    3     -1.13      0.00
   -1   -7    3     -1.32      0.00
    0   -7    3      0.81      0.00
    1   -7    3      4.15      0.00
    2   -7    3     -7.08      0.00
    3   -7    3      3.70      0.00
    4   -7    3     -0.41      0.00
   -7   -6    3     -1.46      0.00
   -6   -6    3      0.70      0.00
   -5   -6    3      0.88      0.00
   -4   -6    3      1.09      0.00
   -3   -6    3     -4.09      0.00
   -2   -6    3      2.97      0.00
   -1   -6    3      0.87      0.00
    0   -6    3     -1.18      0.00
    1   -6    3     -4.33      0.00
    2   -6    3      6.74      0.00
    3   -6    3     -2.79      0.00
    9   -6    3     -0.17      0.00
   10   -6    3     -0.83      0.00
   -6   -5    3     -0.89      0.00
   -5   -5    3     -0.88      0.00
   -4   -5    3     -1.69      0.00
   -3   -5    3      4.66      0.00
   -2   -5    3     -3.16      0.00
   -1   -5    3     -2.78      0.00
    0   -5    3      4.33      0.00
    1   -5    3      1.55      0.00
    2   -5    3     -3.79      0.00
    3   -5    3      0.67      0.00
    4   -5    3     -0.47      0.00
    7   -5    3      1.15      0.00
    8   -5    3     -1.18      0.00
    9   -5    3      0.97      0.00
   10   -5    3      0.65      0.00
   11   -5    3     -1.06      0.00
   -8   -4    3      1.21      0.00
   -7   -4    3     -2.38      0.00
   -6   -4    3      0.35      0.00
   -5   -4    3      1.56      0.00
   -4   -4    3      0.79      0.00
   -3   -4    3     -3.48      0.00
   -2   -4    3      1.22      0.00
   -1   -4    3      7.02      0.00
    0   -4    3     -9.12      0.00
    1   -4    3      3.09      0.00
    2   -4    3     -0.76      0.00
    3   -4    3      0.93      0.00
    4   -4    3      2.69      0.00
    5   -4    3     -3.57      0.00
    6   -4    3      0.96      0.00
    7   -4    3     -0.26      0.00
    8   -4    3      1.89      0.00
    9   -4    3     -2.66      0.00
   10   -4    3      0.62      0.00
   11   -4    3      0.59      0.00
  -10   -3    3      0.94      0.00
   -9   -3    3     -1.54      0.00
   -8   -3    3     -0.36      0.00
   -7   -3    3      1.02      0.00
   -6   -3    3      1.29      0.00
   -5   -3    3     -2.96      0.00
   -4   -3    3      0.82      0.00
   -3   -3    3      1.75      0.00
   -2   -3    3      1.88      0.00
   -1   -3    3    -10.97      0.00
    0   -3    3     11.57      0.00
    1   -3    3     -6.11      0.00
    2   -3    3      4.79      0.00
    3   -3    3     -0.63      0.00
    4   -3    3     -7.62      0.00
    5   -3    3      7.14      0.00
    6   -3    3      0.15      0.00
    7   -3    3     -2.08      0.00
    8   -3    3     -1.67      0.00
    9   -3    3      3.85      0.00
   10   -3    3     -1.77      0.00
   11   -3    3     -0.05      0.00
   12   -3    3     -0.47      0.00
  -10   -2    3     -2.95      0.00
   -9   -2    3      3.50      0.00
   -8   -2    3     -1.43      0.00
   -7   -2    3      1.03      0.00
   -6   -2    3     -3.00      0.00
   -5   -2    3      4.19      0.00
   -4   -2    3     -2.12      0.00
   -3   -2    3      0.39      0.00
   -2   -2    3     -5.44      0.00
   -1   -2    3     12.28      0.00
    0   -2    3     -9.22      0.00
    1   -2    3      5.89      0.00
    2   -2    3     -7.23      0.00
    3   -2    3     -1.26      0.00
    4   -2    3     12.42      0.00
    5   -2    3     -8.47      0.00
    6   -2    3     -3.02      0.00
    7   -2    3      4.68      0.00
    8   -2    3      0.76      0.00
    9   -2    3     -3.94      0.00
   10   -2    3      1.94      0.00
   11   -2    3      0.26      0.00
   12   -2    3      0.18      0.00
  -11   -1    3     -1.60      0.00
  -10   -1    3      4.89      0.00
   -9   -1    3     -4.94      0.00
   -8   -1    3      3.06      0.00
   -7   -1    3     -2.58      0.00
   -6   -1    3      3.81      0.00
   -5   -1    3     -4.21      0.00
   -4   -1    3      2.54      0.00
   -3   -1    3     -3.27      0.00
   -2   -1    3      8.59      0.00
   -1   -1    3     -9.61      0.00
    0   -1    3      2.42      0.00
    1   -1    3     -4.41      0.00
    2   -1    3      9.67      0.00
    3   -1    3      2.18      0.00
    4   -1    3    -13.31      0.00
    5   -1    3      5.48      0.00
    6   -1    3      7.03      0.00
    7   -1    3     -6.55      0.00
    8   -1    3      0.12      0.00
    9   -1    3      3.25      0.00
   10   -1    3     -1.08      0.00
   11   -1    3     -1.21      0.00
   12   -1    3      0.44      0.00
  -11    0    3      2.44      0.00
  -10    0    3     -5.56      0.00
   -9    0    3      4.97      0.00
   -8    0    3     -3.59      0.00
   -7    0    3      3.12      0.00
   -6    0    3     -3.52      0.00
   -5    0    3      2.81      0.00
   -4    0    3     -2.65      0.00
   -3    0    3      7.56      0.00
   -2    0    3    -12.07      0.00
   -1    0    3      5.49      0.00
    0    0    3      4.71      0.00
    1    0    3      5.04      0.00
    2    0    3    -14.06      0.00
    3    0    3      0.55      0.00
    4    0    3      9.33      0.00
    5    0    3     -0.52      0.00
    6    0    3     -9.53      0.00
    7    0    3      6.71      0.00
    8    0    3     -0.32      0.00
    9    0    3     -2.04      0.00
   10    0    3     -0.58      0.00
   11    0    3      2.30      0.00
   12    0    3     -0.71      0.00
  -11    1    3     -2.77      0.00
  -10    1    3      4.74      0.00
   -9    1    3     -3.51      0.00
   -8    1    3      2.72      0.00
   -7    1    3     -2.97      0.00
   -6    1    3      2.94      0.00
   -5    1    3     -1.56      0.00
   -4    1    3      4.19      0.00
   -3    1    3    -13.57      0.00
   -2    1    3     17.83      0.00
   -1    1    3     -5.98      0.00
    0    1    3     -5.09      0.00
    1    1    3     -9.99      0.00
    2    1    3     19.52      0.00
    3    1    3     -5.87      0.00
    4    1    3     -3.27      0.00
    5    1    3     -2.88      0.00
    6    1    3      8.63      0.00
    7    1    3     -4.61      0.00
    8    1    3     -0.40      0.00
    9    1    3      0.64      0.00
   10    1    3      2.20      0.00
   11    1    3     -2.61      0.00
   12    1    3      0.40      0.00
  -11    2    3      2.40      0.00
  -10    2    3     -3.02      0.00
   -9    2    3      1.25      0.00
   -8    2    3     -1.18      0.00
   -7    2    3      3.07      0.00
   -6    2    3     -3.45      0.00
   -5    2    3      2.52      0.00
   -4    2    3     -7.60      0.00
   -3    2    3     18.78      0.00
   -2    2    3    -23.33      0.00
   -1    2    3     11.45      0.00
    0    2    3     -2.58      0.00
    1    2    3     17.46      0.00
    2    2    3    -22.93      0.00
    3    2    3      9.44      0.00
    4    2    3     -0.89      0.00
    5    2    3      3.71      0.00
    6    2    3     -5.37      0.00
    7    2    3      1.19      0.00
    8    2    3      1.46      0.00
    9    2    3      0.60      0.00
   10    2    3     -2.92      0.00
   11    2    3      1.78      0.00
   12    2    3      0.21      0.00
  -11    3    3     -1.41      0.00
  -10    3    3      1.14      0.00
   -9    3    3      0.74      0.00
   -8    3    3      0.25      0.00
   -7    3    3     -3.99      0.00
   -6    3    3      5.21      0.00
   -5    3    3     -5.03      0.00
   -4    3    3     10.25      0.00
   -3    3    3    -19.26      0.00
   -2    3    3     23.11      0.00
   -1    3    3    -14.78      0.00
    0    3    3     10.23      0.00
    1    3    3    -21.28      0.00
    2    3    3     21.28      0.00
    3    3    3     -8.19      0.00
    4    3    3      1.36      0.00
    5    3    3     -2.71      0.00
    6    3    3      1.65      0.00
    7    3    3      2.09      0.00
    8    3    3     -2.34      0.00
    9    3    3     -1.07      0.00
   10    3    3      2.64      0.00
   11    3    3     -0.54      0.00
   12    3    3     -0.62      0.00
  -11    4    3      0.33      0.00
  -10    4    3      0.23      0.00
   -9    4    3     -1.63      0.00
   -8    4    3     -0.49      0.00
   -7    4    3      5.04      0.00
   -6    4    3     -6.41      0.00
   -5    4    3      5.74      0.00
   -4    4    3     -8.69      0.00
   -3    4    3     14.03      0.00
   -2    4    3    -16.49      0.00
   -1    4    3     12.27      0.00
    0    4    3    -11.36      0.00
    1    4    3     17.63      0.00
    2    4    3    -13.89      0.00
    3    4    3      2.54      0.00
    4    4    3      0.97      0.00
    5    4    3      0.77      0.00
    6    4    3      1.39      0.00
    7    4    3     -4.28      0.00
    8    4    3      3.09      0.00
    9    4    3      0.41      0.00
   10    4    3     -1.63      0.00
   11    4    3     -0.32      0.00
   12    4    3      0.60      0.00
  -11    5    3      0.14      0.00
  -10    5    3     -0.70      0.00
   -9    5    3      1.43      0.00
   -8    5    3      1.08      0.00
   -7    5    3     -4.74      0.00
   -6    5    3      5.10      0.00
   -5    5    3     -2.79      0.00
   -4    5    3      3.04      0.00
   -3    5    3     -5.97      0.00
   -2    5    3      7.68      0.00
   -1    5    3     -7.08      0.00
    0    5    3      8.17      0.00
    1    5    3    -10.09      0.00
    2    5    3      4.52      0.00
    3    5    3      3.68      0.00
    4    5    3     -3.42      0.00
    5    5    3      0.81      0.00
    6    5    3     -2.74      0.00
    7    5    3      4.49      0.00
    8    5    3     -2.79      0.00
    9    5    3      0.15      0.00
   10    5    3      0.54      0.00
   11    5    3      0.64      0.00
  -11    6    3      0.01      0.00
  -10    6    3      0.59      0.00
   -9    6    3     -1.01      0.00
   -8    6    3     -0.86      0.00
   -7    6    3      2.47      0.00
   -6    6    3     -1.28      0.00
   -5    6    3     -2.14      0.00
   -4    6    3      2.86      0.00
   -3    6    3     -0.54      0.00
   -2    6    3     -0.99      0.00
   -1    6    3      2.92      0.00
    0    6    3     -4.99      0.00
    1    6    3      4.45      0.00
    2    6    3      1.04      0.00
    3    6    3     -5.47      0.00
    4    6    3      2.82      0.00
    5    6    3     -0.24      0.00
    6    6    3      1.89      0.00
    7    6    3     -2.61      0.00
    8    6    3      0.52      0.00
    9    6    3      0.85      0.00
   10    6    3     -0.13      0.00
   11    6    3     -0.50      0.00
  -10    7    3     -0.55      0.00
   -9    7    3      1.07      0.00
   -8    7    3     -0.32      0.00
   -7    7    3      0.70      0.00
   -6    7    3     -3.04      0.00
   -5    7    3      6.03      0.00
   -4    7    3     -5.84      0.00
   -3    7    3      3.15      0.00
   -2    7    3     -1.58      0.00
   -1    7    3     -0.93      0.00
    0    7    3      2.82      0.00
    1    7    3     -2.02      0.00
    2    7    3     -1.36      0.00
    3    7    3      2.16      0.00
    4    7    3      1.01      0.00
    5    7    3     -2.18      0.00
    6    7    3     -0.18      0.00
    7    7    3      0.41      0.00
    8    7    3      2.06      0.00
    9    7    3     -2.20      0.00
   10    7    3      0.15      0.00
  -10    8    3      0.69      0.00
   -9    8    3     -1.36      0.00
   -8    8    3      1.55      0.00
   -7    8    3     -3.05      0.00
   -6    8    3      5.49      0.00
   -5    8    3     -7.01      0.00
   -4    8    3      5.78      0.00
   -3    8    3     -3.12      0.00
   -2    8    3      1.47      0.00
   -1    8    3      0.26      0.00
    0    8    3     -1.14      0.00
    1    8    3      0.98      0.00
    2    8    3     -0.10      0.00
    3    8    3      1.72      0.00
    4    8    3     -4.23      0.00
    5    8    3      3.47      0.00
    6    8    3     -0.22      0.00
    7    8    3      0.27      0.00
    8    8    3     -2.57      0.00
    9    8    3      1.82      0.00
   10    8    3      0.03      0.00
   -9    9    3      1.20      0.00
   -8    9    3     -1.84      0.00
   -7    9    3      3.66      0.00
   -6    9    3     -5.38      0.00
   -5    9    3      5.31      0.00
   -4    9    3     -3.94      0.00
   -3    9    3      2.47      0.00
   -2    9    3     -1.37      0.00
   -1    9    3      0.59      0.00
    0    9    3     -0.14      0.00
    1    9    3     -0.23      0.00
    2    9    3      0.62      0.00
    3    9    3     -2.90      0.00
    4    9    3      4.20      0.00
    5    9    3     -2.05      0.00
    6    9    3     -0.98      0.00
    7    9    3      0.30      0.00
    8    9    3      1.38      0.00
    9    9    3     -0.43      0.00
   -8   10    3      1.13      0.00
   -7   10    3     -2.72      0.00
   -6   10    3      3.79      0.00
   -5   10    3     -3.04      0.00
   -4   10    3      2.10      0.00
   -3   10    3     -2.02      0.00
   -2   10    3      1.91      0.00
   -1   10    3     -1.72      0.00
    0   10    3      1.12      0.00
    1   10    3     -0.74      0.00
    2   10    3      0.02      0.00
    3   10    3      2.05      0.00
    4   10    3     -2.26      0.00
    5   10    3     -0.23      0.00
    6   10    3      2.06      0.00
    7   10    3     -0.76      0.00
    8   10    3     -0.40      0.00
   -7   11    3      1.18      0.00
   -6   11    3     -1.96      0.00
   -5   11    3      1.70      0.00
   -4   11    3     -1.63      0.00
   -3   11    3      2.30      0.00
   -2   11    3     -2.57      0.00
   -1   11    3      2.43      0.00
    0   11    3     -2.08      0.00
    1   11    3      2.24      0.00
    2   11    3     -1.41      0.00
    3   11    3     -0.38      0.00
    4   11    3      0.39      0.00
    5   11    3      1.31      0.00
    6   11    3     -1.91      0.00
    7   11    3      0.67      0.00
   -6   12    3      0.58      0.00
   -5   12    3     -0.92      0.00
   -4   12    3      1.77      0.00
   -3   12    3     -2.76      0.00
   -2   12    3      2.81      0.00
   -1   12    3     -2.43      0.00
    0   12    3      2.62      0.00
    1   12    3     -3.10      0.00
    2   12    3      2.43      0.00
    3   12    3     -1.10      0.00
    4   12    3      0.64      0.00
    5   12    3     -1.16      0.00
   -4   13    3     -1.19      0.00
   -3   13    3      2.06      0.00
   -2   13    3     -1.93      0.00
   -1   13    3      1.53      0.00
    0   13    3     -1.81      0.00
    1   13    3      2.03      0.00
    2   13    3     -1.90      0.00
    3   13    3      1.23      0.00
    1  -11    4     -1.05      0.00
    2  -11    4      1.17      0.00
   -3  -10    4     -0.19      0.00
   -2  -10    4     -0.03      0.00
   -1  -10    4      0.66      0.00
    0  -10    4     -1.89      0.00
    1  -10    4      3.05      0.00
    2  -10    4     -2.68      0.00
    3  -10    4      0.89      0.00
    4  -10    4     -0.79      0.00
   -4   -9    4     -0.59      0.00
   -3   -9    4      0.15      0.00
   -2   -9    4      0.46      0.00
   -1   -9    4     -1.55      0.00
    0   -9    4      4.00      0.00
    1   -9    4     -6.02      0.00
    2   -9    4      4.92      0.00
    3   -9    4     -1.91      0.00
    4   -9    4      1.19      0.00
   -5   -8    4     -0.68      0.00
   -4   -8    4      0.82      0.00
   -3   -8    4      0.41      0.00
   -2   -8    4     -0.98      0.00
   -1   -8    4      2.44      0.00
    0   -8    4     -6.02      0.00
    1   -8    4      8.45      0.00
    2   -8    4     -6.31      0.00
    3   -8    4      1.75      0.00
    4   -8    4     -0.44      0.00
   -6   -7    4     -0.74      0.00
   -5   -7    4      1.52      0.00
   -4   -7    4     -0.67      0.00
   -3   -7    4     -0.91      0.00
   -2   -7    4      0.74      0.00
   -1   -7    4     -2.41      0.00
    0   -7    4      6.63      0.00
    1   -7    4     -8.99      0.00
    2   -7    4      5.81      0.00
    3   -7    4     -0.17      0.00
    4   -7    4     -0.94      0.00
   -6   -6    4      1.69      0.00
   -5   -6    4     -2.32      0.00
   -4   -6    4      0.24      0.00
   -3   -6    4      0.83      0.00
   -2   -6    4      0.35      0.00
   -1   -6    4      0.86      0.00
    0   -6    4     -5.08      0.00
    1   -6    4      7.35      0.00
    2   -6    4     -3.57      0.00
    3   -6    4     -1.55      0.00
    4   -6    4      1.26      0.00
   -6   -5    4     -2.79      0.00
   -5   -5    4      2.97      0.00
   -4   -5    4     -0.24      0.00
   -3   -5    4      0.12      0.00
   -2   -5    4     -2.46      0.00
   -1   -5    4      2.81      0.00
    0   -5    4      1.37      0.00
    1   -5    4     -4.03      0.00
    2   -5    4      0.26      0.00
    3   -5    4      2.83      0.00
    4   -5    4     -0.61      0.00
    8   -5    4      0.28      0.00
    9   -5    4      0.11      0.00
   10   -5    4     -0.63      0.00
   -8   -4    4     -0.76      0.00
   -7   -4    4     -0.97      0.00
   -6   -4    4      3.91      0.00
   -5   -4    4     -3.45      0.00
   -4   -4    4      0.82      0.00
   -3   -4    4     -1.62      0.00
   -2   -4    4      5.89      0.00
   -1   -4    4     -8.39      0.00
    0   -4    4      3.58      0.00
    1   -4    4     -0.25      0.00
    2   -4    4      3.11      0.00
    3   -4    4     -3.07      0.00
    4   -4    4     -0.46      0.00
    5   -4    4      0.26      0.00
    6   -4    4      0.23      0.00
    7   -4    4      0.45      0.00
    8   -4    4     -1.44      0.00
    9   -4    4      0.55      0.00
   10   -4    4      0.35      0.00
   11   -4    4      0.93      0.00
   -9   -3    4      0.10      0.00
   -8   -3    4      0.21      0.00
   -7   -3    4      2.10      0.00
   -6   -3    4     -4.59      0.00
   -5   -3    4      3.55      0.00
   -4   -3    4     -1.14      0.00
   -3   -3    4      2.64      0.00
   -2   -3    4     -9.38      0.00
   -1   -3    4     12.77      0.00
    0   -3    4     -7.07      0.00
    1   -3    4      4.18      0.00
    2   -3    4     -5.50      0.00
    3   -3    4      1.49      0.00
    4   -3    4      1.96      0.00
    5   -3    4      1.87      0.00
    6   -3    4     -3.97      0.00
    7   -3    4      0.92      0.00
    8   -3    4      2.14      0.00
    9   -3    4     -1.13      0.00
   10   -3    4     -0.26      0.00
   11   -3    4     -1.03      0.00
   12   -3    4      1.45      0.00
  -10   -2    4      1.22      0.00
   -9   -2    4     -0.55      0.00
   -8   -2    4      0.39      0.00
   -7   -2    4     -2.53      0.00
   -6   -2    4      4.21      0.00
   -5   -2    4     -2.90      0.00
   -4   -2    4      0.33      0.00
   -3   -2    4     -2.43      0.00
   -2   -2    4     10.34      0.00
   -1   -2    4    -12.16      0.00
    0   -2    4      6.51      0.00
    1   -2    4     -6.33      0.00
    2   -2    4      6.60      0.00
    3   -2    4      0.43      0.00
    4   -2    4     -1.73      0.00
    5   -2    4     -6.50      0.00
    6   -2    4      9.55      0.00
    7   -2    4     -3.61      0.00
    8   -2    4     -1.27      0.00
    9   -2    4      0.51      0.00
   10   -2    4      1.40      0.00
   11   -2    4     -0.24      0.00
   12   -2    4     -0.82      0.00
  -10   -1    4     -1.98      0.00
   -9   -1    4      0.41      0.00
   -8   -1    4     -0.10      0.00
   -7   -1    4      1.58      0.00
   -6   -1    4     -2.72      0.00
   -5   -1    4      1.37      0.00
   -4   -1    4      1.06      0.00
   -3   -1    4      1.81      0.00
   -2   -1    4     -8.41      0.00
   -1   -1    4      7.48      0.00
    0   -1    4     -3.87      0.00
    1   -1    4      8.02      0.00
    2   -1    4     -7.84      0.00
    3   -1    4      0.24      0.00
    4   -1    4     -2.71      0.00
    5   -1    4     13.37      0.00
    6   -1    4    -14.66      0.00
    7   -1    4      6.17      0.00
    8   -1    4     -0.50      0.00
    9   -1    4      1.01      0.00
   10   -1    4     -3.31      0.00
   11   -1    4      1.96      0.00
   12   -1    4     -0.14      0.00
  -11    0    4     -1.57      0.00
  -10    0    4      1.69      0.00
   -9    0    4      0.46      0.00
   -8    0    4     -0.85      0.00
   -7    0    4     -0.21      0.00
   -6    0    4      1.20      0.00
   -5    0    4     -0.30      0.00
   -4    0    4     -0.20      0.00
   -3    0    4     -3.75      0.00
   -2    0    4      6.95      0.00
   -1    0    4     -3.61      0.00
    0    0    4      3.56      0.00
    1    0    4    -11.93      0.00
    2    0    4     10.93      0.00
    3    0    4     -4.01      0.00
    4    0    4      9.05      0.00
    5    0    4    -18.61      0.00
    6    0    4     16.42      0.00
    7    0    4     -6.86      0.00
    8    0    4      1.62      0.00
    9    0    4     -2.48      0.00
   10    0    4      4.61      0.00
   11    0    4     -2.52      0.00
   12    0    4      0.24      0.00
  -11    1    4      1.43      0.00
  -10    1    4     -0.47      0.00
   -9    1    4     -1.51      0.00
   -8    1    4      1.27      0.00
   -7    1    4      0.25      0.00
   -6    1    4     -1.39      0.00
   -5    1    4      1.85      0.00
   -4    1    4     -5.08      0.00
   -3    1    4      9.74      0.00
   -2    1    4     -8.47      0.00
   -1    1    4      2.45      0.00
    0    1    4     -4.96      0.00
    1    1    4     15.71      0.00
    2    1    4    -13.65      0.00
    3    1    4      7.37      0.00
    4    1    4    -11.98      0.00
    5    1    4     18.15      0.00
    6    1    4    -13.59      0.00
    7    1    4      5.19      0.00
    8    1    4     -1.78      0.00
    9    1    4      3.65      0.00
   10    1    4     -4.88      0.00
   11    1    4      1.92      0.00
   12    1    4      0.20      0.00
  -11    2    4     -0.96      0.00
  -10    2    4     -0.68      0.00
   -9    2    4      1.97      0.00
   -8    2    4     -0.26      0.00
   -7    2    4     -2.41      0.00
   -6    2    4      3.65      0.00
   -5    2    4     -5.59      0.00
   -4    2    4     11.58      0.00
   -3    2    4    -15.48      0.00
   -2    2    4     10.09      0.00
   -1    2    4     -1.03      0.00
    0    2    4      3.88      0.00
    1    2    4    -14.23      0.00
    2    2    4     11.41      0.00
    3    2    4     -6.20      0.00
    4    2    4      9.49      0.00
    5    2    4    -12.77      0.00
    6    2    4      8.13      0.00
    7    2    4     -2.61      0.00
    8    2    4      2.04      0.00
    9    2    4     -4.82      0.00
   10    2    4      4.54      0.00
   11    2    4     -1.25      0.00
   12    2    4     -0.08      0.00
  -11    3    4      0.54      0.00
  -10    3    4      1.16      0.00
   -9    3    4     -1.73      0.00
   -8    3    4     -1.52      0.00
   -7    3    4      4.93      0.00
   -6    3    4     -5.75      0.00
   -5    3    4      7.78      0.00
   -4    3    4    -13.32      0.00
   -3    3    4     15.11      0.00
   -2    3    4     -7.46      0.00
   -1    3    4     -2.62      0.00
    0    3    4     -0.23      0.00
    1    3    4      8.23      0.00
    2    3    4     -4.67      0.00
    3    3    4      0.92      0.00
    4    3    4     -4.24      0.00
    5    3    4      6.36      0.00
    6    3    4     -3.04      0.00
    7    3    4      0.79      0.00
    8    3    4     -2.93      0.00
    9    3    4      5.71      0.00
   10    3    4     -3.83      0.00
   11    3    4      0.72      0.00
   12    3    4     -0.37      0.00
  -11    4    4     -0.21      0.00
  -10    4    4     -1.21      0.00
   -9    4    4      1.34      0.00
   -8    4    4      2.44      0.00
   -7    4    4     -5.28      0.00
   -6    4    4      5.03      0.00
   -5    4    4     -5.58      0.00
   -4    4    4      8.74      0.00
   -3    4    4     -8.89      0.00
   -2    4    4      1.59      0.00
   -1    4    4      6.22      0.00
    0    4    4     -2.65      0.00
    1    4    4     -2.40      0.00
    2    4    4     -2.04      0.00
    3    4    4      4.55      0.00
    4    4    4     -0.29      0.00
    5    4    4     -1.64      0.00
    6    4    4     -0.22      0.00
    7    4    4     -0.04      0.00
    8    4    4      3.66      0.00
    9    4    4     -5.61      0.00
   10    4    4      2.77      0.00
   11    4    4     -0.01      0.00
   12    4    4      0.29      0.00
  -10    5    4      1.15      0.00
   -9    5    4     -1.09      0.00
   -8    5    4     -1.95      0.00
   -7    5    4      3.20      0.00
   -6    5    4     -1.74      0.00
   -5    5    4      0.64      0.00
   -4    5    4     -2.04      0.00
   -3    5    4      2.06      0.00
   -2    5    4      2.87      0.00
   -1    5    4     -6.52      0.00
    0    5    4      3.09      0.00
    1    5    4     -1.46      0.00
    2    5    4      6.58      0.00
    3    5    4     -7.97      0.00
    4    5    4      2.91      0.00
    5    5    4     -0.80      0.00
    6    5    4      1.43      0.00
    7    5    4      0.13      0.00
    8    5    4     -3.64      0.00
    9    5    4      4.38      0.00
   10    5    4     -1.49      0.00
   11    5    4     -0.50      0.00
  -10    6    4     -1.08      0.00
   -9    6    4      0.93      0.00
   -8    6    4      0.75      0.00
   -7    6    4     -0.40      0.00
   -6    6    4     -1.62      0.00
   -5    6    4      3.08      0.00
   -4    6    4     -1.88      0.00
   -3    6    4      1.48      0.00
   -2    6    4     -3.72      0.00
   -1    6    4      3.66      0.00
    0    6    4     -1.69      0.00
    1    6    4      3.18      0.00
    2    6    4     -8.36      0.00
    3    6    4      8.70      0.00
    4    6    4     -3.67      0.00
    5    6    4      1.39      0.00
    6    6    4     -1.22      0.00
    7    6    4     -0.78      0.00
    8    6    4      3.18      0.00
    9    6    4     -2.43      0.00
   10    6    4      0.04      0.00
   11    6    4      0.55      0.00
  -10    7    4      1.08      0.00
   -9    7    4     -0.92      0.00
   -8    7    4      0.54      0.00
   -7    7    4     -1.98      0.00
   -6    7    4      3.72      0.00
   -5    7    4     -4.04      0.00
   -4    7    4      2.02      0.00
   -3    7    4     -1.44      0.00
   -2    7    4      2.25      0.00
   -1    7    4     -0.70      0.00
    0    7    4      0.07      0.00
    1    7    4     -2.48      0.00
    2    7    4      6.50      0.00
    3    7    4     -6.18      0.00
    4    7    4      2.51      0.00
    5    7    4     -1.09      0.00
    6    7    4      1.01      0.00
    7    7    4      0.99      0.00
    8    7    4     -2.15      0.00
    9    7    4      0.16      0.00
   10    7    4      1.33      0.00
  -10    8    4     -0.99      0.00
   -9    8    4      0.96      0.00
   -8    8    4     -1.56      0.00
   -7    8    4      3.47      0.00
   -6    8    4     -4.44      0.00
   -5    8    4      3.29      0.00
   -4    8    4     -0.57      0.00
   -3    8    4     -0.16      0.00
   -2    8    4     -0.41      0.00
   -1    8    4     -0.38      0.00
    0    8    4      0.46      0.00
    1    8    4      0.91      0.00
    2    8    4     -2.98      0.00
    3    8    4      2.34      0.00
    4    8    4     -0.85      0.00
    5    8    4      1.21      0.00
    6    8    4     -1.73      0.00
    7    8    4     -0.06      0.00
    8    8    4      0.37      0.00
    9    8    4      1.64      0.00
   10    8    4     -1.74      0.00
   -9    9    4     -0.71      0.00
   -8    9    4      1.77      0.00
   -7    9    4     -3.55      0.00
   -6    9    4      3.54      0.00
   -5    9    4     -1.58      0.00
   -4    9    4     -0.73      0.00
   -3    9    4      1.15      0.00
   -2    9    4     -0.40      0.00
   -1    9    4      0.10      0.00
    0    9    4     -0.18      0.00
    1    9    4     -0.40      0.00
    2    9    4      1.18      0.00
    3    9    4     -0.58      0.00
    4    9    4      0.84      0.00
    5    9    4     -2.32      0.00
    6    9    4      2.73      0.00
    7    9    4     -1.10      0.00
    8    9    4      1.13      0.00
    9    9    4     -2.02      0.00
   -8   10    4     -1.15      0.00
   -7   10    4      2.50      0.00
   -6   10    4     -1.89      0.00
   -5   10    4     -0.17      0.00
   -4   10    4      1.32      0.00
   -3   10    4     -0.73      0.00
   -2   10    4     -0.35      0.00
   -1   10    4      0.87      0.00
    0   10    4     -0.61      0.00
    1   10    4      1.15      0.00
    2   10    4     -1.27      0.00
    3   10    4      0.80      0.00
    4   10    4     -1.76      0.00
    5   10    4      3.10      0.00
    6   10    4     -2.77      0.00
    7   10    4      1.20      0.00
    8   10    4     -1.21      0.00
   -7   11    4     -1.27      0.00
   -6   11    4      1.01      0.00
   -5   11    4      0.41      0.00
   -4   11    4     -0.66      0.00
   -3   11    4     -0.47      0.00
   -2   11    4      1.60      0.00
   -1   11    4     -2.01      0.00
    0   11    4      1.89      0.00
    1   11    4     -2.11      0.00
    2   11    4      1.27      0.00
    3   11    4     -0.55      0.00
    4   11    4      1.30      0.00
    5   11    4     -2.20      0.00
    6   11    4      1.61      0.00
    7   11    4     -0.39      0.00
   -6   12    4     -0.69      0.00
   -5   12    4      0.30      0.00
   -4   12    4     -0.44      0.00
   -3   12    4      0.97      0.00
   -2   12    4     -1.45      0.00
   -1   12    4      1.86      0.00
    0   12    4     -2.23      0.00
    1   12    4      1.95      0.00
    2   12    4     -0.47      0.00
    3   12    4     -0.47      0.00
    4   12    4      0.17      0.00
    5   12    4      0.56      0.00
    6   12    4     -0.36      0.00
   -4   13    4      0.45      0.00
   -3   13    4     -0.20      0.00
   -2   13    4     -0.04      0.00
   -1   13    4     -0.29      0.00
    0   13    4      0.94      0.00
    1   13    4     -0.71      0.00
    2   13    4     -0.11      0.00
    3   13    4      0.74      0.00
    4   13    4     -0.57      0.00
   -1   14    4     -0.62      0.00
    0   14    4      0.11      0.00
    1   14    4      0.06      0.00
    2   14    4     -0.16      0.00
   -1  -10    5     -0.24      0.00
    0  -10    5      0.37      0.00
    1  -10    5     -0.51      0.00
    2  -10    5      0.10      0.00
    3  -10    5      0.33      0.00
   -3   -9    5      0.08      0.00
   -2   -9    5     -0.38      0.00
   -1   -9    5      1.06      0.00
    0   -9    5     -1.57      0.00
    1   -9    5      1.24      0.00
    2   -9    5      0.12      0.00
    3   -9    5     -0.74      0.00
    4   -9    5      0.07      0.00
   -4   -8    5     -0.01      0.00
   -3   -8    5     -0.86      0.00
   -2   -8    5      1.30      0.00
   -1   -8    5     -2.59      0.00
    0   -8    5      3.28      0.00
    1   -8    5     -1.67      0.00
    2   -8    5     -1.24      0.00
    3   -8    5      2.21      0.00
    4   -8    5     -0.57      0.00
   -5   -7    5     -0.18      0.00
   -4   -7    5     -0.67      0.00
   -3   -7    5      1.77      0.00
   -2   -7    5     -2.03      0.00
   -1   -7    5      3.77      0.00
    0   -7    5     -4.05      0.00
    1   -7    5      0.85      0.00
    2   -7    5      3.52      0.00
    3   -7    5     -4.48      0.00
    4   -7    5      1.10      0.00
   -5   -6    5      0.13      0.00
   -4   -6    5      1.25      0.00
   -3   -6    5     -1.58      0.00
   -2   -6    5      1.43      0.00
   -1   -6    5     -3.10      0.00
    0   -6    5      2.81      0.00
    1   -6    5      1.07      0.00
    2   -6    5     -5.56      0.00
    3   -6    5      5.28      0.00
    4   -6    5     -0.34      0.00
    5   -6    5     -1.50      0.00
   -5   -5    5     -0.23      0.00
   -4   -5    5     -1.38      0.00
   -3   -5    5      0.54      0.00
   -2   -5    5      0.05      0.00
   -1   -5    5      1.16      0.00
    0   -5    5     -1.03      0.00
    1   -5    5     -2.49      0.00
    2   -5    5      5.77      0.00
    3   -5    5     -3.15      0.00
    4   -5    5     -2.17      0.00
    5   -5    5      2.75      0.00
    7   -5    5      0.72      0.00
    8   -5    5     -0.95      0.00
    9   -5    5      0.25      0.00
   10   -5    5     -0.30      0.00
   -7   -4    5      2.31      0.00
   -6   -4    5     -2.51      0.00
   -5   -4    5     -0.16      0.00
   -4   -4    5      1.69      0.00
   -3   -4    5      0.04      0.00
   -2   -4    5     -1.35      0.00
   -1   -4    5      0.01      0.00
    0   -4    5      1.27      0.00
    1   -4    5      1.74      0.00
    2   -4    5     -3.64      0.00
    3   -4    5     -0.89      0.00
    4   -4    5      4.72      0.00
    5   -4    5     -3.45      0.00
    6   -4    5      2.33      0.00
    7   -4    5     -2.12      0.00
    8   -4    5      1.97      0.00
    9   -4    5     -0.29      0.00
   10   -4    5      0.62      0.00
   11   -4    5     -1.04      0.00
   -9   -3    5     -0.26      0.00
   -8   -3    5      1.18      0.00
   -7   -3    5     -3.15      0.00
   -6   -3    5      2.02      0.00
   -5   -3    5      1.85      0.00
   -4   -3    5     -2.85      0.00
   -3   -3    5      0.08      0.00
   -2   -3    5      2.27      0.00
   -1   -3    5      0.45      0.00
    0   -3    5     -3.30      0.00
    1   -3    5      0.28      0.00
    2   -3    5      0.32      0.00
    3   -3    5      4.59      0.00
    4   -3    5     -4.86      0.00
    5   -3    5      1.42      0.00
    6   -3    5     -1.64      0.00
    7   -3    5      3.40      0.00
    8   -3    5     -2.90      0.00
    9   -3    5      0.26      0.00
   10   -3    5     -0.50      0.00
   11   -3    5      1.05      0.00
   -9   -2    5     -0.35      0.00
   -8   -2    5     -0.66      0.00
   -7   -2    5      1.82      0.00
   -6   -2    5      0.47      0.00
   -5   -2    5     -4.29      0.00
   -4   -2    5      4.45      0.00
   -3   -2    5     -0.24      0.00
   -2   -2    5     -2.49      0.00
   -1   -2    5     -2.14      0.00
    0   -2    5      4.79      0.00
    1   -2    5     -1.02      0.00
    2   -2    5      1.63      0.00
    3   -2    5     -5.51      0.00
    4   -2    5      1.52      0.00
    5   -2    5      3.46      0.00
    6   -2    5     -0.69      0.00
    7   -2    5     -3.93      0.00
    8   -2    5      3.44      0.00
    9   -2    5     -0.21      0.00
   10   -2    5     -0.09      0.00
   11   -2    5     -0.68      0.00
   12   -2    5     -0.11      0.00
  -10   -1    5     -0.40      0.00
   -9   -1    5      1.60      0.00
   -8   -1    5     -0.76      0.00
   -7   -1    5      0.46      0.00
   -6   -1    5     -2.98      0.00
   -5   -1    5      5.98      0.00
   -4   -1    5     -5.11      0.00
   -3   -1    5     -0.23      0.00
   -2   -1    5      1.80      0.00
   -1   -1    5      3.90      0.00
    0   -1    5     -4.50      0.00
    1   -1    5     -0.26      0.00
    2   -1    5     -0.87      0.00
    3   -1    5      2.46      0.00
    4   -1    5      4.18      0.00
    5   -1    5     -8.25      0.00
    6   -1    5      2.37      0.00
    7   -1    5      4.13      0.00
    8   -1    5     -3.67      0.00
    9   -1    5      0.09      0.00
   10   -1    5      0.71      0.00
   11   -1    5      0.51      0.00
   12   -1    5     -0.17      0.00
  -10    0    5      1.22      0.00
   -9    0    5     -2.67      0.00
   -8    0    5      1.82      0.00
   -7    0    5     -1.68      0.00
   -6    0    5      3.70      0.00
   -5    0    5     -5.59      0.00
   -4    0    5      3.56      0.00
   -3    0    5      1.42      0.00
   -2    0    5     -0.60      0.00
   -1    0    5     -4.56      0.00
    0    0    5      2.56      0.00
    1    0    5      2.62      0.00
    2    0    5     -1.64      0.00
    3    0    5      2.64      0.00
    4    0    5     -9.24      0.00
    5    0    5     10.03      0.00
    6    0    5     -1.83      0.00
    7    0    5     -4.41      0.00
    8    0    5      3.51      0.00
    9    0    5      0.31      0.00
   10    0    5     -0.83      0.00
   11    0    5     -0.87      0.00
   12    0    5      0.47      0.00
  -10    1    5     -1.85      0.00
   -9    1    5      2.84      0.00
   -8    1    5     -1.46      0.00
   -7    1    5      0.79      0.00
   -6    1    5     -2.21      0.00
   -5    1    5      2.82      0.00
   -4    1    5     -0.10      0.00
   -3    1    5     -2.07      0.00
   -2    1    5     -1.89      0.00
   -1    1    5      5.45      0.00
    0    1    5     -0.58      0.00
    1    1    5     -5.02      0.00
    2    1    5      4.21      0.00
    3    1    5     -6.34      0.00
    4    1    5     10.81      0.00
    5    1    5     -8.39      0.00
    6    1    5      0.06      0.00
    7    1    5      4.19      0.00
    8    1    5     -2.29      0.00
    9    1    5     -1.38      0.00
   10    1    5      0.61      0.00
   11    1    5      1.23      0.00
   12    1    5     -0.50      0.00
  -10    2    5      2.09      0.00
   -9    2    5     -2.03      0.00
   -8    2    5     -0.38      0.00
   -7    2    5      1.53      0.00
   -6    2    5     -0.31      0.00
   -5    2    5      0.64      0.00
   -4    2    5     -2.76      0.00
   -3    2    5      0.42      0.00
   -2    2    5      6.79      0.00
   -1    2    5     -8.64      0.00
    0    2    5      0.52      0.00
    1    2    5      5.91      0.00
    2    2    5     -5.07      0.00
    3    2    5      6.58      0.00
    4    2    5     -8.59      0.00
    5    2    5      4.88      0.00
    6    2    5      1.46      0.00
    7    2    5     -3.04      0.00
    8    2    5     -0.10      0.00
    9    2    5      2.82      0.00
   10    2    5     -0.48      0.00
   11    2    5     -0.98      0.00
   12    2    5      0.15      0.00
  -10    3    5     -1.76      0.00
   -9    3    5      0.60      0.00
   -8    3    5      2.60      0.00
   -7    3    5     -3.46      0.00
   -6    3    5      1.75      0.00
   -5    3    5     -1.88      0.00
   -4    3    5      2.37      0.00
   -3    3    5      3.52      0.00
   -2    3    5    -12.32      0.00
   -1    3    5     12.01      0.00
    0    3    5     -1.34      0.00
    1    3    5     -4.75      0.00
    2    3    5      3.30      0.00
    3    3    5     -3.92      0.00
    4    3    5      4.89      0.00
    5    3    5     -1.70      0.00
    6    3    5     -1.93      0.00
    7    3    5      1.16      0.00
    8    3    5      2.75      0.00
    9    3    5     -3.61      0.00
   10    3    5      0.21      0.00
   11    3    5      0.49      0.00
   12    3    5      0.24      0.00
  -10    4    5      1.03      0.00
   -9    4    5      0.73      0.00
   -8    4    5     -3.76      0.00
   -7    4    5      3.59      0.00
   -6    4    5     -1.02      0.00
   -5    4    5      0.07      0.00
   -4    4    5      0.70      0.00
   -3    4    5     -7.19      0.00
   -2    4    5     14.65      0.00
   -1    4    5    -11.38      0.00
    0    4    5      0.36      0.00
    1    4    5      3.23      0.00
    2    4    5     -0.57      0.00
    3    4    5      1.13      0.00
    4    4    5     -2.75      0.00
    5    4    5      0.79      0.00
    6    4    5      0.78      0.00
    7    4    5      1.30      0.00
    8    4    5     -4.85      0.00
    9    4    5      3.47      0.00
   10    4    5      0.29      0.00
   11    4    5     -0.34      0.00
  -10    5    5     -0.46      0.00
   -9    5    5     -1.35      0.00
   -8    5    5      3.37      0.00
   -7    5    5     -2.23      0.00
   -6    5    5     -0.61      0.00
   -5    5    5      2.18      0.00
   -4    5    5     -2.88      0.00
   -3    5    5      7.44      0.00
   -2    5    5    -11.38      0.00
   -1    5    5      5.90      0.00
    0    5    5      2.46      0.00
    1    5    5     -2.63      0.00
    2    5    5     -0.85      0.00
    3    5    5     -0.60      0.00
    4    5    5      3.49      0.00
    5    5    5     -2.47      0.00
    6    5    5      1.55      0.00
    7    5    5     -3.57      0.00
    8    5    5      5.70      0.00
    9    5    5     -2.75      0.00
   10    5    5     -0.51      0.00
   11    5    5      0.16      0.00
  -10    6    5      0.26      0.00
   -9    6    5      1.32      0.00
   -8    6    5     -2.21      0.00
   -7    6    5      0.83      0.00
   -6    6    5      1.12      0.00
   -5    6    5     -2.00      0.00
   -4    6    5      1.84      0.00
   -3    6    5     -3.82      0.00
   -2    6    5      4.02      0.00
   -1    6    5      1.46      0.00
    0    6    5     -5.04      0.00
    1    6    5      2.30      0.00
    2    6    5      1.22      0.00
    3    6    5      1.41      0.00
    4    6    5     -5.17      0.00
    5    6    5      4.47      0.00
    6    6    5     -3.07      0.00
    7    6    5      4.04      0.00
    8    6    5     -4.26      0.00
    9    6    5      1.01      0.00
   10    6    5      0.65      0.00
   11    6    5      0.24      0.00
  -10    7    5     -0.20      0.00
   -9    7    5     -1.11      0.00
   -8    7    5      1.16      0.00
   -7    7    5     -0.15      0.00
   -6    7    5     -0.16      0.00
   -5    7    5     -0.46      0.00
   -4    7    5      1.20      0.00
   -3    7    5     -0.57      0.00
   -2    7    5      2.28      0.00
   -1    7    5     -6.07      0.00
    0    7    5      5.69      0.00
    1    7    5     -1.39      0.00
    2    7    5     -1.81      0.00
    3    7    5     -1.25      0.00
    4    7    5      4.82      0.00
    5    7    5     -4.05      0.00
    6    7    5      2.26      0.00
    7    7    5     -2.22      0.00
    8    7    5      0.82      0.00
    9    7    5      1.69      0.00
   10    7    5     -1.22      0.00
   11    7    5     -0.29      0.00
   -9    8    5      0.90      0.00
   -8    8    5     -0.44      0.00
   -7    8    5     -0.03      0.00
   -6    8    5     -1.13      0.00
   -5    8    5      2.92      0.00
   -4    8    5     -3.63      0.00
   -3    8    5      2.79      0.00
   -2    8    5     -3.89      0.00
   -1    8    5      5.65      0.00
    0    8    5     -4.03      0.00
    1    8    5      0.00      0.00
    2    8    5      2.45      0.00
    3    8    5      0.13      0.00
    4    8    5     -2.48      0.00
    5    8    5      1.67      0.00
    6    8    5     -0.32      0.00
    7    8    5     -0.08      0.00
    8    8    5      2.11      0.00
    9    8    5     -3.38      0.00
   10    8    5      1.54      0.00
   -9    9    5     -0.55      0.00
   -8    9    5     -0.08      0.00
   -7    9    5     -0.05      0.00
   -6    9    5      2.02      0.00
   -5    9    5     -3.95      0.00
   -4    9    5      4.07      0.00
   -3    9    5     -2.55      0.00
   -2    9    5      2.24      0.00
   -1    9    5     -2.76      0.00
    0    9    5      1.70      0.00
    1    9    5      1.13      0.00
    2    9    5     -2.27      0.00
    3    9    5      0.41      0.00
    4    9    5      0.62      0.00
    5    9    5     -0.06      0.00
    6    9    5     -0.53      0.00
    7    9    5      0.98      0.00
    8    9    5     -2.67      0.00
    9    9    5      2.73      0.00
   -8   10    5      0.43      0.00
   -7   10    5      0.10      0.00
   -6   10    5     -2.26      0.00
   -5   10    5      3.62      0.00
   -4   10    5     -2.75      0.00
   -3   10    5      0.78      0.00
   -2   10    5     -0.01      0.00
   -1   10    5      0.55      0.00
    0   10    5     -0.39      0.00
    1   10    5     -1.14      0.00
    2   10    5      0.98      0.00
    3   10    5      0.19      0.00
    4   10    5     -0.37      0.00
    5   10    5      0.01      0.00
    6   10    5      0.19      0.00
    7   10    5     -0.63      0.00
    8   10    5      1.64      0.00
    9   10    5     -1.11      0.00
   -7   11    5      0.09      0.00
   -6   11    5      1.56      0.00
   -5   11    5     -2.40      0.00
   -4   11    5      0.93      0.00
   -3   11    5      1.07      0.00
   -2   11    5     -1.71      0.00
   -1   11    5      0.79      0.00
    0   11    5     -0.10      0.00
    1   11    5      0.04      0.00
    2   11    5      1.00      0.00
    3   11    5     -1.41      0.00
    4   11    5      0.87      0.00
    5   11    5     -0.17      0.00
    6   11    5      0.03      0.00
    7   11    5      0.16      0.00
    8   11    5     -0.61      0.00
   -6   12    5     -0.45      0.00
   -5   12    5      0.93      0.00
   -4   12    5      0.13      0.00
   -3   12    5     -1.45      0.00
   -2   12    5      2.13      0.00
   -1   12    5     -1.48      0.00
    0   12    5      0.30      0.00
    1   12    5      1.18      0.00
    2   12    5     -2.45      0.00
    3   12    5      2.25      0.00
    4   12    5     -1.10      0.00
    5   12    5     -0.07      0.00
    6   12    5      0.09      0.00
   -5   13    5     -0.01      0.00
   -4   13    5     -0.25      0.00
   -3   13    5      0.63      0.00
   -2   13    5     -1.29      0.00
   -1   13    5      1.20      0.00
    0   13    5     -0.21      0.00
    1   13    5     -1.44      0.00
    2   13    5      2.18      0.00
    3   13    5     -1.81      0.00
    4   13    5      0.69      0.00
    5   13    5      0.20      0.00
   -2   14    5      0.46      0.00
   -1   14    5     -0.62      0.00
    0   14    5      0.16      0.00
    1   14    5      0.67      0.00
    2   14    5     -0.76      0.00
   -2   -9    6      0.57      0.00
   -1   -9    6     -0.58      0.00
    0   -9    6      0.51      0.00
    1   -9    6     -0.35      0.00
    2   -9    6     -0.49      0.00
    3   -9    6      0.50      0.00
    4   -9    6     -0.24      0.00
   -3   -8    6      0.75      0.00
   -2   -8    6     -1.03      0.00
   -1   -8    6      1.09      0.00
    0   -8    6     -0.46      0.00
    1   -8    6     -0.73      0.00
    2   -8    6      1.82      0.00
    3   -8    6     -1.18      0.00
    4   -8    6      0.23      0.00
   -4   -7    6      0.62      0.00
   -3   -7    6     -1.17      0.00
   -2   -7    6      1.18      0.00
   -1   -7    6     -1.36      0.00
    0   -7    6     -0.10      0.00
    1   -7    6      2.26      0.00
    2   -7    6     -2.92      0.00
    3   -7    6      0.81      0.00
    4   -7    6      1.22      0.00
    5   -7    6     -0.63      0.00
   -5   -6    6      0.02      0.00
   -4   -6    6     -1.26      0.00
   -3   -6    6      1.22      0.00
   -2   -6    6     -0.96      0.00
   -1   -6    6      1.23      0.00
    0   -6    6      0.62      0.00
    1   -6    6     -2.72      0.00
    2   -6    6      2.25      0.00
    3   -6    6      1.54      0.00
    4   -6    6     -3.94      0.00
    5   -6    6      1.85      0.00
    6   -6    6     -0.05      0.00
   -5   -5    6     -0.42      0.00
   -4   -5    6      1.57      0.00
   -3   -5    6     -0.60      0.00
   -2   -5    6      0.31      0.00
   -1   -5    6     -0.69      0.00
    0   -5    6     -0.56      0.00
    1   -5    6      1.39      0.00
    2   -5    6      0.89      0.00
    3   -5    6     -5.83      0.00
    4   -5    6      6.96      0.00
    5   -5    6     -3.11      0.00
    6   -5    6      0.81      0.00
    7   -5    6     -0.48      0.00
    8   -5    6      0.65      0.00
    9   -5    6     -0.22      0.00
   -7   -4    6     -1.31      0.00
   -6   -4    6      0.48      0.00
   -5   -4    6      1.34      0.00
   -4   -4    6     -1.40      0.00
   -3   -4    6     -0.30      0.00
   -2   -4    6      0.26      0.00
   -1   -4    6      0.88      0.00
    0   -4    6     -0.89      0.00
    1   -4    6      1.41      0.00
    2   -4    6     -5.51      0.00
    3   -4    6     10.55      0.00
    4   -4    6     -9.16      0.00
    5   -4    6      4.22      0.00
    6   -4    6     -2.01      0.00
    7   -4    6      1.53      0.00
    8   -4    6     -0.95      0.00
    9   -4    6      0.18      0.00
   10   -4    6     -1.08      0.00
   -8   -3    6     -1.01      0.00
   -7   -3    6      1.38      0.00
   -6   -3    6      0.80      0.00
   -5   -3    6     -2.51      0.00
   -4   -3    6      0.80      0.00
   -3   -3    6      1.27      0.00
   -2   -3    6     -0.37      0.00
   -1   -3    6     -2.60      0.00
    0   -3    6      3.50      0.00
    1   -3    6     -4.40      0.00
    2   -3    6      9.39      0.00
    3   -3    6    -12.84      0.00
    4   -3    6      8.60      0.00
    5   -3    6     -4.15      0.00
    6   -3    6      3.15      0.00
    7   -3    6     -2.67      0.00
    8   -3    6      0.91      0.00
    9   -3    6      0.04      0.00
   10   -3    6      1.20      0.00
   11   -3    6     -0.29      0.00
   -9   -2    6      0.23      0.00
   -8   -2    6      0.43      0.00
   -7   -2    6      0.15      0.00
   -6   -2    6     -2.80      0.00
   -5   -2    6      2.92      0.00
   -4   -2    6      0.48      0.00
   -3   -2    6     -2.79      0.00
   -2   -2    6      0.69      0.00
   -1   -2    6      3.88      0.00
    0   -2    6     -4.32      0.00
    1   -2    6      5.03      0.00
    2   -2    6    -10.16      0.00
    3   -2    6     11.06      0.00
    4   -2    6     -4.78      0.00
    5   -2    6      2.43      0.00
    6   -2    6     -4.15      0.00
    7   -2    6      4.14      0.00
    8   -2    6     -1.34      0.00
    9   -2    6      0.21      0.00
   10   -2    6     -1.30      0.00
   11   -2    6      0.52      0.00
   -9   -1    6     -0.59      0.00
   -8   -1    6      0.17      0.00
   -7   -1    6     -1.58      0.00
   -6   -1    6      3.52      0.00
   -5   -1    6     -1.47      0.00
   -4   -1    6     -3.06      0.00
   -3   -1    6      5.45      0.00
   -2   -1    6     -2.13      0.00
   -1   -1    6     -2.38      0.00
    0   -1    6      1.30      0.00
    1   -1    6     -1.89      0.00
    2   -1    6      7.00      0.00
    3   -1    6     -6.36      0.00
    4   -1    6      0.50      0.00
    5   -1    6     -1.29      0.00
    6   -1    6      5.92      0.00
    7   -1    6     -6.29      0.00
    8   -1    6      2.72      0.00
    9   -1    6     -1.07      0.00
   10   -1    6      1.92      0.00
   11   -1    6     -1.56      0.00
   12   -1    6      0.34      0.00
   -9    0    6      0.40      0.00
   -8    0    6      0.31      0.00
   -7    0    6      1.27      0.00
   -6    0    6     -2.07      0.00
   -5    0    6     -1.56      0.00
   -4    0    6      6.51      0.00
   -3    0    6     -8.16      0.00
   -2    0    6      3.71      0.00
   -1    0    6     -0.58      0.00
    0    0    6      2.97      0.00
    1    0    6     -2.42      0.00
    2    0    6     -2.05      0.00
    3    0    6      1.44      0.00
    4    0    6      1.38      0.00
    5    0    6      2.48      0.00
    6    0    6     -8.36      0.00
    7    0    6      8.15      0.00
    8    0    6     -3.89      0.00
    9    0    6      1.65      0.00
   10    0    6     -2.60      0.00
   11    0    6      2.39      0.00
   12    0    6     -0.79      0.00
  -10    1    6      0.44      0.00
   -9    1    6      0.49      0.00
   -8    1    6     -1.86      0.00
   -7    1    6      0.40      0.00
   -6    1    6     -0.12      0.00
   -5    1    6      4.15      0.00
   -4    1    6     -8.32      0.00
   -3    1    6      7.83      0.00
   -2    1    6     -2.70      0.00
   -1    1    6      1.80      0.00
    0    1    6     -5.31      0.00
    1    1    6      4.98      0.00
    2    1    6     -1.58      0.00
    3    1    6      1.59      0.00
    4    1    6     -1.10      0.00
    5    1    6     -4.28      0.00
    6    1    6      9.16      0.00
    7    1    6     -7.59      0.00
    8    1    6      2.96      0.00
    9    1    6     -1.06      0.00
   10    1    6      2.59      0.00
   11    1    6     -2.06      0.00
   12    1    6      0.55      0.00
  -10    2    6     -0.26      0.00
   -9    2    6     -1.66      0.00
   -8    2    6      3.41      0.00
   -7    2    6     -1.64      0.00
   -6    2    6      0.96      0.00
   -5    2    6     -4.31      0.00
   -4    2    6      6.47      0.00
   -3    2    6     -3.08      0.00
   -2    2    6     -1.47      0.00
   -1    2    6     -1.29      0.00
    0    2    6      6.92      0.00
    1    2    6     -6.74      0.00
    2    2    6      3.66      0.00
    3    2    6     -2.81      0.00
    4    2    6      0.63      0.00
    5    2    6      4.24      0.00
    6    2    6     -6.84      0.00
    7    2    6      4.04      0.00
    8    2    6      0.17      0.00
    9    2    6     -0.29      0.00
   10    2    6     -2.01      0.00
   11    2    6      1.11      0.00
   12    2    6     -0.21      0.00
  -10    3    6     -0.01      0.00
   -9    3    6      2.40      0.00
   -8    3    6     -3.82      0.00
   -7    3    6      1.30      0.00
   -6    3    6      0.13      0.00
   -5    3    6      2.23      0.00
   -4    3    6     -2.43      0.00
   -3    3    6     -2.71      0.00
   -2    3    6      4.92      0.00
   -1    3    6      2.32      0.00
    0    3    6     -9.92      0.00
    1    3    6      9.04      0.00
    2    3    6     -5.27      0.00
    3    3    6      3.66      0.00
    4    3    6     -1.37      0.00
    5    3    6     -2.12      0.00
    6    3    6      2.68      0.00
    7    3    6      0.53      0.00
    8    3    6     -3.37      0.00
    9    3    6      0.99      0.00
   10    3    6      1.52      0.00
   11    3    6     -0.37      0.00
  -10    4    6      0.27      0.00
   -9    4    6     -2.46      0.00
   -8    4    6      3.18      0.00
   -7    4    6     -0.26      0.00
   -6    4    6     -1.63      0.00
   -5    4    6     -0.06      0.00
   -4    4    6     -0.37      0.00
   -3    4    6      4.93      0.00
   -2    4    6     -3.75      0.00
   -1    4    6     -6.29      0.00
    0    4    6     12.93      0.00
    1    4    6    -10.05      0.00
    2    4    6      5.69      0.00
    3    4    6     -4.53      0.00
    4    4    6      3.15      0.00
    5    4    6     -0.76      0.00
    6    4    6      1.20      0.00
    7    4    6     -4.04      0.00
    8    4    6      4.84      0.00
    9    4    6     -0.50      0.00
   10    4    6     -1.26      0.00
   11    4    6     -0.13      0.00
   -9    5    6      2.14      0.00
   -8    5    6     -2.40      0.00
   -7    5    6     -0.01      0.00
   -6    5    6      1.72      0.00
   -5    5    6     -0.38      0.00
   -4    5    6      0.27      0.00
   -3    5    6     -2.52      0.00
   -2    5    6     -1.45      0.00
   -1    5    6     10.62      0.00
    0    5    6    -13.16      0.00
    1    5    6      8.16      0.00
    2    5    6     -4.41      0.00
    3    5    6      5.29      0.00
    4    5    6     -5.19      0.00
    5    5    6      3.13      0.00
    6    5    6     -3.51      0.00
    7    5    6      5.63      0.00
    8    5    6     -4.54      0.00
    9    5    6     -0.30      0.00
   10    5    6      0.72      0.00
   11    5    6      0.71      0.00
   -9    6    6     -1.61      0.00
   -8    6    6      1.72      0.00
   -7    6    6     -0.46      0.00
   -6    6    6     -0.56      0.00
   -5    6    6     -0.50      0.00
   -4    6    6      1.37      0.00
   -3    6    6     -1.81      0.00
   -2    6    6      6.83      0.00
   -1    6    6    -12.03      0.00
    0    6    6      9.87      0.00
    1    6    6     -4.19      0.00
    2    6    6      2.49      0.00
    3    6    6     -6.14      0.00
    4    6    6      6.78      0.00
    5    6    6     -4.12      0.00
    6    6    6      3.69      0.00
    7    6    6     -5.07      0.00
    8    6    6      3.07      0.00
    9    6    6      0.57      0.00
   10    6    6      0.24      0.00
   11    6    6     -1.16      0.00
   -9    7    6      0.97      0.00
   -8    7    6     -0.90      0.00
   -7    7    6      0.65      0.00
   -6    7    6     -0.55      0.00
   -5    7    6      1.23      0.00
   -4    7    6     -2.23      0.00
   -3    7    6      4.35      0.00
   -2    7    6     -8.76      0.00
   -1    7    6      9.64      0.00
    0    7    6     -4.57      0.00
    1    7    6     -0.42      0.00
    2    7    6     -0.49      0.00
    3    7    6      6.13      0.00
    4    7    6     -6.61      0.00
    5    7    6      3.17      0.00
    6    7    6     -2.03      0.00
    7    7    6      2.89      0.00
    8    7    6     -1.21      0.00
    9    7    6     -0.22      0.00
   10    7    6     -1.17      0.00
   -9    8    6     -0.42      0.00
   -8    8    6      0.09      0.00
   -7    8    6     -0.48      0.00
   -6    8    6      1.22      0.00
   -5    8    6     -1.48      0.00
   -4    8    6      1.75      0.00
   -3    8    6     -3.61      0.00
   -2    8    6      6.46      0.00
   -1    8    6     -5.10      0.00
    0    8    6     -0.37      0.00
    1    8    6      4.11      0.00
    2    8    6     -1.39      0.00
    3    8    6     -4.27      0.00
    4    8    6      4.06      0.00
    5    8    6     -0.85      0.00
    6    8    6     -0.04      0.00
    7    8    6     -0.79      0.00
    8    8    6      0.20      0.00
    9    8    6     -0.59      0.00
   10    8    6      1.52      0.00
   -8    9    6      0.36      0.00
   -7    9    6      0.37      0.00
   -6    9    6     -1.51      0.00
   -5    9    6      1.33      0.00
   -4    9    6     -0.55      0.00
   -3    9    6      1.03      0.00
   -2    9    6     -2.43      0.00
   -1    9    6      1.08      0.00
    0    9    6      3.04      0.00
    1    9    6     -5.24      0.00
    2    9    6      1.86      0.00
    3    9    6      2.07      0.00
    4    9    6     -1.28      0.00
    5    9    6     -0.76      0.00
    6    9    6      0.90      0.00
    7    9    6      0.09      0.00
    8    9    6     -0.50      0.00
    9    9    6      1.39      0.00
   -8   10    6     -0.56      0.00
   -7   10    6     -0.19      0.00
   -6   10    6      1.13      0.00
   -5   10    6     -0.31      0.00
   -4   10    6     -1.28      0.00
   -3   10    6      1.61      0.00
   -2   10    6     -0.54      0.00
   -1   10    6      0.64      0.00
    0   10    6     -2.81      0.00
    1   10    6      3.47      0.00
    2   10    6     -0.50      0.00
    3   10    6     -1.24      0.00
    4   10    6      0.25      0.00
    5   10    6      0.80      0.00
    6   10    6     -0.55      0.00
    7   10    6     -0.40      0.00
    8   10    6      1.08      0.00
    9   10    6     -1.44      0.00
   -7   11    6     -0.23      0.00
   -6   11    6     -0.26      0.00
   -5   11    6     -1.01      0.00
   -4   11    6      2.91      0.00
   -3   11    6     -3.18      0.00
   -2   11    6      1.71      0.00
   -1   11    6     -0.29      0.00
    0   11    6      0.55      0.00
    1   11    6     -0.29      0.00
    2   11    6     -1.15      0.00
    3   11    6      0.91      0.00
    4   11    6      0.28      0.00
    5   11    6     -0.92      0.00
    6   11    6      0.38      0.00
    7   11    6      0.47      0.00
    8   11    6     -0.89      0.00
   -6   12    6     -0.34      0.00
   -5   12    6      1.34      0.00
   -4   12    6     -2.79      0.00
   -3   12    6      2.96      0.00
   -2   12    6     -1.68      0.00
   -1   12    6     -0.51      0.00
    0   12    6      1.56      0.00
    1   12    6     -1.91      0.00
    2   12    6      1.39      0.00
    3   12    6      0.17      0.00
    4   12    6     -1.55      0.00
    5   12    6      1.85      0.00
    6   12    6     -0.82      0.00
   -5   13    6     -0.79      0.00
   -4   13    6      1.41      0.00
   -3   13    6     -1.74      0.00
   -2   13    6      1.32      0.00
   -1   13    6      0.44      0.00
    0   13    6     -1.67      0.00
    1   13    6      1.70      0.00
    2   13    6     -0.28      0.00
    3   13    6     -1.15      0.00
    4   13    6      2.11      0.00
    5   13    6     -1.89      0.00
   -2   14    6     -0.99      0.00
   -1   14    6      0.16      0.00
    0   14    6      0.56      0.00
    1   14    6     -0.40      0.00
    2   14    6     -0.51      0.00
   -2   -8    7      0.78      0.00
   -1   -8    7     -1.03      0.00
    0   -8    7      1.34      0.00
    1   -8    7     -0.64      0.00
    2   -8    7     -0.05      0.00
    3   -8    7     -0.41      0.00
    4   -8    7      0.09      0.00
   -3   -7    7      1.13      0.00
   -2   -7    7     -0.95      0.00
   -1   -7    7      1.07      0.00
    0   -7    7     -0.88      0.00
    1   -7    7      0.31      0.00
    2   -7    7     -0.72      0.00
    3   -7    7      1.76      0.00
    4   -7    7     -1.07      0.00
    5   -7    7      0.05      0.00
   -4   -6    7      1.04      0.00
   -3   -6    7     -0.93      0.00
   -2   -6    7      0.65      0.00
   -1   -6    7     -0.89      0.00
    0   -6    7      0.41      0.00
    1   -6    7     -0.69      0.00
    2   -6    7      2.58      0.00
    3   -6    7     -4.05      0.00
    4   -6    7      2.44      0.00
    5   -6    7     -0.28      0.00
    6   -6    7      0.07      0.00
   -4   -5    7     -1.43      0.00
   -3   -5    7      0.41      0.00
   -2   -5    7     -0.62      0.00
   -1   -5    7      1.26      0.00
    0   -5    7     -1.17      0.00
    1   -5    7      2.50      0.00
    2   -5    7     -5.07      0.00
    3   -5    7      5.89      0.00
    4   -5    7     -2.54      0.00
    5   -5    7     -0.35      0.00
    6   -5    7      0.15      0.00
    7   -5    7      0.52      0.00
    8   -5    7     -0.75      0.00
    9   -5    7      0.28      0.00
   -6   -4    7      0.36      0.00
   -5   -4    7     -1.54      0.00
   -4   -4    7      1.02      0.00
   -3   -4    7      0.34      0.00
   -2   -4    7      0.70      0.00
   -1   -4    7     -1.90      0.00
    0   -4    7      2.52      0.00
    1   -4    7     -4.53      0.00
    2   -4    7      6.85      0.00
    3   -4    7     -5.83      0.00
    4   -4    7      0.46      0.00
    5   -4    7      2.23      0.00
    6   -4    7     -1.18      0.00
    7   -4    7      0.00      0.00
    8   -4    7     -0.09      0.00
    9   -4    7      0.12      0.00
   10   -4    7      0.56      0.00
   -7   -3    7     -0.09      0.00
   -6   -3    7     -1.22      0.00
   -5   -3    7      1.27      0.00
   -4   -3    7      0.94      0.00
   -3   -3    7     -1.65      0.00
   -2   -3    7     -0.46      0.00
   -1   -3    7      2.18      0.00
    0   -3    7     -2.78      0.00
    1   -3    7      4.71      0.00
    2   -3    7     -6.37      0.00
    3   -3    7      3.37      0.00
    4   -3    7      2.71      0.00
    5   -3    7     -4.02      0.00
    6   -3    7      2.23      0.00
    7   -3    7     -0.88      0.00
    8   -3    7      1.35      0.00
    9   -3    7     -0.65      0.00
   10   -3    7     -0.58      0.00
   11   -3    7     -0.08      0.00
   -8   -2    7     -0.77      0.00
   -7   -2    7      0.26      0.00
   -6   -2    7      0.53      0.00
   -5   -2    7      1.49      0.00
   -4   -2    7     -4.21      0.00
   -3   -2    7      3.50      0.00
   -2   -2    7     -0.15      0.00
   -1   -2    7     -1.63      0.00
    0   -2    7      1.22      0.00
    1   -2    7     -2.85      0.00
    2   -2    7      4.05      0.00
    3   -2    7      0.20      0.00
    4   -2    7     -5.00      0.00
    5   -2    7      3.90      0.00
    6   -2    7     -1.68      0.00
    7   -2    7      0.95      0.00
    8   -2    7     -1.72      0.00
    9   -2    7      0.58      0.00
   10   -2    7      0.49      0.00
   11   -2    7      0.08      0.00
   -8   -1    7      1.39      0.00
   -7   -1    7     -1.03      0.00
   -6   -1    7      2.03      0.00
   -5   -1    7     -5.69      0.00
   -4   -1    7      7.36      0.00
   -3   -1    7     -5.15      0.00
   -2   -1    7      0.95      0.00
   -1   -1    7     -0.12      0.00
    0   -1    7      1.85      0.00
    1   -1    7      0.05      0.00
    2   -1    7     -1.59      0.00
    3   -1    7     -2.68      0.00
    4   -1    7      5.24      0.00
    5   -1    7     -1.91      0.00
    6   -1    7     -0.43      0.00
    7   -1    7     -0.09      0.00
    8   -1    7      1.22      0.00
    9   -1    7     -0.10      0.00
   10   -1    7     -0.67      0.00
   11   -1    7      0.06      0.00
   -9    0    7      1.11      0.00
   -8    0    7     -2.08      0.00
   -7    0    7      2.04      0.00
   -6    0    7     -4.90      0.00
   -5    0    7      8.99      0.00
   -4    0    7     -8.96      0.00
   -3    0    7      5.46      0.00
   -2    0    7     -1.18      0.00
   -1    0    7      2.21      0.00
    0    0    7     -5.01      0.00
    1    0    7      2.80      0.00
    2    0    7     -0.53      0.00
    3    0    7      3.45      0.00
    4    0    7     -3.87      0.00
    5    0    7     -0.32      0.00
    6    0    7      2.15      0.00
    7    0    7     -0.29      0.00
    8    0    7     -1.17      0.00
    9    0    7      0.12      0.00
   10    0    7      0.71      0.00
   11    0    7      0.09      0.00
   12    0    7     -0.31      0.00
   -9    1    7     -1.76      0.00
   -8    1    7      2.52      0.00
   -7    1    7     -2.45      0.00
   -6    1    7      6.08      0.00
   -5    1    7     -9.66      0.00
   -4    1    7      8.27      0.00
   -3    1    7     -3.75      0.00
   -2    1    7      0.35      0.00
   -1    1    7     -3.51      0.00
    0    1    7      6.82      0.00
    1    1    7     -4.71      0.00
    2    1    7      2.23      0.00
    3    1    7     -3.35      0.00
    4    1    7      2.28      0.00
    5    1    7      1.35      0.00
    6    1    7     -1.94      0.00
    7    1    7     -0.87      0.00
    8    1    7      2.18      0.00
    9    1    7     -0.68      0.00
   10    1    7     -0.31      0.00
   11    1    7     -0.63      0.00
   12    1    7      0.49      0.00
   -9    2    7      2.20      0.00
   -8    2    7     -2.38      0.00
   -7    2    7      1.68      0.00
   -6    2    7     -4.86      0.00
   -5    2    7      7.65      0.00
   -4    2    7     -5.53      0.00
   -3    2    7      0.76      0.00
   -2    2    7      0.26      0.00
   -1    2    7      5.23      0.00
    0    2    7     -8.15      0.00
    1    2    7      5.47      0.00
    2    2    7     -3.00      0.00
    3    2    7      3.03      0.00
    4    2    7     -1.61      0.00
    5    2    7     -0.68      0.00
    6    2    7     -0.27      0.00
    7    2    7      3.30      0.00
    8    2    7     -3.59      0.00
    9    2    7      0.91      0.00
   10    2    7      0.03      0.00
   11    2    7      0.90      0.00
   -9    3    7     -2.17      0.00
   -8    3    7      1.57      0.00
   -7    3    7     -0.10      0.00
   -6    3    7      2.42      0.00
   -5    3    7     -4.67      0.00
   -4    3    7      2.37      0.00
   -3    3    7      1.44      0.00
   -2    3    7      1.15      0.00
   -1    3    7     -8.71      0.00
    0    3    7     10.25      0.00
    1    3    7     -6.00      0.00
    2    3    7      3.29      0.00
    3    3    7     -3.15      0.00
    4    3    7      2.25      0.00
    5    3    7     -1.36      0.00
    6    3    7      3.43      0.00
    7    3    7     -5.94      0.00
    8    3    7      4.55      0.00
    9    3    7     -0.42      0.00
   10    3    7     -0.17      0.00
   11    3    7     -0.64      0.00
   -9    4    7      1.55      0.00
   -8    4    7     -0.52      0.00
   -7    4    7     -1.19      0.00
   -6    4    7     -0.63      0.00
   -5    4    7      2.79      0.00
   -4    4    7     -0.89      0.00
   -3    4    7     -0.99      0.00
   -2    4    7     -4.61      0.00
   -1    4    7     12.09      0.00
    0    4    7    -11.28      0.00
    1    4    7      5.90      0.00
    2    4    7     -3.53      0.00
    3    4    7      3.93      0.00
    4    4    7     -3.41      0.00
    5    4    7      3.32      0.00
    6    4    7     -5.80      0.00
    7    4    7      7.41      0.00
    8    4    7     -4.35      0.00
    9    4    7     -0.47      0.00
   10    4    7      0.24      0.00
   11    4    7      0.46      0.00
   -8    5    7     -0.01      0.00
   -7    5    7      1.31      0.00
   -6    5    7      0.27      0.00
   -5    5    7     -2.50      0.00
   -4    5    7      1.53      0.00
   -3    5    7     -1.77      0.00
   -2    5    7      7.91      0.00
   -1    5    7    -12.13      0.00
    0    5    7      8.56      0.00
    1    5    7     -3.57      0.00
    2    5    7      2.85      0.00
    3    5    7     -4.30      0.00
    4    5    7      3.42      0.00
    5    5    7     -3.45      0.00
    6    5    7      5.90      0.00
    7    5    7     -6.78      0.00
    8    5    7      2.74      0.00
    9    5    7      1.33      0.00
   10    5    7      0.06      0.00
   11    5    7     -0.56      0.00
   -8    6    7     -0.14      0.00
   -7    6    7     -0.58      0.00
   -6    6    7     -0.52      0.00
   -5    6    7      2.40      0.00
   -4    6    7     -2.45      0.00
   -3    6    7      4.08      0.00
   -2    6    7     -8.06      0.00
   -1    6    7      7.44      0.00
    0    6    7     -2.10      0.00
    1    6    7     -0.97      0.00
    2    6    7     -1.13      0.00
    3    6    7      3.72      0.00
    4    6    7     -1.85      0.00
    5    6    7      1.56      0.00
    6    6    7     -4.01      0.00
    7    6    7      4.72      0.00
    8    6    7     -0.82      0.00
    9    6    7     -1.43      0.00
   10    6    7     -0.60      0.00
   11    6    7      0.53      0.00
   -8    7    7      0.22      0.00
   -7    7    7      0.14      0.00
   -6    7    7      0.15      0.00
   -5    7    7     -0.97      0.00
   -4    7    7      1.60      0.00
   -3    7    7     -3.50      0.00
   -2    7    7      4.25      0.00
   -1    7    7      0.16      0.00
    0    7    7     -5.49      0.00
    1    7    7      5.64      0.00
    2    7    7     -0.25      0.00
    3    7    7     -3.01      0.00
    4    7    7      0.06      0.00
    5    7    7      0.59      0.00
    6    7    7      1.89      0.00
    7    7    7     -2.89      0.00
    8    7    7      0.31      0.00
    9    7    7      0.13      0.00
   10    7    7      1.28      0.00
   -8    8    7      0.20      0.00
   -7    8    7     -0.37      0.00
   -6    8    7      0.77      0.00
   -5    8    7     -1.26      0.00
   -4    8    7      0.75      0.00
   -3    8    7      0.68      0.00
   -2    8    7      0.64      0.00
   -1    8    7     -6.31      0.00
    0    8    7     10.48      0.00
    1    8    7     -7.93      0.00
    2    8    7      0.40      0.00
    3    8    7      2.47      0.00
    4    8    7      0.93      0.00
    5    8    7     -1.61      0.00
    6    8    7     -0.69      0.00
    7    8    7      2.04      0.00
    8    8    7     -1.18      0.00
    9    8    7      1.59      0.00
   10    8    7     -1.62      0.00
   -8    9    7     -0.61      0.00
   -7    9    7      0.61      0.00
   -6    9    7     -1.27      0.00
   -5    9    7      2.68      0.00
   -4    9    7     -2.71      0.00
   -3    9    7      1.78      0.00
   -2    9    7     -3.18      0.00
   -1    9    7      7.88      0.00
    0    9    7    -10.61      0.00
    1    9    7      6.75      0.00
    2    9    7      0.31      0.00
    3    9    7     -1.58      0.00
    4    9    7     -1.38      0.00
    5    9    7      1.73      0.00
    6    9    7      0.05      0.00
    7    9    7     -1.48      0.00
    8    9    7      1.71      0.00
    9    9    7     -1.89      0.00
   -7   10    7     -0.44      0.00
   -6   10    7      1.12      0.00
   -5   10    7     -2.92      0.00
   -4   10    7      3.34      0.00
   -3   10    7     -2.43      0.00
   -2   10    7      2.75      0.00
   -1   10    7     -5.56      0.00
    0   10    7      7.08      0.00
    1   10    7     -3.64      0.00
    2   10    7     -0.70      0.00
    3   10    7      0.15      0.00
    4   10    7      1.76      0.00
    6   10    7      0.40      0.00
    7   10    7      0.83      0.00
    8   10    7     -1.15      0.00
   -7   11    7      0.12      0.00
   -6   11    7     -0.76      0.00
   -5   11    7      2.54      0.00
   -4   11    7     -2.95      0.00
   -3   11    7      1.73      0.00
   -2   11    7     -0.88      0.00
   -1   11    7      1.80      0.00
    0   11    7     -2.73      0.00
    1   11    7      1.21      0.00
    2   11    7     -0.23      0.00
    3   11    7      1.69      0.00
    4   11    7     -2.35      0.00
    5   11    7      1.63      0.00
    6   11    7     -0.34      0.00
    7   11    7     -0.52      0.00
    8   11    7      0.43      0.00
   -6   12    7      0.37      0.00
   -5   12    7     -1.64      0.00
   -4   12    7      1.85      0.00
   -3   12    7     -0.77      0.00
   -2   12    7     -0.66      0.00
   -1   12    7      1.20      0.00
    0   12    7     -0.33      0.00
    1   12    7     -0.44      0.00
    2   12    7      1.88      0.00
    3   12    7     -3.19      0.00
    4   12    7      2.87      0.00
    5   12    7     -1.40      0.00
    6   12    7     -0.11      0.00
   -4   13    7     -0.53      0.00
   -3   13    7      0.18      0.00
   -2   13    7      1.00      0.00
   -1   13    7     -2.08      0.00
    0   13    7      1.23      0.00
    1   13    7      0.66      0.00
    2   13    7     -2.59      0.00
    3   13    7      3.09      0.00
    4   13    7     -2.38      0.00
    5   13    7      0.83      0.00
   -2   14    7     -0.59      0.00
   -1   14    7      1.31      0.00
    0   14    7     -0.68      0.00
    1   14    7     -0.78      0.00
    2   14    7      1.75      0.00
    1   -8    8     -1.10      0.00
    2   -8    8      0.70      0.00
   -2   -7    8     -0.21      0.00
   -1   -7    8     -0.28      0.00
    0   -7    8     -0.23      0.00
    1   -7    8      1.06      0.00
    2   -7    8     -0.06      0.00
    3   -7    8     -0.93      0.00
    4   -7    8      0.75      0.00
    5   -7    8     -0.80      0.00
   -3   -6    8     -0.14      0.00
   -2   -6    8      0.19      0.00
   -1   -6    8      0.31      0.00
    0   -6    8      0.44      0.00
    1   -6    8     -0.62      0.00
    2   -6    8     -0.73      0.00
    3   -6    8      1.23      0.00
    4   -6    8     -0.73      0.00
    5   -6    8      0.89      0.00
    6   -6    8     -0.83      0.00
   -4   -5    8      0.84      0.00
   -3   -5    8      0.09      0.00
   -2   -5    8      0.40      0.00
   -1   -5    8     -0.53      0.00
    0   -5    8     -0.38      0.00
    1   -5    8      0.06      0.00
    2   -5    8      0.86      0.00
    3   -5    8     -0.42      0.00
    4   -5    8     -0.56      0.00
    5   -5    8     -0.14      0.00
    6   -5    8      0.84      0.00
    7   -5    8     -0.79      0.00
    8   -5    8      0.47      0.00
   -5   -4    8      1.85      0.00
   -4   -4    8     -1.12      0.00
   -3   -4    8      0.48      0.00
   -2   -4    8     -1.50      0.00
   -1   -4    8      1.16      0.00
    0   -4    8     -0.29      0.00
    1   -4    8      0.38      0.00
    2   -4    8      0.07      0.00
    3   -4    8     -2.13      0.00
    4   -4    8      3.61      0.00
    5   -4    8     -1.70      0.00
    6   -4    8     -0.09      0.00
    7   -4    8      0.31      0.00
    8   -4    8      0.18      0.00
    9   -4    8      0.27      0.00
   -6   -3    8      2.01      0.00
   -5   -3    8     -2.05      0.00
   -4   -3    8      0.60      0.00
   -3   -3    8     -1.07      0.00
   -2   -3    8      2.26      0.00
   -1   -3    8     -1.45      0.00
    0   -3    8      0.54      0.00
    1   -3    8     -0.05      0.00
    2   -3    8     -1.80      0.00
    3   -3    8      5.35      0.00
    4   -3    8     -6.71      0.00
    5   -3    8      3.41      0.00
    6   -3    8     -0.70      0.00
    7   -3    8      0.55      0.00
    8   -3    8     -1.35      0.00
    9   -3    8     -0.27      0.00
   10   -3    8      0.85      0.00
   -7   -2    8      0.73      0.00
   -6   -2    8     -1.54      0.00
   -5   -2    8      0.13      0.00
   -4   -2    8      0.72      0.00
   -3   -2    8      1.26      0.00
   -2   -2    8     -2.38      0.00
   -1   -2    8      0.88      0.00
    0   -2    8      0.28      0.00
    1   -2    8     -0.80      0.00
    2   -2    8      3.15      0.00
    3   -2    8     -7.01      0.00
    4   -2    8      7.04      0.00
    5   -2    8     -2.86      0.00
    6   -2    8      0.15      0.00
    7   -2    8     -0.43      0.00
    8   -2    8      1.53      0.00
    9   -2    8      0.24      0.00
   10   -2    8     -0.78      0.00
   11   -2    8      0.00      0.00
   -8   -1    8     -0.25      0.00
   -7   -1    8     -0.01      0.00
   -6   -1    8     -0.79      0.00
   -5   -1    8      2.65      0.00
   -4   -1    8     -1.54      0.00
   -3   -1    8     -1.66      0.00
   -2   -1    8      2.53      0.00
   -1   -1    8     -0.04      0.00
    0   -1    8     -1.03      0.00
    1   -1    8      0.56      0.00
    2   -1    8     -2.68      0.00
    3   -1    8      6.19      0.00
    4   -1    8     -4.62      0.00
    5   -1    8      0.38      0.00
    6   -1    8      1.38      0.00
    7   -1    8     -0.31      0.00
    8   -1    8     -0.92      0.00
    9   -1    8     -0.03      0.00
   10   -1    8      0.08      0.00
   11   -1    8      0.20      0.00
   -8    0    8      0.26      0.00
   -7    0    8     -0.85      0.00
   -6    0    8      3.11      0.00
   -5    0    8     -3.83      0.00
   -4    0    8      0.47      0.00
   -3    0    8      3.24      0.00
   -2    0    8     -3.28      0.00
   -1    0    8     -0.56      0.00
    0    0    8      1.08      0.00
    1    0    8      0.90      0.00
    2    0    8      0.66      0.00
    3    0    8     -3.96      0.00
    4    0    8      2.02      0.00
    5    0    8      1.42      0.00
    6    0    8     -1.89      0.00
    7    0    8     -0.08      0.00
    8    0    8      1.13      0.00
    9    0    8     -0.82      0.00
   10    0    8      1.14      0.00
   11    0    8     -1.05      0.00
   -8    1    8      0.01      0.00
   -7    1    8      0.96      0.00
   -6    1    8     -3.71      0.00
   -5    1    8      2.82      0.00
   -4    1    8      1.93      0.00
   -3    1    8     -5.37      0.00
   -2    1    8      3.64      0.00
   -1    1    8      1.66      0.00
    0    1    8     -1.66      0.00
    1    1    8     -1.37      0.00
    2    1    8      0.65      0.00
    3    1    8      2.12      0.00
    4    1    8     -0.82      0.00
    5    1    8     -1.32      0.00
    6    1    8      0.63      0.00
    7    1    8      1.67      0.00
    8    1    8     -2.10      0.00
    9    1    8      1.78      0.00
   10    1    8     -2.20      0.00
   11    1    8      1.79      0.00
   -8    2    8     -0.55      0.00
   -7    2    8     -0.23      0.00
   -6    2    8      2.84      0.00
   -5    2    8     -1.34      0.00
   -4    2    8     -3.40      0.00
   -3    2    8      5.78      0.00
   -2    2    8     -1.61      0.00
   -1    2    8     -4.37      0.00
    0    2    8      3.45      0.00
    1    2    8      0.06      0.00
    2    2    8     -0.04      0.00
    3    2    8     -1.82      0.00
    4    2    8      1.01      0.00
    5    2    8      0.12      0.00
    6    2    8      1.21      0.00
    7    2    8     -2.77      0.00
    8    2    8      2.07      0.00
    9    2    8     -1.48      0.00
   10    2    8      2.22      0.00
   11    2    8     -1.74      0.00
   -8    3    8      0.98      0.00
   -7    3    8     -0.46      0.00
   -6    3    8     -2.04      0.00
   -5    3    8      1.04      0.00
   -4    3    8      2.84      0.00
   -3    3    8     -3.58      0.00
   -2    3    8     -2.62      0.00
   -1    3    8      7.70      0.00
    0    3    8     -5.00      0.00
    1    3    8      1.17      0.00
    2    3    8     -1.12      0.00
    3    3    8      2.50      0.00
    4    3    8     -1.81      0.00
    5    3    8      1.18      0.00
    6    3    8     -2.46      0.00
    7    3    8      2.49      0.00
    8    3    8     -0.38      0.00
    9    3    8     -0.35      0.00
   10    3    8     -1.24      0.00
   11    3    8      1.16      0.00
   -8    4    8     -0.96      0.00
   -7    4    8      0.43      0.00
   -6    4    8      2.05      0.00
   -5    4    8     -1.72      0.00
   -4    4    8     -1.17      0.00
   -3    4    8      0.47      0.00
   -2    4    8      5.99      0.00
   -1    4    8     -8.73      0.00
    0    4    8      4.55      0.00
    1    4    8     -1.17      0.00
    2    4    8      1.70      0.00
    3    4    8     -3.00      0.00
    4    4    8      2.22      0.00
    5    4    8     -1.97      0.00
    6    4    8      2.79      0.00
    7    4    8     -1.33      0.00
    8    4    8     -2.06      0.00
    9    4    8      2.54      0.00
   10    4    8      0.23      0.00
   11    4    8     -0.67      0.00
   -7    5    8     -0.15      0.00
   -6    5    8     -2.09      0.00
   -5    5    8      2.13      0.00
   -4    5    8     -0.23      0.00
   -3    5    8      1.64      0.00
   -2    5    8     -6.09      0.00
   -1    5    8      5.97      0.00
    0    5    8     -2.14      0.00
    1    5    8      0.84      0.00
    2    5    8     -2.36      0.00
    3    5    8      3.11      0.00
    4    5    8     -1.86      0.00
    5    5    8      2.11      0.00
    6    5    8     -2.46      0.00
    7    5    8     -0.03      0.00
    8    5    8      4.27      0.00
    9    5    8     -3.92      0.00
   10    5    8      0.20      0.00
   11    5    8      0.29      0.00
   -8    6    8     -0.34      0.00
   -7    6    8      0.21      0.00
   -6    6    8      1.36      0.00
   -5    6    8     -1.51      0.00
   -4    6    8      0.67      0.00
   -3    6    8     -1.92      0.00
   -2    6    8      3.09      0.00
   -1    6    8     -0.82      0.00
    0    6    8     -0.92      0.00
    1    6    8     -0.93      0.00
    2    6    8      3.52      0.00
    3    6    8     -2.89      0.00
    4    6    8      0.90      0.00
    5    6    8     -1.85      0.00
    6    6    8      2.07      0.00
    7    6    8      0.91      0.00
    8    6    8     -5.30      0.00
    9    6    8      3.93      0.00
   10    6    8     -0.26      0.00
   -8    7    8      0.12      0.00
   -7    7    8     -0.47      0.00
   -6    7    8     -0.12      0.00
   -5    7    8      0.23      0.00
   -4    7    8     -0.27      0.00
   -3    7    8      0.61      0.00
   -2    7    8      1.26      0.00
   -1    7    8     -4.32      0.00
    0    7    8      3.43      0.00
    1    7    8      1.40      0.00
    2    7    8     -4.71      0.00
    3    7    8      2.23      0.00
    4    7    8      0.37      0.00
    5    7    8      1.44      0.00
    6    7    8     -2.07      0.00
    7    7    8     -0.61      0.00
    8    7    8      4.20      0.00
    9    7    8     -2.52      0.00
   10    7    8      0.23      0.00
   -8    8    8     -0.02      0.00
   -7    8    8      0.54      0.00
   -6    8    8     -0.85      0.00
   -5    8    8      0.95      0.00
   -4    8    8     -0.36      0.00
   -3    8    8      0.98      0.00
   -2    8    8     -4.48      0.00
   -1    8    8      7.26      0.00
    0    8    8     -4.29      0.00
    1    8    8     -2.51      0.00
    2    8    8      5.74      0.00
    3    8    8     -1.63      0.00
    4    8    8     -1.08      0.00
    5    8    8     -1.27      0.00
    6    8    8      2.43      0.00
    7    8    8     -0.65      0.00
    8    8    8     -1.67      0.00
    9    8    8      0.75      0.00
   10    8    8     -0.18      0.00
   -8    9    8     -0.03      0.00
   -7    9    8     -0.27      0.00
   -6    9    8      1.10      0.00
   -5    9    8     -1.48      0.00
   -4    9    8      0.67      0.00
   -3    9    8     -1.46      0.00
   -2    9    8      4.83      0.00
   -1    9    8     -6.84      0.00
    0    9    8      2.90      0.00
    1    9    8      4.15      0.00
    2    9    8     -6.26      0.00
    3    9    8      1.47      0.00
    4    9    8      0.72      0.00
    5    9    8      1.37      0.00
    6    9    8     -2.49      0.00
    7    9    8      1.56      0.00
    8    9    8     -0.14      0.00
    9    9    8      0.02      0.00
   -7   10    8     -0.18      0.00
   -6   10    8     -0.69      0.00
   -5   10    8      1.23      0.00
   -4   10    8     -0.28      0.00
   -3   10    8      0.47      0.00
   -2   10    8     -2.72      0.00
   -1   10    8      3.99      0.00
    0   10    8     -0.50      0.00
    1   10    8     -4.78      0.00
    2   10    8      5.09      0.00
    3   10    8     -0.94      0.00
    4   10    8     -0.30      0.00
    5   10    8     -1.00      0.00
    6   10    8      1.71      0.00
    7   10    8     -1.26      0.00
    8   10    8      0.28      0.00
   -6   11    8      0.14      0.00
   -5   11    8     -0.55      0.00
   -4   11    8     -0.59      0.00
   -3   11    8      1.10      0.00
   -2   11    8      0.04      0.00
   -1   11    8     -1.04      0.00
    0   11    8     -0.60      0.00
    1   11    8      2.92      0.00
    2   11    8     -1.89      0.00
    3   11    8     -0.51      0.00
    4   11    8      0.59      0.00
    5   11    8      0.17      0.00
    6   11    8     -0.65      0.00
    7   11    8      0.43      0.00
   -5   12    8      0.07      0.00
   -4   12    8      1.00      0.00
   -3   12    8     -1.73      0.00
   -2   12    8      1.44      0.00
   -1   12    8     -0.43      0.00
    0   12    8     -0.15      0.00
    1   12    8      0.30      0.00
    2   12    8     -1.37      0.00
    3   12    8      1.72      0.00
    4   12    8     -0.82      0.00
    5   12    8      0.06      0.00
    6   12    8      0.25      0.00
   -4   13    8     -0.59      0.00
   -3   13    8      0.97      0.00
   -2   13    8     -1.30      0.00
   -1   13    8      0.56      0.00
    0   13    8      1.03      0.00
    1   13    8     -2.02      0.00
    2   13    8      2.24      0.00
    3   13    8     -1.40      0.00
    4   13    8      0.37      0.00
    5   13    8      0.30      0.00
   -2   14    8      0.68      0.00
   -1   14    8     -0.39      0.00
    0   14    8     -0.78      0.00
    1   14    8      1.43      0.00
    2   14    8     -0.99      0.00
    1   -7    9     -0.27      0.00
    2   -7    9     -1.08      0.00
    3   -7    9      1.18      0.00
   -2   -6    9      0.26      0.00
   -1   -6    9     -0.25      0.00
    0   -6    9     -0.72      0.00
    1   -6    9      0.03      0.00
    2   -6    9      1.52      0.00
    3   -6    9     -1.48      0.00
    4   -6    9      1.01      0.00
    5   -6    9     -0.58      0.00
   -3   -5    9     -0.32      0.00
   -2   -5    9     -0.34      0.00
   -1   -5    9     -0.17      0.00
    0   -5    9      1.09      0.00
    1   -5    9      0.00      0.00
    2   -5    9     -1.28      0.00
    3   -5    9      1.10      0.00
    4   -5    9     -0.73      0.00
    5   -5    9      0.46      0.00
    6   -5    9      0.07      0.00
    7   -5    9     -0.19      0.00
   -4   -4    9     -0.46      0.00
   -3   -4    9      0.62      0.00
   -2   -4    9     -0.04      0.00
   -1   -4    9      0.98      0.00
    0   -4    9     -1.44      0.00
    1   -4    9      0.43      0.00
    2   -4    9      0.22      0.00
    3   -4    9      0.10      0.00
    4   -4    9      0.07      0.00
    5   -4    9     -0.62      0.00
    6   -4    9      0.18      0.00
    7   -4    9      0.01      0.00
    8   -4    9      0.31      0.00
   -5   -3    9     -0.29      0.00
   -4   -3    9      1.15      0.00
   -3   -3    9     -0.55      0.00
   -2   -3    9      0.31      0.00
   -1   -3    9     -1.12      0.00
    0   -3    9      0.93      0.00
    1   -3    9     -0.37      0.00
    2   -3    9      0.50      0.00
    3   -3    9     -1.07      0.00
    4   -3    9     -0.19      0.00
    5   -3    9      2.01      0.00
    6   -3    9     -1.41      0.00
    7   -3    9      0.32      0.00
    8   -3    9     -0.95      0.00
    9   -3    9      2.12      0.00
   -6   -2    9      0.40      0.00
   -5   -2    9      0.90      0.00
   -4   -2    9     -0.72      0.00
   -3   -2    9     -0.59      0.00
   -2   -2    9      0.27      0.00
   -1   -2    9      0.17      0.00
    0   -2    9      0.68      0.00
    1   -2    9     -0.96      0.00
    2   -2    9      0.13      0.00
    3   -2    9      0.64      0.00
    4   -2    9      1.77      0.00
    5   -2    9     -4.27      0.00
    6   -2    9      3.28      0.00
    7   -2    9     -0.97      0.00
    8   -2    9      1.35      0.00
    9   -2    9     -2.92      0.00
   10   -2    9      1.17      0.00
   -7   -1    9      0.46      0.00
   -6   -1    9     -0.16      0.00
   -5   -1    9     -0.61      0.00
   -4   -1    9     -1.30      0.00
   -3   -1    9      2.66      0.00
   -2   -1    9     -1.46      0.00
   -1   -1    9      1.16      0.00
    0   -1    9     -2.81      0.00
    1   -1    9      2.95      0.00
    2   -1    9     -1.17      0.00
    3   -1    9      0.37      0.00
    4   -1    9     -3.60      0.00
    5   -1    9      5.87      0.00
    6   -1    9     -4.36      0.00
    7   -1    9      1.21      0.00
    8   -1    9     -0.97      0.00
    9   -1    9      2.11      0.00
   10   -1    9     -1.09      0.00
   -7    0    9     -0.40      0.00
   -6    0    9     -0.06      0.00
   -5    0    9     -0.80      0.00
   -4    0    9      3.94      0.00
   -3    0    9     -4.44      0.00
   -2    0    9      2.02      0.00
   -1    0    9     -1.84      0.00
    0    0    9      4.75      0.00
    1    0    9     -4.81      0.00
    2    0    9      1.78      0.00
    3    0    9     -0.78      0.00
    4    0    9      4.33      0.00
    5    0    9     -6.07      0.00
    6    0    9      3.86      0.00
    7    0    9     -0.32      0.00
    8    0    9     -0.28      0.00
    9    0    9     -0.19      0.00
   10    0    9      0.14      0.00
   11    0    9     -0.17      0.00
   -7    1    9      0.20      0.00
   -6    1    9      0.03      0.00
   -5    1    9      2.51      0.00
   -4    1    9     -5.77      0.00
   -3    1    9      4.75      0.00
   -2    1    9     -0.87      0.00
   -1    1    9      1.03      0.00
    0    1    9     -5.33      0.00
    1    1    9      5.71      0.00
    2    1    9     -2.17      0.00
    3    1    9      0.95      0.00
    4    1    9     -4.10      0.00
    5    1    9      5.31      0.00
    6    1    9     -2.41      0.00
    7    1    9     -1.06      0.00
    8    1    9      1.54      0.00
    9    1    9     -1.43      0.00
   10    1    9      0.81      0.00
   11    1    9      0.04      0.00
   -8    2    9      0.65      0.00
   -7    2    9      0.02      0.00
   -6    2    9     -0.14      0.00
   -5    2    9     -3.10      0.00
   -4    2    9      5.69      0.00
   -3    2    9     -3.11      0.00
   -2    2    9     -1.89      0.00
   -1    2    9      1.11      0.00
    0    2    9      3.93      0.00
    1    2    9     -4.74      0.00
    2    2    9      1.81      0.00
    3    2    9     -0.85      0.00
    4    2    9      3.31      0.00
    5    2    9     -3.94      0.00
    6    2    9      0.90      0.00
    7    2    9      1.58      0.00
    8    2    9     -1.63      0.00
    9    2    9      1.72      0.00
   10    2    9     -1.07      0.00
   11    2    9     -0.05      0.00
   -8    3    9     -0.59      0.00
   -7    3    9     -0.41      0.00
   -6    3    9      0.83      0.00
   -5    3    9      2.07      0.00
   -4    3    9     -3.74      0.00
   -3    3    9      0.09      0.00
   -2    3    9      4.99      0.00
   -1    3    9     -3.15      0.00
    0    3    9     -1.94      0.00
    1    3    9      2.74      0.00
    2    3    9     -0.54      0.00
    3    3    9      0.15      0.00
    4    3    9     -2.21      0.00
    5    3    9      2.30      0.00
    6    3    9      0.06      0.00
    7    3    9     -0.76      0.00
    8    3    9      0.30      0.00
    9    3    9     -0.87      0.00
   10    3    9      0.96      0.00
   11    3    9     -0.01      0.00
   -8    4    9      0.20      0.00
   -7    4    9      0.94      0.00
   -6    4    9     -1.67      0.00
   -5    4    9     -0.46      0.00
   -4    4    9      1.22      0.00
   -3    4    9      2.78      0.00
   -2    4    9     -6.80      0.00
   -1    4    9      3.86      0.00
    0    4    9      0.83      0.00
    1    4    9     -1.38      0.00
    2    4    9     -0.32      0.00
    3    4    9      0.23      0.00
    4    4    9      1.52      0.00
    5    4    9     -1.00      0.00
    6    4    9     -0.24      0.00
    7    4    9     -0.81      0.00
    8    4    9      1.64      0.00
    9    4    9     -0.03      0.00
   10    4    9     -1.23      0.00
   11    4    9      0.32      0.00
   -5    5    9     -0.45      0.00
   -4    5    9      0.46      0.00
   -3    5    9     -3.95      0.00
   -2    5    9      6.29      0.00
   -1    5    9     -3.18      0.00
    0    5    9     -0.06      0.00
    1    5    9      0.30      0.00
    2    5    9      0.52      0.00
    3    5    9      0.14      0.00
    4    5    9     -1.12      0.00
    5    5    9     -0.10      0.00
    6    5    9      0.22      0.00
    7    5    9      2.14      0.00
    8    5    9     -3.13      0.00
    9    5    9     -0.03      0.00
   10    5    9      1.98      0.00
   -7    6    9      0.84      0.00
   -6    6    9     -1.24      0.00
   -5    6    9      0.45      0.00
   -4    6    9     -0.97      0.00
   -3    6    9      3.24      0.00
   -2    6    9     -3.87      0.00
   -1    6    9      1.91      0.00
    0    6    9     -1.40      0.00
    1    6    9      1.87      0.00
    2    6    9     -1.35      0.00
    3    6    9     -0.14      0.00
    4    6    9      0.02      0.00
    5    6    9      1.74      0.00
    6    6    9     -0.82      0.00
    7    6    9     -2.51      0.00
    8    6    9      3.38      0.00
    9    6    9      0.97      0.00
   10    6    9     -2.46      0.00
   -7    7    9     -0.03      0.00
   -6    7    9      0.30      0.00
   -5    7    9     -0.29      0.00
   -4    7    9      1.16      0.00
   -3    7    9     -1.97      0.00
   -2    7    9      1.39      0.00
   -1    7    9     -1.27      0.00
    0    7    9      3.78      0.00
    1    7    9     -5.17      0.00
    2    7    9      3.16      0.00
    3    7    9     -0.51      0.00
    4    7    9      1.52      0.00
    5    7    9     -3.41      0.00
    6    7    9      1.77      0.00
    7    7    9      1.83      0.00
    8    7    9     -2.38      0.00
    9    7    9     -1.65      0.00
   10    7    9      1.89      0.00
   -7    8    9     -0.53      0.00
   -6    8    9      0.17      0.00
   -5    8    9      0.71      0.00
   -4    8    9     -1.85      0.00
   -3    8    9      1.42      0.00
   -2    8    9     -0.30      0.00
   -1    8    9      1.88      0.00
    0    8    9     -6.55      0.00
    1    8    9      8.45      0.00
    2    8    9     -4.89      0.00
    3    8    9      0.90      0.00
    4    8    9     -2.18      0.00
    5    8    9      3.80      0.00
    6    8    9     -2.05      0.00
    7    8    9     -0.81      0.00
    8    8    9      1.09      0.00
    9    8    9      1.19      0.00
   -7    9    9      0.48      0.00
   -6    9    9     -0.07      0.00
   -5    9    9     -1.36      0.00
   -4    9    9      2.58      0.00
   -3    9    9     -1.46      0.00
   -2    9    9      0.33      0.00
   -1    9    9     -2.82      0.00
    0    9    9      8.24      0.00
    1    9    9     -9.92      0.00
    2    9    9      5.26      0.00
    3    9    9     -0.58      0.00
    4    9    9      1.73      0.00
    5    9    9     -2.86      0.00
    7    9    9      0.15      0.00
    8    9    9     -0.35      0.00
   -6   10    9     -0.02      0.00
   -5   10    9      1.33      0.00
   -4   10    9     -2.38      0.00
   -3   10    9      1.20      0.00
   -2   10    9     -0.32      0.00
   -1   10    9      2.70      0.00
    0   10    9     -7.22      0.00
    1   10    9      8.05      0.00
    2   10    9     -3.56      0.00
    3   10    9     -0.22      0.00
    4   10    9     -0.89      0.00
    5   10    9      1.64      0.00
    6   10    9     -0.85      0.00
    7   10    9      0.20      0.00
   -6   11    9     -0.17      0.00
   -5   11    9     -0.67      0.00
   -4   11    9      1.44      0.00
   -3   11    9     -0.59      0.00
   -2   11    9     -0.11      0.00
   -1   11    9     -1.20      0.00
    0   11    9      3.64      0.00
    1   11    9     -3.59      0.00
    2   11    9      0.67      0.00
    3   11    9      0.93      0.00
    4   11    9      0.30      0.00
    5   11    9     -0.85      0.00
    6   11    9      0.64      0.00
    7   11    9     -0.41      0.00
   -5   12    9      0.11      0.00
   -4   12    9     -0.65      0.00
   -3   12    9      0.17      0.00
   -2   12    9      0.47      0.00
   -1   12    9     -0.58      0.00
    0   12    9      0.18      0.00
    1   12    9     -0.49      0.00
    2   12    9      1.34      0.00
    3   12    9     -0.94      0.00
    4   12    9     -0.21      0.00
    5   12    9      0.53      0.00
    6   12    9     -0.50      0.00
   -3   13    9     -0.06      0.00
   -2   13    9     -0.31      0.00
   -1   13    9      1.23      0.00
    0   13    9     -1.79      0.00
    1   13    9      1.81      0.00
    2   13    9     -1.40      0.00
    3   13    9      0.37      0.00
    4   13    9      0.34      0.00
    2   -6   10     -0.99      0.00
   -1   -5   10     -0.04      0.00
    0   -5   10      0.22      0.00
    1   -5   10     -1.67      0.00
    2   -5   10      1.79      0.00
    3   -5   10     -0.73      0.00
    4   -5   10      0.05      0.00
    5   -5   10      0.13      0.00
   -2   -4   10     -0.17      0.00
   -1   -4   10     -0.40      0.00
    0   -4   10     -0.49      0.00
    1   -4   10      2.13      0.00
    2   -4   10     -2.10      0.00
    3   -4   10      1.03      0.00
    4   -4   10     -0.44      0.00
    5   -4   10      0.31      0.00
    6   -4   10     -0.49      0.00
    7   -4   10      0.82      0.00
   -4   -3   10     -1.42      0.00
   -3   -3   10      1.00      0.00
   -2   -3   10     -0.69      0.00
   -1   -3   10      0.58      0.00
    0   -3   10      0.76      0.00
    1   -3   10     -1.91      0.00
    2   -3   10      1.71      0.00
    3   -3   10     -1.15      0.00
    4   -3   10      1.65      0.00
    5   -3   10     -1.74      0.00
    6   -3   10      1.38      0.00
    7   -3   10     -1.86      0.00
    8   -3   10      2.26      0.00
   -5   -2   10     -1.90      0.00
   -4   -2   10      1.77      0.00
   -3   -2   10     -1.07      0.00
   -2   -2   10      0.61      0.00
   -1   -2   10      0.41      0.00
    0   -2   10     -1.69      0.00
    1   -2   10      1.82      0.00
    2   -2   10     -1.06      0.00
    3   -2   10      1.16      0.00
    4   -2   10     -3.09      0.00
    5   -2   10      3.22      0.00
    6   -2   10     -1.91      0.00
    7   -2   10      2.06      0.00
    8   -2   10     -3.46      0.00
    9   -2   10      2.37      0.00
   -6   -1   10     -1.40      0.00
   -5   -1   10      1.78      0.00
   -4   -1   10     -0.53      0.00
   -3   -1   10      0.15      0.00
   -2   -1   10      0.24      0.00
   -1   -1   10     -1.94      0.00
    0   -1   10      2.84      0.00
    1   -1   10     -1.56      0.00
    2   -1   10     -0.09      0.00
    3   -1   10     -0.67      0.00
    4   -1   10      3.43      0.00
    5   -1   10     -3.06      0.00
    6   -1   10      0.86      0.00
    7   -1   10     -0.49      0.00
    8   -1   10      2.67      0.00
    9   -1   10     -2.50      0.00
   10   -1   10      0.58      0.00
   -6    0   10      1.39      0.00
   -5    0   10     -0.48      0.00
   -4    0   10     -1.08      0.00
   -3    0   10      0.16      0.00
   -2    0   10     -0.11      0.00
   -1    0   10      2.54      0.00
    0    0   10     -3.14      0.00
    1    0   10      0.29      0.00
    2    0   10      2.06      0.00
    3    0   10     -0.39      0.00
    4    0   10     -2.70      0.00
    5    0   10      1.56      0.00
    6    0   10      1.46      0.00
    7    0   10     -2.05      0.00
    8    0   10     -0.56      0.00
    9    0   10      1.51      0.00
   10    0   10     -0.86      0.00
   -6    1   10     -0.97      0.00
   -5    1   10     -0.76      0.00
   -4    1   10      1.26      0.00
   -3    1   10      1.49      0.00
   -2    1   10     -1.85      0.00
   -1    1   10     -1.76      0.00
    0    1   10      2.53      0.00
    1    1   10      1.23      0.00
    2    1   10     -3.78      0.00
    3    1   10      1.40      0.00
    4    1   10      1.82      0.00
    5    1   10     -0.21      0.00
    6    1   10     -3.39      0.00
    7    1   10      3.68      0.00
    8    1   10     -0.91      0.00
    9    1   10     -0.68      0.00
   10    1   10      1.10      0.00
   -7    2   10     -0.73      0.00
   -6    2   10      0.71      0.00
   -5    2   10      1.03      0.00
   -4    2   10      0.06      0.00
   -3    2   10     -4.07      0.00
   -2    2   10      4.17      0.00
   -1    2   10      0.62      0.00
    0    2   10     -1.82      0.00
    1    2   10     -1.67      0.00
    2    2   10      3.88      0.00
    3    2   10     -1.58      0.00
    4    2   10     -1.15      0.00
    5    2   10     -0.60      0.00
    6    2   10      3.98      0.00
    7    2   10     -3.50      0.00
    8    2   10      1.06      0.00
    9    2   10      0.43      0.00
   10    2   10     -1.25      0.00
   -7    3   10      0.84      0.00
   -6    3   10     -0.80      0.00
   -5    3   10     -0.50      0.00
   -4    3   10     -1.60      0.00
   -3    3   10      5.54      0.00
   -2    3   10     -4.92      0.00
   -1    3   10     -0.28      0.00
    0    3   10      1.62      0.00
    1    3   10      1.08      0.00
    2    3   10     -2.66      0.00
    3    3   10      0.89      0.00
    4    3   10      0.66      0.00
    5    3   10      1.33      0.00
    6    3   10     -3.62      0.00
    7    3   10      2.30      0.00
    8    3   10     -0.68      0.00
    9    3   10     -0.02      0.00
   10    3   10      0.73      0.00
   -6    4   10      0.78      0.00
   -5    4   10     -0.07      0.00
   -4    4   10      2.44      0.00
   -3    4   10     -5.47      0.00
   -2    4   10      4.22      0.00
   -1    4   10      0.56      0.00
    0    4   10     -1.71      0.00
    1    4   10     -0.30      0.00
    2    4   10      1.35      0.00
    3    4   10     -0.14      0.00
    4    4   10      0.00      0.00
    5    4   10     -2.28      0.00
    6    4   10      3.03      0.00
    7    4   10     -1.20      0.00
    8    4   10      0.66      0.00
    9    4   10     -1.15      0.00
   10    4   10      0.62      0.00
   -4    5   10     -2.56      0.00
   -3    5   10      4.67      0.00
   -2    5   10     -3.37      0.00
   -1    5   10     -0.36      0.00
    0    5   10      1.29      0.00
    1    5   10     -0.21      0.00
    2    5   10     -0.33      0.00
    3    5   10     -0.07      0.00
    4    5   10     -1.23      0.00
    5    5   10      3.36      0.00
    6    5   10     -2.36      0.00
    7    5   10      0.33      0.00
    8    5   10     -1.10      0.00
    9    5   10      2.89      0.00
   10    5   10     -1.96      0.00
   -5    6   10     -0.58      0.00
   -4    6   10      2.27      0.00
   -3    6   10     -3.64      0.00
   -2    6   10      2.70      0.00
   -1    6   10     -0.53      0.00
    0    6   10     -0.03      0.00
    1    6   10      0.42      0.00
    2    6   10     -0.60      0.00
    3    6   10     -0.15      0.00
    4    6   10      2.77      0.00
    5    6   10     -4.12      0.00
    6    6   10      1.45      0.00
    7    6   10      0.57      0.00
    8    6   10      1.69      0.00
    9    6   10     -4.32      0.00
   10    6   10      2.35      0.00
   -6    7   10     -0.55      0.00
   -5    7   10      0.92      0.00
   -4    7   10     -1.90      0.00
   -3    7   10      2.51      0.00
   -2    7   10     -2.05      0.00
   -1    7   10      1.74      0.00
    0    7   10     -1.78      0.00
    1    7   10     -0.07      0.00
    2    7   10      1.15      0.00
    3    7   10      0.50      0.00
    4    7   10     -3.90      0.00
    5    7   10      4.19      0.00
    6    7   10     -0.56      0.00
    7    7   10     -1.20      0.00
    8    7   10     -1.98      0.00
    9    7   10      4.34      0.00
   -6    8   10      0.80      0.00
   -5    8   10     -1.28      0.00
   -4    8   10      1.58      0.00
   -3    8   10     -1.37      0.00
   -2    8   10      1.51      0.00
   -1    8   10     -3.00      0.00
    0    8   10      3.69      0.00
    1    8   10     -0.82      0.00
    2    8   10     -1.30      0.00
    3    8   10     -0.47      0.00
    4    8   10      3.87      0.00
    5    8   10     -3.32      0.00
    6    8   10     -0.01      0.00
    7    8   10      1.13      0.00
    8    8   10      1.56      0.00
    9    8   10     -2.69      0.00
   -6    9   10     -0.83      0.00
   -5    9   10      1.41      0.00
   -4    9   10     -1.11      0.00
   -3    9   10      0.20      0.00
   -2    9   10     -0.90      0.00
   -1    9   10      3.54      0.00
    0    9   10     -4.56      0.00
    1    9   10      1.18      0.00
    2    9   10      1.86      0.00
    3    9   10     -0.52      0.00
    4    9   10     -2.47      0.00
    5    9   10      1.60      0.00
    7    9   10     -0.68      0.00
    8    9   10     -0.64      0.00
   -5   10   10     -0.88      0.00
   -4   10   10      0.15      0.00
   -3   10   10      1.02      0.00
   -2   10   10     -0.15      0.00
   -1   10   10     -2.40      0.00
    0   10   10      3.20      0.00
    1   10   10     -0.03      0.00
    2   10   10     -3.03      0.00
    3   10   10      1.89      0.00
    4   10   10      0.73      0.00
    5   10   10     -0.06      0.00
   -5   11   10     -0.14      0.00
   -4   11   10      1.06      0.00
   -3   11   10     -2.03      0.00
   -2   11   10      1.44      0.00
   -1   11   10      0.05      0.00
    0   11   10     -0.34      0.00
    1   11   10     -1.72      0.00
    2   11   10      3.51      0.00
    3   11   10     -2.18      0.00
    4   11   10      0.02      0.00
    5   11   10     -0.27      0.00
   -4   12   10     -1.55      0.00
   -3   12   10      2.19      0.00
   -2   12   10     -2.06      0.00
   -1   12   10      1.65      0.00
    0   12   10     -1.61      0.00
    1   12   10      2.23      0.00
    2   12   10     -2.46      0.00
    3   12   10      1.16      0.00
    4   12   10      0.12      0.00
   -2   13   10      1.36      0.00
   -1   13   10     -1.49      0.00
    0   13   10      1.40      0.00
    1   13   10     -1.30      0.00
    2   13   10      0.90      0.00
    3   13   10     -0.16      0.00
   -1   -4   11      0.19      0.00
    0   -4   11      0.78      0.00
    1   -4   11     -1.22      0.00
    2   -4   11      0.34      0.00
    3   -4   11      0.17      0.00
    4   -4   11      0.14      0.00
    5   -4   11     -0.75      0.00
   -2   -3   11     -0.18      0.00
   -1   -3   11      0.18      0.00
    0   -3   11     -1.08      0.00
    1   -3   11      1.04      0.00
    2   -3   11     -0.15      0.00
    3   -3   11      0.10      0.00
    4   -3   11     -0.87      0.00
    5   -3   11      1.44      0.00
    6   -3   11     -1.69      0.00
    7   -3   11      1.42      0.00
   -3   -2   11     -0.63      0.00
   -2   -2   11      0.62      0.00
   -1   -2   11     -0.56      0.00
    0   -2   11      0.32      0.00
    1   -2   11      0.85      0.00
    2   -2   11     -1.51      0.00
    3   -2   11      0.34      0.00
    4   -2   11      1.13      0.00
    5   -2   11     -1.15      0.00
    6   -2   11      1.24      0.00
    7   -2   11     -1.69      0.00
    8   -2   11      1.24      0.00
   -4   -1   11     -0.45      0.00
   -3   -1   11      0.67      0.00
   -2   -1   11     -0.70      0.00
   -1   -1   11      0.29      0.00
    0   -1   11      1.54      0.00
    1   -1   11     -3.94      0.00
    2   -1   11      4.01      0.00
    3   -1   11     -1.28      0.00
    4   -1   11     -0.47      0.00
    5   -1   11     -0.52      0.00
    6   -1   11      0.86      0.00
    7   -1   11      0.54      0.00
    8   -1   11     -1.38      0.00
    9   -1   11      0.02      0.00
   -5    0   11     -0.32      0.00
   -4    0   11      0.35      0.00
   -3    0   11      0.27      0.00
   -2    0   11     -0.12      0.00
   -1    0   11      0.64      0.00
    0    0   11     -3.75      0.00
    1    0   11      6.70      0.00
    2    0   11     -5.51      0.00
    3    0   11      1.33      0.00
    4    0   11     -0.17      0.00
    5    0   11      2.57      0.00
    6    0   11     -3.45      0.00
    7    0   11      1.06      0.00
    8    0   11      1.20      0.00
    9    0   11     -0.44      0.00
   -5    1   11      0.52      0.00
   -4    1   11      0.54      0.00
   -3    1   11     -2.00      0.00
   -2    1   11      1.25      0.00
   -1    1   11     -1.35      0.00
    0    1   11      5.15      0.00
    1    1   11     -7.98      0.00
    2    1   11      5.51      0.00
    3    1   11     -0.54      0.00
    4    1   11      0.34      0.00
    5    1   11     -4.01      0.00
    6    1   11      5.15      0.00
    7    1   11     -1.71      0.00
    8    1   11     -1.45      0.00
    9    1   11      1.23      0.00
   -6    2   11     -0.13      0.00
   -5    2   11     -0.37      0.00
   -4    2   11     -1.81      0.00
   -3    2   11      3.45      0.00
   -2    2   11     -1.68      0.00
   -1    2   11      1.00      0.00
    0    2   11     -4.74      0.00
    1    2   11      7.13      0.00
    2    2   11     -4.46      0.00
    3    2   11      0.05      0.00
    4    2   11     -0.65      0.00
    5    2   11      4.60      0.00
    6    2   11     -5.31      0.00
    7    2   11      1.21      0.00
    8    2   11      1.83      0.00
    9    2   11     -1.92      0.00
   -6    3   11      0.08      0.00
   -5    3   11      0.02      0.00
   -4    3   11      2.48      0.00
   -3    3   11     -3.56      0.00
   -2    3   11      1.10      0.00
   -1    3   11      0.27      0.00
    0    3   11      2.71      0.00
    1    3   11     -4.55      0.00
    2    3   11      2.64      0.00
    3    3   11      0.01      0.00
    4    3   11      1.34      0.00
    5    3   11     -4.55      0.00
    6    3   11      4.21      0.00
    7    3   11     -0.45      0.00
    8    3   11     -1.34      0.00
    9    3   11      1.46      0.00
   10    3   11     -0.84      0.00
   -5    4   11      0.26      0.00
   -4    4   11     -2.18      0.00
   -3    4   11      2.41      0.00
   -2    4   11      0.05      0.00
   -1    4   11     -1.71      0.00
    0    4   11     -0.57      0.00
    1    4   11      2.18      0.00
    2    4   11     -1.23      0.00
    3    4   11      0.43      0.00
    4    4   11     -2.35      0.00
    5    4   11      4.24      0.00
    6    4   11     -2.77      0.00
    7    4   11      0.26      0.00
    8    4   11     -0.16      0.00
    9    4   11      0.22      0.00
   10    4   11      0.12      0.00
   -2    5   11     -1.03      0.00
   -1    5   11      2.57      0.00
    0    5   11     -0.51      0.00
    1    5   11     -1.25      0.00
    2    5   11      1.30      0.00
    3    5   11     -1.84      0.00
    4    5   11      3.65      0.00
    5    5   11     -3.68      0.00
    6    5   11      1.38      0.00
    7    5   11     -0.57      0.00
    8    5   11      1.83      0.00
    9    5   11     -1.84      0.00
   -4    6   11     -1.01      0.00
   -3    6   11      0.53      0.00
   -2    6   11      1.28      0.00
   -1    6   11     -2.36      0.00
    0    6   11      0.63      0.00
    1    6   11      0.86      0.00
    2    6   11     -1.91      0.00
    3    6   11      3.38      0.00
    4    6   11     -4.39      0.00
    5    6   11      2.28      0.00
    6    6   11      0.40      0.00
    7    6   11      0.64      0.00
    8    6   11     -2.89      0.00
    9    6   11      2.34      0.00
   -5    7   11     -0.55      0.00
   -4    7   11      0.83      0.00
   -3    7   11     -0.49      0.00
   -2    7   11     -0.84      0.00
   -1    7   11      1.20      0.00
    0    7   11     -0.38      0.00
    1    7   11     -0.02      0.00
    2    7   11      1.62      0.00
    3    7   11     -3.56      0.00
    4    7   11      3.74      0.00
    5    7   11     -0.13      0.00
    6    7   11     -2.38      0.00
    7    7   11     -0.12      0.00
    8    7   11      2.90      0.00
    9    7   11     -1.70      0.00
   -5    8   11      0.30      0.00
   -4    8   11     -0.34      0.00
   -3    8   11      0.09      0.00
   -2    8   11      0.37      0.00
   -1    8   11      0.07      0.00
    0    8   11      0.31      0.00
    1    8   11     -1.23      0.00
    2    8   11     -0.19      0.00
    3    8   11      2.13      0.00
    4    8   11     -2.02      0.00
    5    8   11     -1.61      0.00
    6    8   11      3.29      0.00
    7    8   11     -0.48      0.00
    8    8   11     -1.87      0.00
   -5    9   11      0.04      0.00
   -4    9   11     -0.58      0.00
   -3    9   11      0.87      0.00
   -2    9   11     -0.28      0.00
   -1    9   11     -0.69      0.00
    0    9   11     -0.57      0.00
    1    9   11      2.47      0.00
    2    9   11     -1.62      0.00
    3    9   11     -0.20      0.00
    4    9   11      0.29      0.00
    5    9   11      2.17      0.00
    6    9   11     -2.53      0.00
   -4   10   11      1.14      0.00
   -3   10   11     -1.41      0.00
   -2   10   11      0.31      0.00
   -1   10   11      0.66      0.00
    0   10   11      0.79      0.00
    1   10   11     -2.93      0.00
    2   10   11      2.56      0.00
    3   10   11     -0.76      0.00
    4   10   11      0.49      0.00
    5   10   11     -1.74      0.00
   -3   11   11      0.91      0.00
   -2   11   11     -0.22      0.00
   -1   11   11     -0.28      0.00
    0   11   11     -0.65      0.00
    1   11   11      2.08      0.00
    2   11   11     -1.84      0.00
    3   11   11      0.31      0.00
    4   11   11     -0.21      0.00
    5   11   11      0.94      0.00
   -1   12   11     -0.10      0.00
    0   12   11      0.25      0.00
    1   12   11     -0.56      0.00
    2   12   11      0.35      0.00
    3   12   11      0.45      0.00
    4   12   11     -0.25      0.00
    0   13   11      0.10      0.00
    1   13   11     -0.40      0.00
    2   13   11      0.50      0.00
    0   -3   12      1.34      0.00
    1   -3   12     -1.01      0.00
    2   -3   12      0.49      0.00
    3   -3   12     -0.61      0.00
    4   -3   12      0.82      0.00
   -1   -2   12      0.93      0.00
    0   -2   12     -1.19      0.00
    1   -2   12      0.80      0.00
    2   -2   12     -1.00      0.00
    3   -2   12      1.58      0.00
    4   -2   12     -1.48      0.00
    5   -2   12      1.05      0.00
    6   -2   12     -0.69      0.00
   -2   -1   12      0.46      0.00
   -1   -1   12     -0.11      0.00
    0   -1   12     -0.73      0.00
    1   -1   12      0.68      0.00
    2   -1   12      1.23      0.00
    3   -1   12     -2.62      0.00
    4   -1   12      1.78      0.00
    5   -1   12     -0.68      0.00
    6   -1   12      0.69      0.00
    7   -1   12     -0.89      0.00
   -3    0   12     -0.01      0.00
   -2    0   12      0.43      0.00
   -1    0   12     -1.58      0.00
    0    0   12      3.24      0.00
    1    0   12     -2.06      0.00
    2    0   12     -1.97      0.00
    3    0   12      3.85      0.00
    4    0   12     -1.75      0.00
    5    0   12      0.06      0.00
    6    0   12     -0.83      0.00
    7    0   12      2.10      0.00
    8    0   12     -1.23      0.00
   -4    1   12     -0.62      0.00
   -3    1   12      0.74      0.00
   -2    1   12     -0.86      0.00
   -1    1   12      2.45      0.00
    0    1   12     -4.40      0.00
    1    1   12      1.93      0.00
    2    1   12      3.56      0.00
    3    1   12     -5.12      0.00
    4    1   12      1.47      0.00
    5    1   12      0.63      0.00
    6    1   12      1.12      0.00
    7    1   12     -3.54      0.00
    8    1   12      2.43      0.00
   -4    2   12      1.03      0.00
   -3    2   12     -0.57      0.00
   -2    2   12     -0.03      0.00
   -1    2   12     -1.63      0.00
    0    2   12      3.62      0.00
    1    2   12     -0.67      0.00
    2    2   12     -4.76      0.00
    3    2   12      5.41      0.00
    4    2   12     -0.87      0.00
    5    2   12     -1.28      0.00
    6    2   12     -1.14      0.00
    7    2   12      4.07      0.00
    8    2   12     -2.88      0.00
    9    2   12      0.60      0.00
   -4    3   12     -0.91      0.00
   -3    3   12     -0.09      0.00
   -2    3   12      1.29      0.00
   -1    3   12      0.08      0.00
    0    3   12     -2.04      0.00
    1    3   12     -0.33      0.00
    2    3   12      4.23      0.00
    3    3   12     -3.79      0.00
    4    3   12     -0.33      0.00
    5    3   12      1.71      0.00
    6    3   12      0.79      0.00
    7    3   12     -3.00      0.00
    8    3   12      1.80      0.00
    9    3   12     -0.31      0.00
   -3    4   12      0.46      0.00
   -2    4   12     -1.81      0.00
   -1    4   12      0.84      0.00
    0    4   12      1.30      0.00
    1    4   12      0.05      0.00
    2    4   12     -2.09      0.00
    3    4   12      0.86      0.00
    4    4   12      1.81      0.00
    5    4   12     -1.77      0.00
    6    4   12     -0.44      0.00
    7    4   12      1.07      0.00
    8    4   12      0.16      0.00
    9    4   12     -0.37      0.00
   -1    5   12     -0.85      0.00
    0    5   12     -1.70      0.00
    1    5   12      1.18      0.00
    2    5   12     -0.39      0.00
    3    5   12      1.54      0.00
    4    5   12     -2.31      0.00
    5    5   12      0.99      0.00
    6    5   12      0.40      0.00
    7    5   12      0.49      0.00
    8    5   12     -1.52      0.00
    9    5   12      0.72      0.00
   -3    6   12      0.13      0.00
   -2    6   12     -1.37      0.00
   -1    6   12      0.18      0.00
    0    6   12      2.36      0.00
    1    6   12     -2.26      0.00
    2    6   12      2.17      0.00
    3    6   12     -2.46      0.00
    4    6   12      1.29      0.00
    5    6   12      0.72      0.00
    6    6   12     -0.54      0.00
    7    6   12     -1.49      0.00
    8    6   12      1.80      0.00
   -4    7   12     -0.83      0.00
   -3    7   12      0.42      0.00
   -2    7   12      0.54      0.00
   -1    7   12      0.88      0.00
    0    7   12     -2.53      0.00
    1    7   12      2.52      0.00
    2    7   12     -2.88      0.00
    3    7   12      2.33      0.00
    4    7   12      0.21      0.00
    5    7   12     -2.49      0.00
    6    7   12      0.63      0.00
    7    7   12      2.06      0.00
    8    7   12     -1.51      0.00
   -4    8   12      1.17      0.00
   -3    8   12     -0.84      0.00
   -2    8   12      0.49      0.00
   -1    8   12     -1.67      0.00
    0    8   12      1.96      0.00
    1    8   12     -1.89      0.00
    2    8   12      2.36      0.00
    3    8   12     -1.53      0.00
    4    8   12     -1.14      0.00
    5    8   12      3.27      0.00
    6    8   12     -0.70      0.00
    7    8   12     -1.81      0.00
   -4    9   12     -0.84      0.00
   -3    9   12      0.92      0.00
   -2    9   12     -1.29      0.00
   -1    9   12      1.84      0.00
    0    9   12     -1.00      0.00
    1    9   12      0.78      0.00
    2    9   12     -1.11      0.00
    3    9   12      0.55      0.00
    4    9   12      1.24      0.00
    5    9   12     -2.65      0.00
    6    9   12      0.53      0.00
   -3   10   12     -0.80      0.00
   -2   10   12      1.70      0.00
   -1   10   12     -1.79      0.00
    0   10   12      0.47      0.00
    1   10   12     -0.09      0.00
    2   10   12      0.40      0.00
    3   10   12     -0.27      0.00
    4   10   12     -0.66      0.00
    5   10   12      1.20      0.00
   -2   11   12     -1.52      0.00
   -1   11   12      1.67      0.00
    0   11   12     -0.60      0.00
    1   11   12      0.20      0.00
    2   11   12     -0.55      0.00
    3   11   12      0.60      0.00
    4   11   12      0.11      0.00
    5   11   12     -0.20      0.00
    0   12   12      0.73      0.00
    1   12   12     -0.44      0.00
    2   12   12      0.57      0.00
    3   12   12     -0.56      0.00
    0   -1   13     -0.67      0.00
    1   -1   13      1.49      0.00
    2   -1   13     -2.39      0.00
    3   -1   13      2.08      0.00
    4   -1   13     -1.23      0.00
    5   -1   13      0.68      0.00
   -1    0   13     -0.01      0.00
    0    0   13      0.77      0.00
    1    0   13     -3.24      0.00
    2    0   13      4.67      0.00
    3    0   13     -3.21      0.00
    4    0   13      1.53      0.00
    5    0   13     -1.46      0.00
    6    0   13      1.56      0.00
   -2    1   13      0.03      0.00
   -1    1   13      0.00      0.00
    0    1   13     -1.40      0.00
    1    1   13      5.09      0.00
    2    1   13     -6.23      0.00
    3    1   13      3.03      0.00
    4    1   13     -0.68      0.00
    5    1   13      1.75      0.00
    6    1   13     -3.00      0.00
    7    1   13      2.18      0.00
   -3    2   13     -0.06      0.00
   -2    2   13      0.34      0.00
   -1    2   13     -0.47      0.00
    0    2   13      2.23      0.00
    1    2   13     -6.18      0.00
    2    2   13      6.47      0.00
    3    2   13     -1.89      0.00
    4    2   13     -0.66      0.00
    5    2   13     -1.38      0.00
    6    2   13      3.58      0.00
    7    2   13     -2.91      0.00
   -3    3   13      0.22      0.00
   -2    3   13     -0.64      0.00
   -1    3   13      0.56      0.00
    0    3   13     -1.94      0.00
    1    3   13      5.12      0.00
    2    3   13     -4.57      0.00
    3    3   13      0.06      0.00
    4    3   13      1.71      0.00
    5    3   13      0.65      0.00
    6    3   13     -2.89      0.00
    7    3   13      2.43      0.00
   -1    4   13      0.24      0.00
    0    4   13      0.06      0.00
    1    4   13     -2.01      0.00
    2    4   13      0.99      0.00
    3    4   13      2.14      0.00
    4    4   13     -2.37      0.00
    5    4   13      0.07      0.00
    6    4   13      1.46      0.00
    7    4   13     -0.93      0.00
   -1    5   13     -1.52      0.00
    0    5   13      2.07      0.00
    1    5   13     -0.83      0.00
    2    5   13      1.71      0.00
    3    5   13     -3.09      0.00
    4    5   13      2.25      0.00
    5    5   13     -0.47      0.00
    6    5   13     -0.15      0.00
    7    5   13     -0.45      0.00
    8    5   13      0.22      0.00
   -1    6   13      2.53      0.00
    0    6   13     -2.96      0.00
    1    6   13      1.82      0.00
    2    6   13     -2.19      0.00
    3    6   13      2.18      0.00
    4    6   13     -1.28      0.00
    5    6   13      0.70      0.00
    6    6   13     -1.00      0.00
    7    6   13      1.10      0.00
   -2    7   13      0.75      0.00
   -1    7   13     -2.74      0.00
    0    7   13      2.42      0.00
    1    7   13     -1.57      0.00
    2    7   13      1.73      0.00
    3    7   13     -1.01      0.00
    4    7   13      0.31      0.00
    5    7   13     -1.00      0.00
    6    7   13      2.18      0.00
    7    7   13     -1.35      0.00
   -2    8   13     -0.87      0.00
   -1    8   13      2.06      0.00
    0    8   13     -1.25      0.00
    1    8   13      1.04      0.00
    2    8   13     -1.41      0.00
    3    8   13      0.74      0.00
    4    8   13      0.02      0.00
    5    8   13      1.09      0.00
    6    8   13     -2.73      0.00
   -2    9   13      0.76      0.00
   -1    9   13     -1.11      0.00
    0    9   13      0.37      0.00
    1    9   13     -0.64      0.00
    2    9   13      1.10      0.00
    3    9   13     -0.94      0.00
    4    9   13      0.15      0.00
    5    9   13     -0.83      0.00
    6    9   13      2.11      0.00
   -1   10   13      0.51      0.00
    0   10   13     -0.02      0.00
    1   10   13      0.45      0.00
    2   10   13     -0.77      0.00
    3   10   13      0.94      0.00
    4   10   13     -0.35      0.00
    5   10   13      0.46      0.00
    0   11   13     -0.17      0.00
    1   11   13     -0.28      0.00
    2   11   13      0.44      0.00
    3   11   13     -0.48      0.00
    4   11   13      0.11      0.00
    1    1   14     -1.65      0.00
    2    1   14      0.32      0.00
    3    1   14      1.08      0.00
    4    1   14     -0.53      0.00
    0    2   14     -1.35      0.00
    1    2   14      1.94      0.00
    2    2   14      0.51      0.00
    3    2   14     -2.44      0.00
    4    2   14      1.06      0.00
    5    2   14      0.54      0.00
    0    3   14      0.72      0.00
    1    3   14     -0.91      0.00
    2    3   14     -1.92      0.00
    3    3   14      3.51      0.00
    4    3   14     -1.46      0.00
    5    3   14     -0.35      0.00
   -1    4   14     -1.11      0.00
    0    4   14      0.73      0.00
    1    4   14     -0.82      0.00
    2    4   14      2.94      0.00
    3    4   14     -3.35      0.00
    4    4   14      1.12      0.00
    5    4   14      0.17      0.00
   -1    5   14      1.79      0.00
    0    5   14     -1.75      0.00
    1    5   14      1.74      0.00
    2    5   14     -2.62      0.00
    3    5   14      2.01      0.00
    4    5   14     -0.30      0.00
    5    5   14     -0.32      0.00
    6    5   14      0.19      0.00
   -1    6   14     -1.89      0.00
    0    6   14      1.68      0.00
    1    6   14     -1.48      0.00
    2    6   14      1.36      0.00
    3    6   14     -0.69      0.00
    4    6   14      0.08      0.00
    5    6   14      0.21      0.00
    6    6   14     -0.08      0.00
   -1    7   14      1.28      0.00
    0    7   14     -0.85      0.00
    1    7   14      0.87      0.00
    2    7   14     -0.44      0.00
    3    7   14      0.14      0.00
    4    7   14     -0.42      0.00
    5    7   14      0.38      0.00
    0    8   14     -0.06      0.00
    1    8   14     -0.49      0.00
    2    8   14      0.30      0.00
    3    8   14     -0.09      0.00
    4    8   14      0.42      0.00
    5    8   14     -0.75      0.00
    0    9   14      0.33      0.00
    1    9   14      0.38      0.00
    2    9   14     -0.54      0.00
    3    9   14      0.31      0.00
    4    9   14     -0.13      0.00
    1   10   14     -0.32      0.00
    2   10   14      0.59      0.00
    3   10   14     -0.53      0.00
    2    4   15     -1.20      0.00
    3    4   15      0.33      0.00
    2    5   15      0.11      0.00
    3    5   15      0.35      0.00
    1    6   15     -0.76      0.00
    2    6   15      0.62      0.00
    3    6   15     -0.24      0.00
    2    7   15     -0.33      0.00
    3    7   15     -0.63      0.00
   12    2    0      1.22      0.00
   12    3    0     -0.94      0.00
   12    4    0      0.38      0.00
  -12    5    0      0.11      0.00
   11    5    0      1.01      0.00
   12    5    0      0.01      0.00
  -12    6    0     -0.15      0.00
   11    6    0     -0.30      0.00
  -12    7    0     -0.18      0.00
  -11    7    0     -0.67      0.00
   10    7    0      0.15      0.00
   11    7    0      0.15      0.00
  -11    8    0     -0.01      0.00
    9    8    0      0.60      0.00
   10    8    0     -0.02      0.00
  -11    9    0      0.17      0.00
  -10    9    0      0.13      0.00
   -9    9    0     -0.20      0.00
   -4    9    0      3.09      0.00
    8    9    0     -0.01      0.00
    9    9    0      0.03      0.00
  -10   10    0      0.07      0.00
   -9   10    0     -0.04      0.00
   -8   10    0      0.24      0.00
   -7   10    0     -0.48      0.00
   -6   10    0     -0.42      0.00
   -5   10    0      1.25      0.00
   -4   10    0     -1.88      0.00
    7   10    0      0.03      0.00
    8   10    0      0.08      0.00
   -9   11    0     -0.03      0.00
   -8   11    0     -0.08      0.00
   -7   11    0      0.10      0.00
   -6   11    0      0.11      0.00
   -5   11    0     -0.19      0.00
   -4   11    0      0.72      0.00
    6   11    0      0.08      0.00
    7   11    0     -0.17      0.00
   -8   12    0     -0.03      0.00
   -7   12    0      0.03      0.00
   -6   12    0      0.18      0.00
   -5   12    0     -0.38      0.00
   -4   12    0     -0.22      0.00
    4   12    0     -0.31      0.00
    5   12    0      0.14      0.00
    6   12    0     -0.22      0.00
   -6   13    0     -0.18      0.00
   -5   13    0      0.41      0.00
   -4   13    0      0.06      0.00
   -3   13    0     -0.25      0.00
   -2   13    0     -0.10      0.00
    1   13    0     -0.11      0.00
    2   13    0      0.16      0.00
    3   13    0     -0.21      0.00
    4   13    0      0.18      0.00
   -4   14    0      0.02      0.00
   -3   14    0      0.32      0.00
   -2   14    0     -0.37      0.00
   -1   14    0      0.39      0.00
    0   14    0     -0.34      0.00
    1   14    0      0.23      0.00
   -3  -13    1      0.02      0.00
   -2  -13    1     -0.10      0.00
   -1  -13    1      0.40      0.00
    0  -13    1     -0.63      0.00
    1  -13    1      0.66      0.00
    2  -13    1     -0.63      0.00
    3  -13    1      0.56      0.00
    4  -13    1      0.02      0.00
    5  -13    1      0.06      0.00
    6  -13    1     -0.09      0.00
   -5  -12    1      0.01      0.00
   -4  -12    1      0.22      0.00
    4  -12    1      0.15      0.00
    5  -12    1      0.26      0.00
    6  -12    1      0.00      0.00
    7  -12    1      0.03      0.00
   -7  -11    1      0.15      0.00
   -6  -11    1     -0.10      0.00
   -5  -11    1      0.52      0.00
    4  -11    1     -0.65      0.00
    5  -11    1     -0.03      0.00
    6  -11    1     -0.16      0.00
    7  -11    1     -0.01      0.00
    8  -11    1     -0.01      0.00
    9  -11    1      0.01      0.00
   -8  -10    1      0.02      0.00
   -7  -10    1      0.07      0.00
    5  -10    1     -0.26      0.00
    6  -10    1      0.15      0.00
    7  -10    1      0.05      0.00
    8  -10    1      0.05      0.00
    9  -10    1      0.05      0.00
   10  -10    1     -0.03      0.00
   -9   -9    1     -0.14      0.00
   -8   -9    1      0.19      0.00
    4   -9    1     -1.11      0.00
    5   -9    1      0.18      0.00
    6   -9    1      0.34      0.00
    7   -9    1     -0.39      0.00
    8   -9    1     -0.08      0.00
    9   -9    1      0.01      0.00
   10   -9    1     -0.07      0.00
   11   -9    1     -0.08      0.00
  -10   -8    1      0.09      0.00
   -9   -8    1     -0.07      0.00
    4   -8    1      0.91      0.00
    5   -8    1     -0.14      0.00
    6   -8    1     -0.49      0.00
    7   -8    1      0.33      0.00
    8   -8    1      0.55      0.00
    9   -8    1     -0.74      0.00
   10   -8    1      0.63      0.00
   11   -8    1     -0.02      0.00
  -10   -7    1     -0.14      0.00
   -9   -7    1      0.08      0.00
    5   -7    1      0.21      0.00
    6   -7    1      0.13      0.00
   11   -7    1      0.62      0.00
   12   -7    1      0.05      0.00
  -11   -6    1      0.08      0.00
  -10   -6    1     -0.20      0.00
   -9   -6    1      0.48      0.00
   12   -6    1      0.09      0.00
  -11   -5    1     -0.37      0.00
  -10   -5    1      0.10      0.00
    6   -5    1     -0.83      0.00
   12   -5    1     -0.02      0.00
  -12   -4    1     -0.12      0.00
  -11   -4    1      0.14      0.00
   12   -4    1     -0.26      0.00
  -12   -3    1      0.13      0.00
  -12   -2    1      0.06      0.00
  -12   -1    1     -0.13      0.00
  -12    4    1      0.45      0.00
   12    4    1     -0.35      0.00
  -12    5    1     -0.33      0.00
   12    5    1     -0.24      0.00
  -12    6    1      0.24      0.00
   11    6    1     -0.12      0.00
   12    6    1      0.29      0.00
  -12    7    1     -0.02      0.00
  -11    7    1      0.25      0.00
   11    7    1      0.13      0.00
  -11    8    1      0.02      0.00
   10    8    1     -0.59      0.00
  -11    9    1     -0.12      0.00
  -10    9    1      0.20      0.00
    9    9    1     -0.52      0.00
   10    9    1      0.11      0.00
  -10   10    1     -0.08      0.00
   -9   10    1      0.21      0.00
    8   10    1     -0.05      0.00
    9   10    1     -0.06      0.00
   -9   11    1      0.02      0.00
   -8   11    1      0.08      0.00
   -7   11    1      0.01      0.00
   -6   11    1     -0.06      0.00
    6   11    1      0.20      0.00
    7   11    1      0.19      0.00
    8   11    1     -0.22      0.00
   -8   12    1      0.08      0.00
   -7   12    1     -0.16      0.00
   -6   12    1      0.01      0.00
   -5   12    1      0.30      0.00
   -4   12    1     -0.96      0.00
    5   12    1     -0.02      0.00
    6   12    1      0.28      0.00
    7   12    1     -0.18      0.00
   -7   13    1      0.12      0.00
   -6   13    1     -0.11      0.00
   -5   13    1      0.24      0.00
   -4   13    1     -0.09      0.00
   -3   13    1     -0.46      0.00
    3   13    1      0.11      0.00
    4   13    1     -0.26      0.00
    5   13    1      0.21      0.00
   -5   14    1     -0.08      0.00
   -4   14    1      0.24      0.00
   -3   14    1     -0.17      0.00
   -2   14    1      0.16      0.00
   -1   14    1     -0.15      0.00
    0   14    1      0.20      0.00
    1   14    1     -0.15      0.00
    2   14    1     -0.03      0.00
    3   14    1     -0.09      0.00
   -2  -13    2     -0.02      0.00
   -1  -13    2     -0.24      0.00
    0  -13    2      0.32      0.00
    1  -13    2     -0.19      0.00
    2  -13    2      0.05      0.00
    3  -13    2     -0.10      0.00
    4  -13    2      0.07      0.00
   -4  -12    2     -0.05      0.00
   -3  -12    2      0.19      0.00
   -2  -12    2     -0.52      0.00
   -1  -12    2      0.78      0.00
    3  -12    2      0.60      0.00
    4  -12    2      0.09      0.00
    5  -12    2      0.15      0.00
    6  -12    2      0.00      0.00
    7  -12    2      0.03      0.00
   -6  -11    2      0.13      0.00
   -5  -11    2     -0.47      0.00
   -4  -11    2      0.62      0.00
    4  -11    2     -0.35      0.00
    5  -11    2      0.00      0.00
    6  -11    2      0.03      0.00
    7  -11    2      0.14      0.00
    8  -11    2     -0.03      0.00
   -7  -10    2      0.01      0.00
   -6  -10    2     -0.41      0.00
    5  -10    2     -0.24      0.00
    6  -10    2     -0.12      0.00
    7  -10    2     -0.14      0.00
    8  -10    2      0.11      0.00
    9  -10    2     -0.03      0.00
   -8   -9    2     -0.07      0.00
   -7   -9    2      0.01      0.00
    5   -9    2      0.49      0.00
    6   -9    2      0.13      0.00
    7   -9    2      0.04      0.00
    8   -9    2     -0.22      0.00
    9   -9    2      0.13      0.00
   10   -9    2      0.03      0.00
   -9   -8    2     -0.07      0.00
   -8   -8    2      0.44      0.00
    5   -8    2     -0.43      0.00
    6   -8    2      0.03      0.00
    7   -8    2      0.07      0.00
    8   -8    2      0.06      0.00
    9   -8    2      0.04      0.00
   10   -8    2     -0.08      0.00
   11   -8    2     -0.04      0.00
  -10   -7    2      0.02      0.00
   -9   -7    2      0.26      0.00
    4   -7    2     -0.74      0.00
    5   -7    2      0.22      0.00
    6   -7    2     -0.11      0.00
    7   -7    2     -0.49      0.00
    8   -7    2      0.68      0.00
    9   -7    2     -0.75      0.00
   11   -7    2      0.04      0.00
   12   -7    2      0.21      0.00
  -10   -6    2      0.01      0.00
   -9   -6    2     -0.33      0.00
    4   -6    2      1.08      0.00
    5   -6    2     -0.30      0.00
    6   -6    2      0.07      0.00
   11   -6    2     -0.14      0.00
   12   -6    2      0.05      0.00
  -11   -5    2      0.28      0.00
  -10   -5    2      0.03      0.00
   -9   -5    2      0.37      0.00
   -8   -5    2     -0.58      0.00
    5   -5    2     -0.12      0.00
   12   -5    2     -0.44      0.00
  -11   -4    2     -0.21      0.00
  -10   -4    2     -0.49      0.00
   -9   -4    2     -0.55      0.00
   -7   -4    2      1.61      0.00
   12   -4    2      0.43      0.00
  -12   -3    2     -0.31      0.00
  -11   -3    2     -0.58      0.00
  -12   -2    2      0.07      0.00
  -12   -1    2      0.29      0.00
  -12    0    2     -0.38      0.00
  -12    1    2      0.25      0.00
  -12    2    2     -0.09      0.00
  -12    3    2     -0.04      0.00
  -12    4    2      0.03      0.00
   12    4    2     -0.91      0.00
  -12    5    2      0.06      0.00
   12    5    2      0.43      0.00
  -12    6    2     -0.10      0.00
   12    6    2     -0.09      0.00
  -12    7    2      0.15      0.00
  -11    7    2     -0.02      0.00
   11    7    2     -0.15      0.00
  -11    8    2      0.15      0.00
   10    8    2      0.69      0.00
   11    8    2      0.00      0.00
  -11    9    2     -0.13      0.00
  -10    9    2      0.01      0.00
    9    9    2      0.91      0.00
   10    9    2      0.21      0.00
  -10   10    2     -0.19      0.00
   -9   10    2      0.26      0.00
    8   10    2      0.34      0.00
    9   10    2      0.18      0.00
   -9   11    2     -0.34      0.00
   -8   11    2      0.10      0.00
    7   11    2     -0.29      0.00
    8   11    2      0.28      0.00
   -8   12    2     -0.03      0.00
   -7   12    2     -0.23      0.00
    5   12    2      0.12      0.00
    6   12    2     -0.45      0.00
    7   12    2      0.17      0.00
   -7   13    2      0.17      0.00
   -6   13    2     -0.24      0.00
   -5   13    2      0.28      0.00
   -4   13    2     -0.08      0.00
    4   13    2      0.62      0.00
    5   13    2     -0.33      0.00
    6   13    2      0.12      0.00
   -5   14    2     -0.03      0.00
   -4   14    2     -0.12      0.00
   -3   14    2      0.38      0.00
   -2   14    2     -0.60      0.00
   -1   14    2      0.55      0.00
    0   14    2     -0.60      0.00
    1   14    2      0.25      0.00
    2   14    2     -0.27      0.00
    3   14    2      0.50      0.00
    4   14    2     -0.08      0.00
   -3  -12    3     -0.28      0.00
   -2  -12    3      0.40      0.00
   -1  -12    3     -0.28      0.00
    0  -12    3      0.11      0.00
    1  -12    3      0.03      0.00
    2  -12    3      0.30      0.00
    3  -12    3     -0.15      0.00
    4  -12    3     -0.11      0.00
    5  -12    3     -0.10      0.00
    6  -12    3      0.00      0.00
   -5  -11    3     -0.02      0.00
   -4  -11    3     -0.19      0.00
   -3  -11    3      0.46      0.00
    4  -11    3      0.24      0.00
    5  -11    3      0.22      0.00
    6  -11    3      0.03      0.00
    7  -11    3      0.07      0.00
    8  -11    3     -0.07      0.00
   -6  -10    3      0.06      0.00
   -5  -10    3     -0.27      0.00
    5  -10    3     -0.22      0.00
    6  -10    3     -0.19      0.00
    7  -10    3      0.19      0.00
    8  -10    3      0.03      0.00
    9  -10    3      0.08      0.00
   -7   -9    3      0.37      0.00
   -6   -9    3     -0.67      0.00
    5   -9    3      0.26      0.00
    6   -9    3      0.18      0.00
    7   -9    3     -0.39      0.00
    8   -9    3      0.08      0.00
    9   -9    3      0.04      0.00
   10   -9    3      0.05      0.00
   -8   -8    3      0.20      0.00
   -7   -8    3     -0.98      0.00
    5   -8    3     -0.18      0.00
    6   -8    3     -0.19      0.00
    7   -8    3      0.32      0.00
    8   -8    3      0.01      0.00
    9   -8    3     -0.38      0.00
   10   -8    3      0.11      0.00
   11   -8    3     -0.01      0.00
   -9   -7    3     -0.18      0.00
   -8   -7    3      0.00      0.00
    5   -7    3      0.05      0.00
    6   -7    3      0.32      0.00
    7   -7    3     -0.03      0.00
    8   -7    3     -0.12      0.00
    9   -7    3      0.36      0.00
   10   -7    3      0.18      0.00
   11   -7    3     -0.12      0.00
   12   -7    3     -0.10      0.00
  -10   -6    3      0.05      0.00
   -9   -6    3      0.29      0.00
   -8   -6    3      0.05      0.00
    4   -6    3      0.33      0.00
    5   -6    3     -0.20      0.00
    6   -6    3      0.04      0.00
    7   -6    3     -0.63      0.00
    8   -6    3      0.38      0.00
   11   -6    3      0.72      0.00
   12   -6    3     -0.07      0.00
  -10   -5    3     -0.23      0.00
   -9   -5    3     -0.05      0.00
   -8   -5    3     -0.77      0.00
   -7   -5    3      2.25      0.00
    5   -5    3      1.08      0.00
    6   -5    3     -0.80      0.00
   12   -5    3      0.19      0.00
  -11   -4    3      0.21      0.00
  -10   -4    3      0.11      0.00
   -9   -4    3      0.24      0.00
   12   -4    3      0.15      0.00
  -11   -3    3     -0.19      0.00
  -12   -2    3     -0.26      0.00
  -11   -2    3      0.66      0.00
  -12   -1    3      0.36      0.00
  -12    0    3     -0.32      0.00
  -12    1    3      0.32      0.00
  -12    2    3     -0.40      0.00
  -12    3    3      0.30      0.00
  -12    4    3     -0.03      0.00
  -12    5    3     -0.12      0.00
   12    5    3     -0.24      0.00
  -12    6    3      0.05      0.00
   12    6    3     -0.16      0.00
  -12    7    3     -0.02      0.00
  -11    7    3     -0.16      0.00
   11    7    3      0.19      0.00
   12    7    3      0.22      0.00
  -11    8    3      0.02      0.00
   11    8    3      0.03      0.00
  -11    9    3      0.08      0.00
  -10    9    3     -0.58      0.00
   10    9    3     -0.14      0.00
  -10   10    3      0.22      0.00
   -9   10    3     -0.58      0.00
    9   10    3     -0.11      0.00
   10   10    3     -0.10      0.00
   -9   11    3      0.11      0.00
   -8   11    3     -0.27      0.00
    8   11    3      0.10      0.00
    9   11    3     -0.12      0.00
   -8   12    3     -0.08      0.00
   -7   12    3     -0.14      0.00
    6   12    3      1.01      0.00
    7   12    3     -0.36      0.00
    8   12    3      0.06      0.00
   -7   13    3     -0.10      0.00
   -6   13    3     -0.01      0.00
   -5   13    3      0.27      0.00
    4   13    3     -0.53      0.00
    5   13    3      0.52      0.00
    6   13    3     -0.20      0.00
   -5   14    3     -0.07      0.00
   -4   14    3      0.36      0.00
   -3   14    3     -0.64      0.00
   -2   14    3      0.56      0.00
   -1   14    3     -0.36      0.00
    0   14    3      0.34      0.00
    1   14    3     -0.25      0.00
    2   14    3      0.58      0.00
    3   14    3     -0.30      0.00
    4   14    3     -0.16      0.00
   -1  -12    4      0.18      0.00
    0  -12    4     -0.22      0.00
    1  -12    4      0.30      0.00
    2  -12    4     -0.51      0.00
    3  -12    4      0.17      0.00
    4  -12    4     -0.08      0.00
   -4  -11    4      0.12      0.00
   -3  -11    4     -0.16      0.00
   -2  -11    4      0.15      0.00
   -1  -11    4     -0.32      0.00
    0  -11    4      0.65      0.00
    3  -11    4     -0.28      0.00
    4  -11    4      0.29      0.00
    5  -11    4     -0.21      0.00
    6  -11    4      0.00      0.00
    7  -11    4     -0.16      0.00
   -5  -10    4      0.03      0.00
   -4  -10    4      0.20      0.00
    5  -10    4      0.46      0.00
    6  -10    4      0.00      0.00
    7  -10    4      0.15      0.00
    8  -10    4      0.03      0.00
   -7   -9    4      0.07      0.00
   -6   -9    4      0.05      0.00
   -5   -9    4      0.16      0.00
    5   -9    4     -0.75      0.00
    6   -9    4     -0.04      0.00
    7   -9    4      0.13      0.00
    8   -9    4     -0.19      0.00
    9   -9    4      0.19      0.00
   10   -9    4     -0.04      0.00
   -8   -8    4     -0.05      0.00
   -7   -8    4      0.08      0.00
   -6   -8    4      0.11      0.00
    5   -8    4      0.63      0.00
    6   -8    4      0.09      0.00
    7   -8    4     -0.34      0.00
    8   -8    4      0.11      0.00
    9   -8    4      0.20      0.00
   10   -8    4     -0.13      0.00
   11   -8    4      0.04      0.00
   -9   -7    4      0.08      0.00
   -8   -7    4      0.05      0.00
   -7   -7    4     -0.05      0.00
    5   -7    4     -0.18      0.00
    6   -7    4     -0.09      0.00
    7   -7    4      0.31      0.00
    8   -7    4     -0.03      0.00
    9   -7    4     -0.42      0.00
   10   -7    4      0.17      0.00
   11   -7    4     -0.14      0.00
   -9   -6    4     -0.27      0.00
   -8   -6    4     -0.12      0.00
   -7   -6    4     -0.06      0.00
    5   -6    4      0.29      0.00
    6   -6    4     -0.35      0.00
    7   -6    4     -0.04      0.00
    8   -6    4      0.12      0.00
    9   -6    4      0.06      0.00
   10   -6    4      0.28      0.00
   11   -6    4      0.11      0.00
   12   -6    4      0.16      0.00
  -10   -5    4      0.08      0.00
   -9   -5    4      0.07      0.00
   -8   -5    4      0.55      0.00
   -7   -5    4      0.25      0.00
    5   -5    4     -0.72      0.00
    6   -5    4      0.86      0.00
    7   -5    4     -0.43      0.00
   11   -5    4     -0.31      0.00
   12   -5    4      0.19      0.00
  -10   -4    4     -0.25      0.00
   -9   -4    4      0.18      0.00
   12   -4    4     -1.01      0.00
  -11   -3    4     -0.18      0.00
  -10   -3    4     -0.21      0.00
  -11   -2    4     -0.19      0.00
  -12   -1    4      0.02      0.00
  -11   -1    4      1.01      0.00
  -12    0    4      0.07      0.00
  -12    1    4     -0.12      0.00
  -12    2    4      0.15      0.00
  -12    3    4     -0.09      0.00
  -12    4    4     -0.06      0.00
  -12    5    4      0.08      0.00
  -11    5    4      0.04      0.00
   12    5    4      0.08      0.00
  -12    6    4      0.01      0.00
  -11    6    4     -0.01      0.00
   12    6    4     -0.08      0.00
  -11    7    4     -0.03      0.00
   11    7    4     -0.45      0.00
   12    7    4     -0.07      0.00
  -11    8    4      0.10      0.00
   11    8    4      0.28      0.00
  -10    9    4      0.60      0.00
   10    9    4      0.92      0.00
   11    9    4     -0.01      0.00
  -10   10    4     -0.11      0.00
   -9   10    4      0.23      0.00
    9   10    4      1.11      0.00
   10   10    4      0.04      0.00
   -9   11    4      0.05      0.00
   -8   11    4      0.34      0.00
    8   11    4      0.34      0.00
    9   11    4     -0.15      0.00
   -8   12    4      0.03      0.00
   -7   12    4      0.40      0.00
    7   12    4     -0.18      0.00
    8   12    4      0.18      0.00
   -7   13    4      0.04      0.00
   -6   13    4      0.16      0.00
   -5   13    4     -0.25      0.00
    5   13    4      0.03      0.00
    6   13    4     -0.05      0.00
    7   13    4      0.05      0.00
   -6   14    4      0.19      0.00
   -5   14    4     -0.19      0.00
   -4   14    4      0.11      0.00
   -3   14    4     -0.46      0.00
   -2   14    4      0.77      0.00
    3   14    4     -0.09      0.00
    4   14    4     -0.05      0.00
    5   14    4      0.18      0.00
   -2  -11    5      0.00      0.00
   -1  -11    5     -0.02      0.00
    0  -11    5      0.00      0.00
    1  -11    5      0.17      0.00
    2  -11    5     -0.21      0.00
    3  -11    5     -0.09      0.00
    4  -11    5     -0.13      0.00
    5  -11    5     -0.10      0.00
    6  -11    5     -0.03      0.00
   -4  -10    5     -0.02      0.00
   -3  -10    5     -0.04      0.00
   -2  -10    5      0.05      0.00
    4  -10    5      0.07      0.00
    5  -10    5      0.24      0.00
    6  -10    5     -0.02      0.00
    7  -10    5      0.05      0.00
    8  -10    5     -0.16      0.00
   -6   -9    5     -0.05      0.00
   -5   -9    5     -0.08      0.00
   -4   -9    5      0.17      0.00
    5   -9    5     -0.07      0.00
    6   -9    5     -0.14      0.00
    7   -9    5      0.02      0.00
    8   -9    5      0.19      0.00
    9   -9    5     -0.12      0.00
   -7   -8    5      0.07      0.00
   -6   -8    5      0.05      0.00
   -5   -8    5      0.19      0.00
    5   -8    5     -0.33      0.00
    6   -8    5      0.24      0.00
    7   -8    5     -0.01      0.00
    8   -8    5     -0.08      0.00
    9   -8    5      0.06      0.00
   10   -8    5      0.00      0.00
   -8   -7    5      0.03      0.00
   -7   -7    5      0.17      0.00
   -6   -7    5     -0.18      0.00
    5   -7    5      0.78      0.00
    6   -7    5     -0.24      0.00
    7   -7    5     -0.15      0.00
    8   -7    5      0.04      0.00
    9   -7    5     -0.02      0.00
   10   -7    5      0.14      0.00
   11   -7    5      0.01      0.00
   -9   -6    5      0.01      0.00
   -8   -6    5      0.36      0.00
   -7   -6    5     -0.45      0.00
   -6   -6    5      0.02      0.00
    6   -6    5      0.54      0.00
    7   -6    5      0.05      0.00
    8   -6    5      0.23      0.00
    9   -6    5     -0.09      0.00
   10   -6    5     -0.08      0.00
   11   -6    5     -0.02      0.00
   -9   -5    5     -0.01      0.00
   -8   -5    5     -0.31      0.00
   -7   -5    5     -0.43      0.00
   -6   -5    5      1.17      0.00
    6   -5    5     -1.45      0.00
   11   -5    5      0.50      0.00
   12   -5    5      0.12      0.00
  -10   -4    5     -0.08      0.00
   -9   -4    5      0.19      0.00
   -8   -4    5     -0.53      0.00
   12   -4    5     -0.08      0.00
  -10   -3    5      0.25      0.00
   12   -3    5      0.15      0.00
  -11   -2    5      0.12      0.00
  -10   -2    5     -0.20      0.00
  -11   -1    5     -0.16      0.00
  -11    0    5      0.16      0.00
  -11    1    5      0.04      0.00
  -12    2    5     -0.08      0.00
  -11    2    5     -0.33      0.00
  -12    3    5      0.21      0.00
  -11    3    5      0.37      0.00
  -12    4    5     -0.26      0.00
  -11    4    5     -0.14      0.00
   12    4    5     -0.30      0.00
  -11    5    5     -0.01      0.00
   12    5    5      0.21      0.00
  -11    6    5     -0.03      0.00
   12    6    5     -0.23      0.00
  -11    7    5      0.13      0.00
   12    7    5      0.14      0.00
  -11    8    5     -0.14      0.00
  -10    8    5      0.06      0.00
   11    8    5     -0.07      0.00
  -10    9    5      0.13      0.00
   10    9    5     -0.95      0.00
   11    9    5      0.31      0.00
  -10   10    5     -0.16      0.00
   -9   10    5      0.12      0.00
   10   10    5      0.25      0.00
   -9   11    5      0.11      0.00
   -8   11    5     -0.41      0.00
    9   11    5      0.20      0.00
   -8   12    5      0.03      0.00
   -7   12    5     -0.20      0.00
    7   12    5      0.09      0.00
    8   12    5      0.06      0.00
   -7   13    5      0.04      0.00
   -6   13    5     -0.13      0.00
    6   13    5     -0.04      0.00
    7   13    5     -0.16      0.00
   -6   14    5      0.14      0.00
   -5   14    5     -0.16      0.00
   -4   14    5      0.08      0.00
   -3   14    5     -0.03      0.00
    3   14    5      0.61      0.00
    4   14    5     -0.10      0.00
    5   14    5     -0.08      0.00
    1  -11    6      0.03      0.00
    2  -11    6      0.01      0.00
    3  -11    6      0.00      0.00
   -3  -10    6      0.05      0.00
   -2  -10    6     -0.02      0.00
   -1  -10    6      0.03      0.00
    0  -10    6     -0.10      0.00
    1  -10    6      0.35      0.00
    2  -10    6     -0.06      0.00
    3  -10    6     -0.03      0.00
    4  -10    6     -0.08      0.00
    5  -10    6     -0.14      0.00
    6  -10    6     -0.11      0.00
   -4   -9    6      0.19      0.00
   -3   -9    6     -0.38      0.00
    5   -9    6      0.25      0.00
    6   -9    6      0.07      0.00
    7   -9    6      0.02      0.00
    8   -9    6      0.04      0.00
   -6   -8    6     -0.08      0.00
   -5   -8    6      0.16      0.00
   -4   -8    6     -0.24      0.00
    5   -8    6     -0.14      0.00
    6   -8    6      0.05      0.00
    7   -8    6      0.02      0.00
    8   -8    6     -0.03      0.00
    9   -8    6      0.00      0.00
   -7   -7    6      0.01      0.00
   -6   -7    6      0.13      0.00
   -5   -7    6      0.00      0.00
    6   -7    6     -0.18      0.00
    7   -7    6      0.15      0.00
    8   -7    6     -0.02      0.00
    9   -7    6      0.08      0.00
   10   -7    6     -0.09      0.00
   -8   -6    6     -0.10      0.00
   -7   -6    6      0.27      0.00
   -6   -6    6     -0.03      0.00
    7   -6    6     -0.15      0.00
    8   -6    6     -0.16      0.00
    9   -6    6      0.01      0.00
   10   -6    6      0.12      0.00
   11   -6    6     -0.18      0.00
   -8   -5    6      0.06      0.00
   -7   -5    6      0.21      0.00
   -6   -5    6     -0.40      0.00
   10   -5    6      0.46      0.00
   11   -5    6     -0.12      0.00
   12   -5    6      0.07      0.00
   -9   -4    6     -0.17      0.00
   -8   -4    6      0.66      0.00
   11   -4    6      0.41      0.00
   12   -4    6      0.09      0.00
  -10   -3    6     -0.14      0.00
   -9   -3    6      0.17      0.00
   12   -3    6     -0.45      0.00
  -10   -2    6      0.17      0.00
   12   -2    6      0.35      0.00
  -10   -1    6      0.02      0.00
  -11    0    6     -0.29      0.00
  -10    0    6     -0.33      0.00
  -11    1    6      0.20      0.00
  -11    2    6     -0.02      0.00
  -11    3    6     -0.18      0.00
   12    3    6      0.15      0.00
  -11    4    6      0.23      0.00
   12    4    6     -0.07      0.00
  -11    5    6     -0.15      0.00
  -10    5    6     -0.46      0.00
   12    5    6     -0.16      0.00
  -11    6    6      0.09      0.00
  -10    6    6      0.41      0.00
   12    6    6      0.18      0.00
  -11    7    6     -0.08      0.00
  -10    7    6     -0.18      0.00
   11    7    6      1.09      0.00
   12    7    6      0.05      0.00
  -10    8    6      0.00      0.00
   11    8    6     -0.52      0.00
  -10    9    6      0.06      0.00
   -9    9    6      0.02      0.00
   10    9    6     -1.18      0.00
   11    9    6     -0.16      0.00
   -9   10    6      0.26      0.00
   10   10    6      0.45      0.00
   -9   11    6     -0.27      0.00
   -8   11    6      0.60      0.00
    9   11    6      0.74      0.00
   -8   12    6     -0.32      0.00
   -7   12    6      0.50      0.00
    7   12    6      0.00      0.00
    8   12    6      0.21      0.00
   -7   13    6     -0.28      0.00
   -6   13    6      0.37      0.00
    6   13    6      0.81      0.00
    7   13    6     -0.29      0.00
   -6   14    6     -0.14      0.00
   -5   14    6      0.26      0.00
   -4   14    6     -0.40      0.00
   -3   14    6      0.84      0.00
    3   14    6      0.83      0.00
    4   14    6     -0.97      0.00
    5   14    6      0.54      0.00
    6   14    6     -0.15      0.00
    0  -10    7      0.01      0.00
    1  -10    7     -0.24      0.00
    2  -10    7      0.04      0.00
    3  -10    7     -0.04      0.00
    4  -10    7     -0.13      0.00
   -3   -9    7     -0.05      0.00
   -2   -9    7     -0.01      0.00
   -1   -9    7      0.32      0.00
    0   -9    7     -0.83      0.00
    1   -9    7      0.68      0.00
    2   -9    7      0.03      0.00
    3   -9    7      0.12      0.00
    4   -9    7      0.11      0.00
    5   -9    7     -0.19      0.00
    6   -9    7      0.04      0.00
    7   -9    7     -0.04      0.00
   -5   -8    7      0.02      0.00
   -4   -8    7      0.07      0.00
   -3   -8    7     -0.69      0.00
    5   -8    7      0.17      0.00
    6   -8    7     -0.13      0.00
    7   -8    7      0.18      0.00
    8   -8    7     -0.23      0.00
    9   -8    7      0.07      0.00
   -6   -7    7     -0.13      0.00
   -5   -7    7     -0.06      0.00
   -4   -7    7     -0.51      0.00
    6   -7    7      0.07      0.00
    7   -7    7     -0.08      0.00
    8   -7    7      0.15      0.00
    9   -7    7     -0.05      0.00
   10   -7    7      0.04      0.00
   -7   -6    7     -0.08      0.00
   -6   -6    7     -0.17      0.00
   -5   -6    7      0.03      0.00
    7   -6    7     -0.31      0.00
    8   -6    7      0.48      0.00
    9   -6    7     -0.18      0.00
   10   -6    7     -0.14      0.00
   11   -6    7      0.14      0.00
   -8   -5    7     -0.12      0.00
   -7   -5    7     -0.13      0.00
   -6   -5    7      0.34      0.00
   -5   -5    7      0.56      0.00
   10   -5    7     -0.16      0.00
   11   -5    7     -0.07      0.00
   -8   -4    7     -0.07      0.00
   -7   -4    7      0.21      0.00
   11   -4    7     -0.01      0.00
   12   -4    7      0.01      0.00
   -9   -3    7      0.04      0.00
   -8   -3    7      0.35      0.00
   12   -3    7      0.08      0.00
   -9   -2    7      0.03      0.00
   12   -2    7     -0.02      0.00
  -10   -1    7      0.03      0.00
   -9   -1    7     -0.44      0.00
   12   -1    7      0.06      0.00
  -10    0    7     -0.09      0.00
  -10    1    7      0.07      0.00
  -11    2    7      0.06      0.00
  -10    2    7     -0.17      0.00
   12    2    7     -0.32      0.00
  -11    3    7     -0.03      0.00
  -10    3    7      0.36      0.00
   12    3    7     -0.01      0.00
  -11    4    7     -0.04      0.00
  -10    4    7     -0.36      0.00
   12    4    7      0.11      0.00
  -11    5    7      0.06      0.00
  -10    5    7      0.20      0.00
   -9    5    7     -0.79      0.00
   12    5    7     -0.04      0.00
  -10    6    7     -0.07      0.00
   -9    6    7      0.40      0.00
   12    6    7      0.11      0.00
  -10    7    7      0.01      0.00
   -9    7    7     -0.25      0.00
   11    7    7     -0.38      0.00
   12    7    7     -0.16      0.00
  -10    8    7      0.00      0.00
   -9    8    7      0.05      0.00
   11    8    7      0.34      0.00
  -10    9    7      0.03      0.00
   -9    9    7      0.13      0.00
   10    9    7      1.03      0.00
   11    9    7     -0.23      0.00
   -9   10    7     -0.13      0.00
   -8   10    7      0.54      0.00
    5   10    7     -1.68      0.00
    9   10    7      0.82      0.00
   10   10    7     -0.06      0.00
   -8   11    7     -0.23      0.00
    9   11    7      0.05      0.00
   -8   12    7      0.05      0.00
   -7   12    7      0.01      0.00
    7   12    7      0.50      0.00
    8   12    7     -0.10      0.00
    9   12    7     -0.17      0.00
   -7   13    7      0.00      0.00
   -6   13    7     -0.05      0.00
   -5   13    7      0.49      0.00
    6   13    7      0.25      0.00
    7   13    7     -0.21      0.00
   -5   14    7      0.20      0.00
   -4   14    7     -0.21      0.00
   -3   14    7      0.00      0.00
    3   14    7     -1.45      0.00
    4   14    7      0.93      0.00
    5   14    7     -0.19      0.00
    6   14    7      0.01      0.00
   -1   -9    8      0.05      0.00
    0   -9    8     -0.13      0.00
    1   -9    8      0.53      0.00
    2   -9    8     -0.60      0.00
    3   -9    8      0.08      0.00
    4   -9    8     -0.11      0.00
    5   -9    8     -0.04      0.00
   -3   -8    8     -0.11      0.00
   -2   -8    8      0.19      0.00
   -1   -8    8      0.09      0.00
    0   -8    8      0.20      0.00
    3   -8    8      0.31      0.00
    4   -8    8     -0.27      0.00
    5   -8    8      0.34      0.00
    6   -8    8     -0.08      0.00
    7   -8    8     -0.14      0.00
   -4   -7    8      0.02      0.00
   -3   -7    8     -0.01      0.00
    6   -7    8      0.40      0.00
    7   -7    8      0.20      0.00
    8   -7    8     -0.37      0.00
    9   -7    8      0.08      0.00
   -6   -6    8      0.01      0.00
   -5   -6    8     -0.11      0.00
   -4   -6    8     -0.39      0.00
    7   -6    8      0.31      0.00
    8   -6    8     -0.04      0.00
    9   -6    8     -0.19      0.00
   10   -6    8      0.13      0.00
   -7   -5    8      0.14      0.00
   -6   -5    8     -0.04      0.00
   -5   -5    8     -0.63      0.00
    9   -5    8     -0.02      0.00
   10   -5    8     -0.01      0.00
   11   -5    8      0.02      0.00
   -7   -4    8      0.06      0.00
   -6   -4    8     -0.88      0.00
   10   -4    8     -0.46      0.00
   11   -4    8     -0.25      0.00
   -8   -3    8      0.04      0.00
   -7   -3    8     -0.63      0.00
   11   -3    8      0.24      0.00
   12   -3    8     -0.14      0.00
   -9   -2    8      0.07      0.00
   -8   -2    8      0.08      0.00
   12   -2    8      0.05      0.00
   -9   -1    8     -0.09      0.00
   12   -1    8     -0.05      0.00
   -9    0    8     -0.04      0.00
   12    0    8      0.28      0.00
  -10    1    8      0.11      0.00
   -9    1    8      0.34      0.00
   12    1    8     -0.41      0.00
  -10    2    8      0.07      0.00
   -9    2    8     -0.53      0.00
   12    2    8      0.33      0.00
  -10    3    8     -0.21      0.00
   -9    3    8      0.47      0.00
   12    3    8     -0.23      0.00
  -10    4    8      0.19      0.00
   -9    4    8     -0.28      0.00
   12    4    8      0.15      0.00
  -10    5    8     -0.03      0.00
   -9    5    8      0.11      0.00
   -8    5    8      0.65      0.00
   12    5    8      0.01      0.00
  -10    6    8     -0.09      0.00
   -9    6    8     -0.10      0.00
   11    6    8      0.20      0.00
   12    6    8     -0.18      0.00
  -10    7    8      0.12      0.00
   -9    7    8      0.19      0.00
   11    7    8     -0.54      0.00
   12    7    8      0.12      0.00
   -9    8    8     -0.15      0.00
   11    8    8      0.37      0.00
   -9    9    8      0.05      0.00
   10    9    8      0.17      0.00
   11    9    8      0.10      0.00
   -9   10    8     -0.03      0.00
   -8   10    8      0.12      0.00
    9   10    8      0.17      0.00
   10   10    8     -0.11      0.00
   -8   11    8     -0.11      0.00
   -7   11    8      0.44      0.00
    8   11    8      0.17      0.00
    9   11    8     -0.27      0.00
   -7   12    8     -0.32      0.00
   -6   12    8      0.07      0.00
    7   12    8     -0.02      0.00
    8   12    8     -0.21      0.00
   -6   13    8      0.01      0.00
   -5   13    8      0.03      0.00
    6   13    8     -0.27      0.00
    7   13    8     -0.01      0.00
   -5   14    8      0.00      0.00
   -4   14    8      0.11      0.00
   -3   14    8     -0.11      0.00
    3   14    8      0.23      0.00
    4   14    8      0.07      0.00
    5   14    8     -0.21      0.00
    6   14    8     -0.02      0.00
   -1   -8    9     -0.01      0.00
    0   -8    9     -0.18      0.00
    1   -8    9      0.20      0.00
    2   -8    9      0.45      0.00
    3   -8    9     -0.55      0.00
    4   -8    9      0.08      0.00
    5   -8    9     -0.04      0.00
    6   -8    9      0.05      0.00
   -3   -7    9     -0.05      0.00
   -2   -7    9     -0.04      0.00
   -1   -7    9      0.12      0.00
    0   -7    9      0.49      0.00
    4   -7    9     -0.64      0.00
    5   -7    9      0.37      0.00
    6   -7    9     -0.06      0.00
    7   -7    9     -0.08      0.00
    8   -7    9      0.06      0.00
   -4   -6    9      0.18      0.00
   -3   -6    9      0.14      0.00
    6   -6    9      0.01      0.00
    7   -6    9      0.28      0.00
    8   -6    9     -0.26      0.00
    9   -6    9      0.13      0.00
   -5   -5    9      0.18      0.00
   -4   -5    9     -0.15      0.00
    8   -5    9      0.19      0.00
    9   -5    9     -0.20      0.00
   10   -5    9      0.03      0.00
   -6   -4    9      0.11      0.00
   -5   -4    9     -0.25      0.00
    9   -4    9     -0.63      0.00
   10   -4    9      0.00      0.00
   11   -4    9      0.20      0.00
   -7   -3    9     -0.01      0.00
   -6   -3    9     -0.36      0.00
   10   -3    9     -0.52      0.00
   11   -3    9     -0.38      0.00
   -8   -2    9     -0.35      0.00
   -7   -2    9     -0.25      0.00
   11   -2    9      0.12      0.00
   12   -2    9      0.06      0.00
   -8   -1    9      0.26      0.00
   11   -1    9      0.20      0.00
   12   -1    9     -0.03      0.00
   -9    0    9     -0.03      0.00
   -8    0    9      0.06      0.00
   12    0    9      0.03      0.00
   -9    1    9      0.13      0.00
   -8    1    9     -0.41      0.00
   12    1    9      0.00      0.00
   -9    2    9     -0.20      0.00
   12    2    9     -0.05      0.00
   -9    3    9      0.24      0.00
   12    3    9      0.02      0.00
   -9    4    9     -0.14      0.00
   12    4    9      0.10      0.00
   -9    5    9     -0.05      0.00
   -8    5    9      0.22      0.00
   -7    5    9     -1.20      0.00
   -6    5    9      1.88      0.00
   11    5    9     -0.57      0.00
   12    5    9     -0.22      0.00
   -9    6    9      0.17      0.00
   -8    6    9     -0.27      0.00
   11    6    9      0.43      0.00
   12    6    9      0.22      0.00
   -9    7    9     -0.13      0.00
   -8    7    9     -0.05      0.00
   11    7    9     -0.04      0.00
   12    7    9     -0.12      0.00
   -9    8    9      0.02      0.00
   -8    8    9      0.28      0.00
   10    8    9     -0.58      0.00
   11    8    9     -0.22      0.00
   -9    9    9      0.00      0.00
   -8    9    9     -0.13      0.00
    6    9    9      1.47      0.00
    9    9    9     -0.21      0.00
   10    9    9     -0.26      0.00
   11    9    9      0.13      0.00
   -8   10    9     -0.10      0.00
   -7   10    9     -0.17      0.00
    8   10    9      0.00      0.00
    9   10    9     -0.07      0.00
   10   10    9      0.08      0.00
   -7   11    9      0.07      0.00
    8   11    9      0.25      0.00
    9   11    9     -0.24      0.00
   -7   12    9     -0.10      0.00
   -6   12    9      0.34      0.00
    7   12    9      0.33      0.00
    8   12    9     -0.25      0.00
   -6   13    9     -0.20      0.00
   -5   13    9      0.05      0.00
   -4   13    9      0.24      0.00
    5   13    9     -0.37      0.00
    6   13    9      0.22      0.00
    7   13    9     -0.13      0.00
   -4   14    9     -0.02      0.00
   -3   14    9      0.03      0.00
   -2   14    9     -0.12      0.00
   -1   14    9     -0.63      0.00
    0   14    9      1.08      0.00
    1   14    9     -0.87      0.00
    2   14    9      0.38      0.00
    3   14    9      0.03      0.00
    4   14    9     -0.20      0.00
    5   14    9      0.09      0.00
    6   14    9      0.00      0.00
   -1   -7   10      0.10      0.00
    0   -7   10     -0.14      0.00
    1   -7   10     -0.11      0.00
    2   -7   10      0.39      0.00
    3   -7   10      0.05      0.00
    4   -7   10     -0.22      0.00
    5   -7   10      0.06      0.00
    6   -7   10      0.13      0.00
   -3   -6   10      0.09      0.00
   -2   -6   10     -0.32      0.00
   -1   -6   10      0.03      0.00
    0   -6   10      0.16      0.00
    1   -6   10      0.69      0.00
    3   -6   10      0.23      0.00
    4   -6   10      0.12      0.00
    5   -6   10     -0.14      0.00
    6   -6   10     -0.01      0.00
    7   -6   10     -0.07      0.00
    8   -6   10     -0.02      0.00
   -4   -5   10      0.21      0.00
   -3   -5   10     -0.24      0.00
   -2   -5   10      0.67      0.00
    6   -5   10      0.06      0.00
    7   -5   10     -0.09      0.00
    8   -5   10     -0.01      0.00
    9   -5   10     -0.02      0.00
   -5   -4   10      0.19      0.00
   -4   -4   10      0.31      0.00
   -3   -4   10     -0.18      0.00
    8   -4   10     -0.63      0.00
    9   -4   10      0.12      0.00
   10   -4   10      0.18      0.00
   -6   -3   10     -0.15      0.00
   -5   -3   10      0.79      0.00
    9   -3   10     -1.10      0.00
   10   -3   10     -0.32      0.00
   -7   -2   10     -0.08      0.00
   -6   -2   10      0.86      0.00
   10   -2   10     -0.06      0.00
   11   -2   10     -0.03      0.00
   -7   -1   10      0.25      0.00
   11   -1   10     -0.01      0.00
   -8    0   10      0.27      0.00
   -7    0   10     -0.48      0.00
   11    0   10      0.17      0.00
   12    0   10      0.01      0.00
   -8    1   10     -0.28      0.00
   -7    1   10      0.64      0.00
   11    1   10     -0.44      0.00
   12    1   10      0.00      0.00
   -8    2   10      0.18      0.00
   11    2   10      0.68      0.00
   12    2   10      0.04      0.00
   -9    3   10     -0.02      0.00
   -8    3   10     -0.11      0.00
   11    3   10     -0.60      0.00
   12    3   10     -0.01      0.00
   -9    4   10     -0.01      0.00
   -8    4   10     -0.01      0.00
   -7    4   10     -0.70      0.00
   11    4   10      0.15      0.00
   12    4   10     -0.02      0.00
   -9    5   10      0.01      0.00
   -8    5   10      0.13      0.00
   -7    5   10      0.36      0.00
   -6    5   10     -0.47      0.00
   -5    5   10      0.36      0.00
   11    5   10      0.23      0.00
   12    5   10     -0.02      0.00
   -9    6   10     -0.02      0.00
   -8    6   10     -0.05      0.00
   -7    6   10     -0.22      0.00
   -6    6   10      0.34      0.00
   11    6   10     -0.25      0.00
   12    6   10      0.08      0.00
   -8    7   10     -0.07      0.00
   -7    7   10      0.28      0.00
   10    7   10     -1.66      0.00
   11    7   10      0.10      0.00
   -8    8   10      0.11      0.00
   -7    8   10     -0.27      0.00
   10    8   10      0.51      0.00
   11    8   10      0.00      0.00
   -8    9   10     -0.13      0.00
   -7    9   10      0.16      0.00
    6    9   10      0.44      0.00
    9    9   10      0.67      0.00
   10    9   10      0.20      0.00
   -7   10   10      0.03      0.00
   -6   10   10      0.46      0.00
    6   10   10     -0.62      0.00
    7   10   10      0.23      0.00
    8   10   10      0.03      0.00
    9   10   10      0.20      0.00
   10   10   10     -0.19      0.00
   -7   11   10     -0.15      0.00
   -6   11   10      0.09      0.00
    6   11   10      0.22      0.00
    7   11   10      0.11      0.00
    8   11   10      0.03      0.00
    9   11   10     -0.08      0.00
   -6   12   10     -0.27      0.00
   -5   12   10      0.68      0.00
    5   12   10     -0.13      0.00
    6   12   10      0.26      0.00
    7   12   10     -0.18      0.00
    8   12   10     -0.01      0.00
   -5   13   10     -0.37      0.00
   -4   13   10      0.88      0.00
   -3   13   10     -1.24      0.00
    4   13   10     -0.19      0.00
    5   13   10      0.18      0.00
    6   13   10     -0.25      0.00
    7   13   10      0.04      0.00
   -4   14   10     -0.03      0.00
   -3   14   10      0.11      0.00
   -2   14   10     -0.19      0.00
   -1   14   10      0.41      0.00
    0   14   10     -0.29      0.00
    1   14   10      0.30      0.00
    2   14   10     -0.16      0.00
    3   14   10     -0.03      0.00
    4   14   10     -0.02      0.00
    5   14   10      0.10      0.00
    0   -6   11     -0.12      0.00
    1   -6   11      0.02      0.00
    2   -6   11     -0.09      0.00
    3   -6   11      0.21      0.00
    4   -6   11     -0.12      0.00
    5   -6   11      0.00      0.00
   -2   -5   11     -0.17      0.00
   -1   -5   11     -0.18      0.00
    0   -5   11     -0.18      0.00
    1   -5   11      0.56      0.00
    2   -5   11     -0.03      0.00
    3   -5   11     -0.33      0.00
    4   -5   11      0.19      0.00
    5   -5   11      0.14      0.00
    6   -5   11     -0.10      0.00
    7   -5   11     -0.15      0.00
   -4   -4   11     -0.08      0.00
   -3   -4   11     -0.18      0.00
   -2   -4   11      0.08      0.00
    6   -4   11      0.87      0.00
    7   -4   11     -0.43      0.00
    8   -4   11      0.10      0.00
    9   -4   11     -0.09      0.00
   -5   -3   11      0.04      0.00
   -4   -3   11      0.12      0.00
   -3   -3   11      0.30      0.00
    8   -3   11     -0.57      0.00
    9   -3   11     -0.12      0.00
   -5   -2   11      0.04      0.00
   -4   -2   11      0.12      0.00
    9   -2   11      0.16      0.00
   10   -2   11     -0.31      0.00
   -6   -1   11      0.18      0.00
   -5   -1   11      0.03      0.00
   10   -1   11      0.40      0.00
   11   -1   11     -0.02      0.00
   -7    0   11      0.06      0.00
   -6    0   11     -0.33      0.00
   10    0   11     -0.23      0.00
   11    0   11      0.09      0.00
   -7    1   11     -0.16      0.00
   -6    1   11      0.25      0.00
   10    1   11     -0.25      0.00
   11    1   11     -0.02      0.00
   -7    2   11      0.24      0.00
   10    2   11      0.83      0.00
   11    2   11     -0.17      0.00
   -8    3   11     -0.04      0.00
   -7    3   11     -0.30      0.00
   11    3   11      0.25      0.00
   12    3   11     -0.13      0.00
   -8    4   11      0.11      0.00
   -7    4   11      0.25      0.00
   -6    4   11     -0.04      0.00
   11    4   11     -0.11      0.00
   12    4   11     -0.07      0.00
   -8    5   11     -0.22      0.00
   -7    5   11     -0.09      0.00
   -6    5   11      0.01      0.00
   -5    5   11     -0.46      0.00
   -4    5   11      1.46      0.00
   -3    5   11     -1.10      0.00
   10    5   11      0.43      0.00
   11    5   11      0.02      0.00
   -8    6   11      0.21      0.00
   -7    6   11      0.01      0.00
   -6    6   11     -0.11      0.00
   -5    6   11      0.58      0.00
   10    6   11     -0.19      0.00
   11    6   11     -0.09      0.00
   -8    7   11     -0.15      0.00
   -7    7   11     -0.08      0.00
   -6    7   11      0.29      0.00
   10    7   11     -0.34      0.00
   11    7   11      0.02      0.00
   -7    8   11      0.17      0.00
   -6    8   11     -0.41      0.00
    9    8   11      0.59      0.00
   10    8   11      0.41      0.00
   11    8   11      0.20      0.00
   -7    9   11     -0.13      0.00
   -6    9   11      0.36      0.00
    7    9   11      0.52      0.00
    8    9   11      0.59      0.00
    9    9   11      0.13      0.00
   10    9   11     -0.03      0.00
   -7   10   11     -0.04      0.00
   -6   10   11     -0.17      0.00
   -5   10   11     -0.20      0.00
    6   10   11      1.04      0.00
    7   10   11     -0.11      0.00
    8   10   11      0.05      0.00
    9   10   11     -0.14      0.00
   -6   11   11     -0.01      0.00
   -5   11   11      0.17      0.00
   -4   11   11     -0.84      0.00
    6   11   11     -0.11      0.00
    7   11   11     -0.05      0.00
    8   11   11     -0.13      0.00
    9   11   11     -0.05      0.00
   -5   12   11     -0.09      0.00
   -4   12   11      0.24      0.00
   -3   12   11     -0.11      0.00
   -2   12   11      0.11      0.00
    5   12   11     -0.27      0.00
    6   12   11     -0.05      0.00
    7   12   11     -0.14      0.00
    8   12   11      0.09      0.00
   -4   13   11      0.06      0.00
   -3   13   11     -0.18      0.00
   -2   13   11     -0.06      0.00
   -1   13   11      0.18      0.00
    3   13   11     -0.53      0.00
    4   13   11      0.28      0.00
    5   13   11     -0.07      0.00
    6   13   11      0.04      0.00
    7   13   11      0.16      0.00
   -3   14   11      0.07      0.00
   -2   14   11      0.04      0.00
   -1   14   11     -0.06      0.00
    0   14   11     -0.14      0.00
    1   14   11      0.32      0.00
    2   14   11     -0.39      0.00
    3   14   11      0.20      0.00
    4   14   11     -0.10      0.00
    5   14   11      0.12      0.00
    1   -5   12     -0.06      0.00
    2   -5   12      0.03      0.00
    3   -5   12     -0.07      0.00
    4   -5   12     -0.06      0.00
    5   -5   12      0.12      0.00
   -2   -4   12      0.19      0.00
   -1   -4   12     -0.03      0.00
    0   -4   12     -0.53      0.00
    1   -4   12      0.42      0.00
    2   -4   12     -0.01      0.00
    3   -4   12      0.06      0.00
    4   -4   12     -0.16      0.00
    5   -4   12      0.17      0.00
    6   -4   12      0.18      0.00
    7   -4   12     -0.16      0.00
   -3   -3   12     -0.05      0.00
   -2   -3   12     -0.04      0.00
   -1   -3   12     -0.52      0.00
    5   -3   12     -0.81      0.00
    6   -3   12      0.36      0.00
    7   -3   12      0.00      0.00
    8   -3   12      0.00      0.00
   -4   -2   12     -0.16      0.00
   -3   -2   12      0.53      0.00
   -2   -2   12     -0.51      0.00
    7   -2   12      0.29      0.00
    8   -2   12      0.09      0.00
    9   -2   12     -0.12      0.00
   -5   -1   12     -0.18      0.00
   -4   -1   12      0.43      0.00
   -3   -1   12     -0.70      0.00
    8   -1   12      0.26      0.00
    9   -1   12      0.29      0.00
   10   -1   12     -0.03      0.00
   -5    0   12      0.14      0.00
   -4    0   12     -0.08      0.00
    9    0   12     -0.05      0.00
   10    0   12      0.01      0.00
   -6    1   12      0.02      0.00
   -5    1   12      0.05      0.00
    9    1   12     -0.37      0.00
   10    1   12     -0.01      0.00
   11    1   12     -0.11      0.00
   -6    2   12      0.05      0.00
   -5    2   12     -0.22      0.00
   10    2   12      0.10      0.00
   11    2   12      0.15      0.00
   -7    3   12      0.06      0.00
   -6    3   12     -0.01      0.00
   -5    3   12      0.21      0.00
   10    3   12     -0.20      0.00
   11    3   12     -0.04      0.00
   -7    4   12     -0.01      0.00
   -6    4   12     -0.09      0.00
   -5    4   12     -0.04      0.00
   -4    4   12      0.44      0.00
   10    4   12      0.21      0.00
   11    4   12     -0.06      0.00
   -7    5   12      0.06      0.00
   -6    5   12      0.01      0.00
   -5    5   12      0.03      0.00
   -4    5   12     -0.06      0.00
   -3    5   12     -0.45      0.00
   -2    5   12      1.74      0.00
   10    5   12      0.01      0.00
   11    5   12      0.00      0.00
   -7    6   12     -0.10      0.00
   -6    6   12      0.15      0.00
   -5    6   12     -0.28      0.00
   -4    6   12      0.23      0.00
    9    6   12     -0.41      0.00
   10    6   12     -0.30      0.00
   11    6   12      0.07      0.00
   -7    7   12      0.01      0.00
   -6    7   12     -0.07      0.00
   -5    7   12      0.49      0.00
    9    7   12     -0.10      0.00
   10    7   12      0.34      0.00
   -7    8   12      0.03      0.00
   -6    8   12     -0.12      0.00
   -5    8   12     -0.43      0.00
    8    8   12      0.85      0.00
    9    8   12      0.33      0.00
   10    8   12     -0.08      0.00
   -6    9   12      0.12      0.00
   -5    9   12      0.20      0.00
    7    9   12      0.86      0.00
    8    9   12     -0.07      0.00
    9    9   12     -0.26      0.00
   10    9   12     -0.20      0.00
   -6   10   12      0.05      0.00
   -5   10   12     -0.03      0.00
   -4   10   12      0.23      0.00
    6   10   12      0.00      0.00
    7   10   12     -0.11      0.00
    8   10   12     -0.30      0.00
    9   10   12      0.06      0.00
   -5   11   12      0.04      0.00
   -4   11   12      0.02      0.00
   -3   11   12      0.66      0.00
    6   11   12     -0.28      0.00
    7   11   12     -0.14      0.00
    8   11   12      0.15      0.00
   -4   12   12      0.10      0.00
   -3   12   12     -0.49      0.00
   -2   12   12      0.83      0.00
   -1   12   12     -1.14      0.00
    4   12   12     -0.05      0.00
    5   12   12      0.10      0.00
    6   12   12      0.03      0.00
    7   12   12      0.15      0.00
   -3   13   12      0.16      0.00
   -2   13   12     -0.10      0.00
   -1   13   12      0.34      0.00
    0   13   12     -0.43      0.00
    1   13   12      0.26      0.00
    2   13   12     -0.11      0.00
    3   13   12      0.14      0.00
    4   13   12      0.06      0.00
    5   13   12     -0.11      0.00
    6   13   12      0.10      0.00
   -1   14   12      0.21      0.00
    0   14   12     -0.03      0.00
    1   14   12      0.08      0.00
    2   14   12     -0.22      0.00
    3   14   12      0.02      0.00
    4   14   12      0.15      0.00
   -1   -3   13      0.18      0.00
    0   -3   13     -0.21      0.00
    1   -3   13     -0.22      0.00
    2   -3   13      0.24      0.00
    3   -3   13     -0.03      0.00
    4   -3   13     -0.06      0.00
    5   -3   13     -0.02      0.00
    6   -3   13      0.21      0.00
   -2   -2   13      0.09      0.00
   -1   -2   13     -0.55      0.00
    0   -2   13      0.56      0.00
    1   -2   13     -0.25      0.00
    2   -2   13      0.46      0.00
    3   -2   13     -0.61      0.00
    4   -2   13      0.47      0.00
    5   -2   13     -0.12      0.00
    6   -2   13     -0.34      0.00
    7   -2   13      0.33      0.00
    8   -2   13     -0.13      0.00
   -3   -1   13      0.16      0.00
   -2   -1   13     -0.15      0.00
   -1   -1   13      0.43      0.00
    6   -1   13     -0.21      0.00
    7   -1   13     -0.06      0.00
    8   -1   13      0.24      0.00
   -4    0   13      0.14      0.00
   -3    0   13     -0.09      0.00
   -2    0   13     -0.03      0.00
    7    0   13     -0.94      0.00
    8    0   13     -0.04      0.00
    9    0   13      0.06      0.00
   -5    1   13      0.02      0.00
   -4    1   13     -0.02      0.00
   -3    1   13     -0.05      0.00
    8    1   13     -0.29      0.00
    9    1   13      0.06      0.00
   10    1   13     -0.09      0.00
   -5    2   13      0.03      0.00
   -4    2   13     -0.12      0.00
    8    2   13      0.48      0.00
    9    2   13      0.06      0.00
   10    2   13      0.12      0.00
   -5    3   13     -0.12      0.00
   -4    3   13      0.22      0.00
    8    3   13     -0.37      0.00
    9    3   13     -0.19      0.00
   10    3   13      0.07      0.00
   -6    4   13      0.04      0.00
   -5    4   13      0.09      0.00
   -4    4   13     -0.27      0.00
   -3    4   13     -0.14      0.00
   -2    4   13      0.54      0.00
    8    4   13      0.01      0.00
    9    4   13      0.03      0.00
   10    4   13     -0.10      0.00
   -6    5   13     -0.07      0.00
   -5    5   13      0.08      0.00
   -4    5   13      0.24      0.00
   -3    5   13     -0.06      0.00
   -2    5   13     -0.19      0.00
    9    5   13      0.29      0.00
   10    5   13     -0.05      0.00
   -6    6   13      0.03      0.00
   -5    6   13     -0.11      0.00
   -4    6   13     -0.18      0.00
   -3    6   13      0.16      0.00
   -2    6   13     -0.29      0.00
    8    6   13     -0.07      0.00
    9    6   13     -0.42      0.00
   10    6   13      0.08      0.00
   -6    7   13     -0.01      0.00
   -5    7   13     -0.04      0.00
   -4    7   13      0.17      0.00
   -3    7   13     -0.12      0.00
    8    7   13     -0.14      0.00
    9    7   13      0.27      0.00
   10    7   13      0.02      0.00
   -5    8   13      0.21      0.00
   -4    8   13     -0.16      0.00
   -3    8   13     -0.01      0.00
    7    8   13      1.30      0.00
    8    8   13      0.11      0.00
    9    8   13     -0.02      0.00
   -5    9   13     -0.28      0.00
   -4    9   13      0.22      0.00
   -3    9   13     -0.07      0.00
    7    9   13     -0.76      0.00
    8    9   13      0.01      0.00
    9    9   13     -0.16      0.00
   -5   10   13      0.18      0.00
   -4   10   13     -0.22      0.00
   -3   10   13      0.33      0.00
   -2   10   13     -0.68      0.00
    6   10   13     -0.92      0.00
    7   10   13      0.05      0.00
    8   10   13      0.01      0.00
   -4   11   13     -0.05      0.00
   -3   11   13     -0.21      0.00
   -2   11   13      0.43      0.00
   -1   11   13     -0.19      0.00
    5   11   13     -0.04      0.00
    6   11   13      0.01      0.00
    7   11   13      0.28      0.00
   -3   12   13     -0.23      0.00
   -2   12   13      0.01      0.00
   -1   12   13      0.01      0.00
    0   12   13      0.24      0.00
    1   12   13      0.10      0.00
    2   12   13     -0.09      0.00
    3   12   13     -0.08      0.00
    4   12   13      0.30      0.00
    5   12   13     -0.26      0.00
    6   12   13      0.28      0.00
   -2   13   13     -0.19      0.00
   -1   13   13     -0.03      0.00
    0   13   13     -0.03      0.00
    1   13   13     -0.05      0.00
    2   13   13     -0.04      0.00
    3   13   13      0.14      0.00
    4   13   13     -0.23      0.00
    5   13   13      0.17      0.00
    1   -2   14     -0.28      0.00
    2   -2   14      0.19      0.00
    3   -2   14     -0.15      0.00
    4   -2   14      0.03      0.00
    5   -2   14     -0.08      0.00
   -1   -1   14      0.00      0.00
    0   -1   14     -0.21      0.00
    1   -1   14      0.18      0.00
    2   -1   14     -0.05      0.00
    3   -1   14      0.16      0.00
    4   -1   14     -0.16      0.00
    5   -1   14      0.25      0.00
    6   -1   14     -0.09      0.00
    7   -1   14     -0.17      0.00
   -2    0   14      0.17      0.00
   -1    0   14     -0.23      0.00
    0    0   14     -0.11      0.00
    1    0   14      0.65      0.00
    2    0   14     -0.35      0.00
    3    0   14     -0.29      0.00
    4    0   14      0.26      0.00
    5    0   14     -0.10      0.00
    6    0   14     -0.01      0.00
    7    0   14      0.08      0.00
    8    0   14     -0.07      0.00
   -3    1   14     -0.03      0.00
   -2    1   14     -0.09      0.00
   -1    1   14      0.07      0.00
    0    1   14      0.87      0.00
    5    1   14     -0.30      0.00
    6    1   14      0.20      0.00
    7    1   14      0.20      0.00
    8    1   14     -0.06      0.00
   -3    2   14      0.01      0.00
   -2    2   14     -0.06      0.00
   -1    2   14      0.16      0.00
    6    2   14     -0.44      0.00
    7    2   14     -0.32      0.00
    8    2   14      0.28      0.00
    9    2   14      0.16      0.00
   -4    3   14     -0.05      0.00
   -3    3   14      0.14      0.00
   -2    3   14     -0.12      0.00
   -1    3   14      0.23      0.00
    6    3   14      0.49      0.00
    7    3   14      0.16      0.00
    8    3   14     -0.36      0.00
    9    3   14      0.01      0.00
   -4    4   14      0.05      0.00
   -3    4   14     -0.15      0.00
   -2    4   14      0.39      0.00
    6    4   14     -0.32      0.00
    7    4   14      0.01      0.00
    8    4   14      0.11      0.00
    9    4   14     -0.01      0.00
   -4    5   14     -0.04      0.00
   -3    5   14     -0.04      0.00
   -2    5   14     -0.45      0.00
    7    5   14     -0.02      0.00
    8    5   14      0.23      0.00
    9    5   14     -0.16      0.00
   -4    6   14      0.05      0.00
   -3    6   14      0.14      0.00
   -2    6   14      0.51      0.00
    7    6   14      0.06      0.00
    8    6   14     -0.28      0.00
    9    6   14      0.09      0.00
   -4    7   14      0.01      0.00
   -3    7   14     -0.10      0.00
   -2    7   14     -0.52      0.00
    6    7   14     -0.10      0.00
    7    7   14     -0.30      0.00
    8    7   14      0.11      0.00
    9    7   14      0.18      0.00
   -4    8   14     -0.15      0.00
   -3    8   14      0.11      0.00
   -2    8   14      0.31      0.00
   -1    8   14     -0.32      0.00
    6    8   14      0.22      0.00
    7    8   14      0.52      0.00
    8    8   14      0.08      0.00
    9    8   14     -0.25      0.00
   -4    9   14      0.23      0.00
   -3    9   14     -0.14      0.00
   -2    9   14     -0.10      0.00
   -1    9   14     -0.15      0.00
    5    9   14      0.62      0.00
    6    9   14     -0.17      0.00
    7    9   14     -0.44      0.00
    8    9   14     -0.25      0.00
   -3   10   14      0.08      0.00
   -2   10   14      0.06      0.00
   -1   10   14      0.07      0.00
    0   10   14     -0.12      0.00
    4   10   14      0.02      0.00
    5   10   14     -0.29      0.00
    6   10   14      0.03      0.00
    7   10   14      0.19      0.00
   -3   11   14      0.00      0.00
   -2   11   14     -0.05      0.00
   -1   11   14     -0.07      0.00
    0   11   14      0.10      0.00
    1   11   14      0.10      0.00
    2   11   14     -0.18      0.00
    3   11   14      0.33      0.00
    4   11   14      0.08      0.00
    5   11   14     -0.01      0.00
    6   11   14      0.01      0.00
   -1   12   14      0.18      0.00
    0   12   14     -0.18      0.00
    1   12   14      0.05      0.00
    2   12   14     -0.22      0.00
    3   12   14      0.01      0.00
    4   12   14     -0.14      0.00
    5   12   14      0.07      0.00
    1   13   14      0.07      0.00
    2   13   14      0.13      0.00
    1    0   15      0.11      0.00
    2    0   15     -0.04      0.00
    3    0   15      0.07      0.00
    4    0   15     -0.19      0.00
    5    0   15      0.24      0.00
    0    1   15     -0.15      0.00
    1    1   15      0.11      0.00
    2    1   15      0.07      0.00
    3    1   15     -0.05      0.00
    4    1   15      0.02      0.00
    5    1   15     -0.20      0.00
    6    1   15      0.18      0.00
   -1    2   15     -0.08      0.00
    0    2   15      0.42      0.00
    1    2   15     -0.17      0.00
    2    2   15     -0.42      0.00
    3    2   15      0.09      0.00
    4    2   15      0.45      0.00
    5    2   15     -0.13      0.00
    6    2   15     -0.22      0.00
    7    2   15      0.12      0.00
   -2    3   15      0.04      0.00
   -1    3   15     -0.06      0.00
    0    3   15     -0.29      0.00
    1    3   15     -0.28      0.00
    2    3   15      1.18      0.00
    3    3   15     -0.44      0.00
    4    3   15     -0.52      0.00
    5    3   15      0.22      0.00
    6    3   15      0.08      0.00
    7    3   15     -0.15      0.00
    8    3   15      0.05      0.00
   -2    4   15     -0.08      0.00
   -1    4   15      0.17      0.00
    0    4   15      0.21      0.00
    1    4   15      0.43      0.00
    4    4   15      0.39      0.00
    5    4   15     -0.04      0.00
    6    4   15      0.04      0.00
    7    4   15      0.12      0.00
    8    4   15     -0.25      0.00
   -3    5   15      0.01      0.00
   -2    5   15      0.08      0.00
   -1    5   15     -0.12      0.00
    0    5   15     -0.45      0.00
    1    5   15      0.23      0.00
    4    5   15     -0.43      0.00
    5    5   15      0.00      0.00
    6    5   15     -0.04      0.00
    7    5   15     -0.05      0.00
    8    5   15      0.12      0.00
   -3    6   15     -0.01      0.00
   -2    6   15     -0.12      0.00
   -1    6   15      0.13      0.00
    0    6   15      0.51      0.00
    4    6   15      0.14      0.00
    5    6   15     -0.06      0.00
    6    6   15     -0.05      0.00
    7    6   15      0.06      0.00
    8    6   15      0.05      0.00
   -3    7   15      0.01      0.00
   -2    7   15      0.01      0.00
   -1    7   15     -0.09      0.00
    0    7   15     -0.20      0.00
    1    7   15      0.52      0.00
    4    7   15      0.45      0.00
    5    7   15      0.01      0.00
    6    7   15      0.07      0.00
    7    7   15     -0.10      0.00
    8    7   15      0.02      0.00
   -3    8   15     -0.06      0.00
   -2    8   15      0.23      0.00
   -1    8   15     -0.12      0.00
    0    8   15     -0.05      0.00
    1    8   15     -0.02      0.00
    2    8   15     -0.09      0.00
    3    8   15      0.80      0.00
    4    8   15     -0.47      0.00
    5    8   15      0.04      0.00
    6    8   15      0.04      0.00
    7    8   15      0.07      0.00
   -2    9   15     -0.21      0.00
   -1    9   15      0.17      0.00
    0    9   15      0.09      0.00
    1    9   15     -0.24      0.00
    2    9   15      0.15      0.00
    3    9   15     -0.20      0.00
    4    9   15     -0.01      0.00
    5    9   15     -0.04      0.00
    6    9   15     -0.11      0.00
    7    9   15     -0.04      0.00
   -2   10   15     -0.06      0.00
   -1   10   15      0.05      0.00
    0   10   15     -0.02      0.00
    1   10   15      0.16      0.00
    2   10   15     -0.10      0.00
    3   10   15     -0.16      0.00
    4   10   15      0.28      0.00
    5   10   15      0.08      0.00
    6   10   15      0.04      0.00
    0   11   15     -0.02      0.00
    1   11   15      0.03      0.00
    2   11   15      0.01      0.00
    3   11   15      0.10      0.00
    4   11   15     -0.23      0.00
    5   11   15     -0.14      0.00
    0    0    0      0.00      0.00
# SQUEEZE RESULTS
# Note: Data are Listed for all Voids in the P1 Unit Cell
# i.e. Centre of Gravity, Solvent Accessible Volume,
# Recovered number of Electrons in the Void and
# Details about the Squeezed Material
loop_
  _platon_squeeze_void_nr
  _platon_squeeze_void_average_x
  _platon_squeeze_void_average_y
  _platon_squeeze_void_average_z
  _platon_squeeze_void_volume
  _platon_squeeze_void_count_electrons
  _platon_squeeze_void_content
   1  0.500  0.500  0.285       375       111 ' '
_platon_squeeze_details
(replace by semicolon in column 1 when used as .sqf)
TITL PONEBAR in P-1
CELL   10.5211   11.9123   12.6355     66.13     78.31     89.58
SPGR P-1
# Solvent Accessible Volume =     378.0
# Electrons Found in S.A.V. =     111.2
# Note: Atoms in Void as Cxxx and Qxxx all others
C101 0.739 0.564 0.638 !       5.94 eA-3
C102 0.488 0.565 0.764 !       5.74 eA-3
C103 0.486 0.549 0.469 !       5.28 eA-3
C104 0.636 0.607 0.594 !       5.04 eA-3
C105 0.547 0.651 0.669 !       4.46 eA-3
C106 0.548 0.419 0.684 !       3.92 eA-3
C107 0.688 0.450 0.764 !       3.70 eA-3
C108 0.584 0.483 0.847 !       3.69 eA-3
C109 0.312 0.582 0.314 !       3.06 eA-3
C110 0.508 0.548 0.218 !       2.91 eA-3
C111 0.318 0.404 0.269 !       2.53 eA-3
Q112 0.401 0.214 0.766 !       0.75 eA-3
C113 0.574 0.530 0.704 !       0.62 eA-3
C114 0.408 0.283 0.316 !       0.60 eA-3
Q115 0.553 0.766 0.155 !       0.59 eA-3
Q116 0.625 0.469 0.234 !       0.58 eA-3
Q117 0.096 0.124 0.033 !       0.57 eA-3
C118 0.540 0.423 0.921 !       0.57 eA-3
C119 0.492 0.390 0.878 !       0.57 eA-3
Q120 1.007 0.705 0.296 !       0.52 eA-3
C121 0.480 0.394 0.179 !       0.51 eA-3
Q122 0.707 0.019 0.662 !       0.51 eA-3
(replace by semicolon in column 1 when used as .sqf)
;
_shelx_fab_checksum              67782
loop_
_space_group_symop_operation_xyz
'x, y, z'
'-x, -y, -z'
loop_
_atom_site_type_symbol
_atom_site_label
_atom_site_fract_x
_atom_site_fract_y
_atom_site_fract_z
_atom_site_U_iso_or_equiv
_atom_site_adp_type
_atom_site_calc_flag
_atom_site_occupancy
Mn Mn1 0.0000 0.0000 0.0000 0.01474(13) Uani d 1
N N1 0.01241(17) -0.12201(16) 0.16365(15) 0.0169(4) Uani d 1
N N2 0.08899(17) 0.13330(16) 0.02570(15) 0.0171(4) Uani d 1
C C5 0.1288(2) 0.0124(2) 0.22581(18) 0.0179(4) Uani d 1
N N3 -0.20868(17) 0.04247(16) 0.08114(16) 0.0193(4) Uani d 1
H H4 -0.2523 -0.0381 0.1433 0.023 Uiso calc 1
C C4 0.0683(2) -0.09966(19) 0.24354(18) 0.0180(4) Uani d 1
C C9 0.1172(2) 0.25531(19) -0.05315(18) 0.0180(4) Uani d 1
C C1 -0.0261(2) -0.24636(19) 0.21445(18) 0.0187(4) Uani d 1
C C2 0.0052(2) -0.3012(2) 0.32931(19) 0.0227(5) Uani d 1
H H2 -0.0110 -0.3856 0.3826 0.027 Uiso calc 1
C C7 0.2035(2) 0.2348(2) 0.10181(19) 0.0198(4) Uani d 1
H H6 0.2480 0.2500 0.1537 0.024 Uiso calc 1
C C3 0.0613(2) -0.2119(2) 0.34786(19) 0.0221(5) Uani d 1
H H3 0.0907 -0.2211 0.4170 0.026 Uiso calc 1
C C6 0.1391(2) 0.1199(2) 0.12281(18) 0.0178(4) Uani d 1
C C8 0.1894(2) 0.3177(2) -0.00536(19) 0.0208(5) Uani d 1
H H7 0.2216 0.4020 -0.0423 0.025 Uiso calc 1
C C11 0.1889(2) 0.01770(19) 0.32161(18) 0.0203(5) Uani d 1
C C12 0.3024(2) -0.0395(2) 0.3443(2) 0.0272(5) Uani d 1
H H12 0.3409 -0.0844 0.3005 0.033 Uiso calc 1
C C16 0.1336(2) 0.0817(2) 0.3880(2) 0.0245(5) Uani d 1
H H16 0.0557 0.1202 0.3738 0.029 Uiso calc 1
C C13 0.3593(2) -0.0306(3) 0.4315(2) 0.0370(7) Uani d 1
H H13 0.4366 -0.0698 0.4469 0.044 Uiso calc 1
C C14 0.3044(3) 0.0345(3) 0.4954(2) 0.0378(7) Uani d 1
H H14 0.3446 0.0412 0.5537 0.045 Uiso calc 1
C C15 0.1909(3) 0.0900(2) 0.4747(2) 0.0322(6) Uani d 1
H H15 0.1521 0.1338 0.5196 0.039 Uiso calc 1
C C10 0.0841(2) 0.31042(19) -0.16334(18) 0.0183(4) Uani d 1
C C27 -0.2056(2) 0.1249(2) 0.1419(2) 0.0278(5) Uani d 1
H H26A -0.1604 0.2054 0.0839 0.033 Uiso calc 1
H H26B -0.1547 0.0892 0.2040 0.033 Uiso calc 1
C C23 -0.2936(2) 0.0884(2) -0.0057(2) 0.0271(5) Uani d 1
H H22A -0.3005 0.0282 -0.0403 0.033 Uiso calc 1
H H22B -0.2519 0.1668 -0.0709 0.033 Uiso calc 1
C C25 -0.4250(2) 0.1950(3) 0.1089(3) 0.0349(6) Uani d 1
H H24A -0.3888 0.2783 0.0496 0.042 Uiso calc 1
H H24B -0.5142 0.2015 0.1489 0.042 Uiso calc 1
C C26 -0.3409(2) 0.1459(3) 0.1992(2) 0.0339(6) Uani d 1
H H25A -0.3831 0.0673 0.2637 0.041 Uiso calc 1
H H25B -0.3326 0.2054 0.2344 0.041 Uiso calc 1
C C24 -0.4303(2) 0.1098(3) 0.0472(2) 0.0319(6) Uani d 1
H H23A -0.4789 0.1464 -0.0166 0.038 Uiso calc 1
H H23B -0.4772 0.0299 0.1049 0.038 Uiso calc 1
C C18 0.0443(2) 0.5239(2) -0.1815(2) 0.0227(5) Uani d 1
H H18 -0.0176 0.4891 -0.1082 0.027 Uiso calc 1
C C17 0.1110(2) 0.44701(19) -0.22903(18) 0.0190(4) Uani d 1
C C22 0.2013(2) 0.4992(2) -0.33633(19) 0.0213(5) Uani d 1
H H22 0.2472 0.4477 -0.3692 0.026 Uiso calc 1
C C20 0.1581(2) 0.7025(2) -0.3484(2) 0.0244(5) Uani d 1
H H20 0.1738 0.7894 -0.3893 0.029 Uiso calc 1
C C21 0.2248(2) 0.6266(2) -0.3957(2) 0.0235(5) Uani d 1
H H21 0.2868 0.6617 -0.4689 0.028 Uiso calc 1
C C19 0.0682(2) 0.6506(2) -0.2410(2) 0.0252(5) Uani d 1
H H19 0.0228 0.7023 -0.2082 0.030 Uiso calc 1
Cl Cl1 0.62779(10) 0.79940(7) 0.31554(8) 0.0748(3) Uani d 1
loop_
_atom_site_aniso_label
_atom_site_aniso_U_11
_atom_site_aniso_U_22
_atom_site_aniso_U_33
_atom_site_aniso_U_12
_atom_site_aniso_U_13
_atom_site_aniso_U_23
Mn1 0.0192(2) 0.0113(2) 0.0121(2) 0.00178(18) -0.00382(18) -0.00305(18)
N1 0.0204(9) 0.0136(8) 0.0151(8) 0.0016(7) -0.0042(7) -0.0041(7)
N2 0.0207(9) 0.0146(9) 0.0131(8) 0.0029(7) -0.0026(7) -0.0034(7)
C5 0.0173(10) 0.0193(11) 0.0160(10) 0.0036(8) -0.0027(8) -0.0068(8)
N3 0.0199(9) 0.0178(9) 0.0194(9) 0.0027(7) -0.0031(7) -0.0076(7)
C4 0.0185(10) 0.0189(11) 0.0150(10) 0.0037(8) -0.0033(8) -0.0055(8)
C9 0.0194(10) 0.0152(10) 0.0165(10) 0.0023(8) -0.0005(8) -0.0053(8)
C1 0.0204(10) 0.0154(10) 0.0172(10) 0.0029(8) -0.0030(8) -0.0043(8)
C2 0.0284(12) 0.0160(11) 0.0179(10) 0.0026(9) -0.0068(9) -0.0004(9)
C7 0.0206(10) 0.0207(11) 0.0191(10) 0.0000(9) -0.0049(9) -0.0088(9)
C3 0.0267(11) 0.0220(11) 0.0159(10) 0.0037(9) -0.0082(9) -0.0045(9)
C6 0.0168(10) 0.0200(11) 0.0169(10) 0.0049(8) -0.0034(8) -0.0080(9)
C8 0.0233(11) 0.0169(11) 0.0196(10) -0.0020(9) -0.0014(9) -0.0065(9)
C11 0.0210(10) 0.0170(10) 0.0172(10) -0.0039(9) -0.0052(9) -0.0007(8)
C12 0.0190(11) 0.0294(13) 0.0229(11) -0.0002(10) -0.0020(9) -0.0015(10)
C16 0.0292(12) 0.0211(11) 0.0230(11) 0.0004(10) -0.0091(10) -0.0073(9)
C13 0.0192(11) 0.0420(15) 0.0325(13) -0.0072(11) -0.0119(10) 0.0052(12)
C14 0.0389(15) 0.0416(15) 0.0270(13) -0.0165(12) -0.0143(12) -0.0046(11)
C15 0.0441(15) 0.0278(13) 0.0251(12) -0.0076(11) -0.0109(11) -0.0095(10)
C10 0.0191(10) 0.0156(10) 0.0171(10) 0.0019(8) -0.0004(8) -0.0054(8)
C27 0.0232(11) 0.0355(13) 0.0359(13) 0.0074(10) -0.0090(10) -0.0248(11)
C23 0.0231(11) 0.0364(14) 0.0264(12) 0.0059(10) -0.0082(10) -0.0165(11)
C25 0.0250(12) 0.0409(15) 0.0493(16) 0.0134(11) -0.0104(12) -0.0282(13)
C26 0.0253(12) 0.0513(16) 0.0426(15) 0.0114(11) -0.0090(11) -0.0363(13)
C24 0.0244(12) 0.0419(15) 0.0365(14) 0.0079(11) -0.0098(11) -0.0218(12)
C18 0.0254(11) 0.0192(11) 0.0203(11) 0.0028(9) -0.0024(9) -0.0060(9)
C17 0.0230(11) 0.0166(11) 0.0163(10) 0.0025(9) -0.0069(9) -0.0044(9)
C22 0.0251(11) 0.0184(11) 0.0191(10) 0.0032(9) -0.0054(9) -0.0060(9)
C20 0.0284(12) 0.0137(10) 0.0274(12) -0.0007(9) -0.0092(10) -0.0033(9)
C21 0.0245(11) 0.0201(11) 0.0194(11) -0.0006(9) -0.0043(9) -0.0018(9)
C19 0.0301(12) 0.0193(11) 0.0282(12) 0.0050(10) -0.0067(10) -0.0116(10)
Cl1 0.0919(7) 0.0278(4) 0.0688(6) -0.0020(4) 0.0379(5) -0.0096(4)
loop_
_atom_type_symbol
_atom_type_description
_atom_type_scat_dispersion_real
_atom_type_scat_dispersion_imag
_atom_type_scat_source
C C 0.0181 0.0091 'International Tables Vol C Tables 4.2.6.8 and 6.1.1.4'
H H 0.0000 0.0000 'International Tables Vol C Tables 4.2.6.8 and 6.1.1.4'
N N 0.0311 0.0180 'International Tables Vol C Tables 4.2.6.8 and 6.1.1.4'
Cl Cl 0.3639 0.7018 'International Tables Vol C Tables 4.2.6.8 and 6.1.1.4'
Mn Mn -0.5299 2.8052 'International Tables Vol C Tables 4.2.6.8 and 6.1.1.4'
loop_
_geom_angle_atom_site_label_1
_geom_angle_atom_site_label_2
_geom_angle_atom_site_label_3
_geom_angle_site_symmetry_1
_geom_angle_site_symmetry_3
_geom_angle
N2 Mn1 N2 2 . 180.00(11)
N2 Mn1 N1 2 . 90.22(7)
N2 Mn1 N1 . . 89.78(7)
N2 Mn1 N1 2 2 89.78(7)
N2 Mn1 N1 . 2 90.22(7)
N1 Mn1 N1 . 2 180.00(16)
N2 Mn1 N3 2 2 91.99(6)
N2 Mn1 N3 . 2 88.01(6)
N1 Mn1 N3 . 2 90.59(7)
N1 Mn1 N3 2 2 89.41(7)
N2 Mn1 N3 2 . 88.01(6)
N2 Mn1 N3 . . 91.99(6)
N1 Mn1 N3 . . 89.41(7)
N1 Mn1 N3 2 . 90.59(7)
N3 Mn1 N3 2 . 180.00(11)
C4 N1 C1 . . 106.32(17)
C4 N1 Mn1 . . 126.99(14)
C1 N1 Mn1 . . 126.58(14)
C9 N2 C6 . . 106.39(17)
C9 N2 Mn1 . . 126.52(14)
C6 N2 Mn1 . . 127.03(14)
C6 C5 C4 . . 123.91(19)
C6 C5 C11 . . 117.60(18)
C4 C5 C11 . . 118.48(18)
C27 N3 C23 . . 110.07(17)
C27 N3 Mn1 . . 114.10(13)
C23 N3 Mn1 . . 113.57(13)
N1 C4 C5 . . 126.17(19)
N1 C4 C3 . . 109.57(18)
C5 C4 C3 . . 124.18(19)
N2 C9 C10 . . 126.23(19)
N2 C9 C8 . . 109.27(18)
C10 C9 C8 . . 124.49(19)
N1 C1 C10 . 2 126.20(19)
N1 C1 C2 . . 109.10(18)
C10 C1 C2 2 . 124.7(2)
C3 C2 C1 . . 107.84(19)
C8 C7 C6 . . 107.44(19)
C2 C3 C4 . . 107.14(19)
N2 C6 C5 . . 125.96(19)
N2 C6 C7 . . 109.31(18)
C5 C6 C7 . . 124.72(19)
C7 C8 C9 . . 107.55(19)
C16 C11 C12 . . 118.9(2)
C16 C11 C5 . . 120.6(2)
C12 C11 C5 . . 120.5(2)
C11 C12 C13 . . 119.8(2)
C15 C16 C11 . . 120.9(2)
C14 C13 C12 . . 120.6(2)
C13 C14 C15 . . 120.0(2)
C14 C15 C16 . . 119.8(2)
C1 C10 C9 2 . 124.0(2)
C1 C10 C17 2 . 118.44(19)
C9 C10 C17 . . 117.53(19)
N3 C27 C26 . . 113.36(19)
N3 C23 C24 . . 113.92(19)
C26 C25 C24 . . 110.1(2)
C25 C26 C27 . . 111.0(2)
C25 C24 C23 . . 110.9(2)
C19 C18 C17 . . 120.1(2)
C22 C17 C18 . . 119.31(19)
C22 C17 C10 . . 121.30(19)
C18 C17 C10 . . 119.39(19)
C17 C22 C21 . . 120.2(2)
C21 C20 C19 . . 119.6(2)
C20 C21 C22 . . 120.3(2)
C18 C19 C20 . . 120.4(2)
loop_
_geom_bond_atom_site_label_1
_geom_bond_atom_site_label_2
_geom_bond_site_symmetry_2
_geom_bond_distance
Mn1 N2 2 2.0164(17)
Mn1 N2 . 2.0164(17)
Mn1 N1 . 2.0199(17)
Mn1 N1 2 2.0199(17)
Mn1 N3 2 2.3704(17)
Mn1 N3 . 2.3704(17)
N1 C4 . 1.377(3)
N1 C1 . 1.380(3)
N2 C9 . 1.381(3)
N2 C6 . 1.383(3)
C5 C6 . 1.393(3)
C5 C4 . 1.397(3)
C5 C11 . 1.497(3)
N3 C27 . 1.475(3)
N3 C23 . 1.485(3)
C4 C3 . 1.437(3)
C9 C10 . 1.395(3)
C9 C8 . 1.432(3)
C1 C10 2 1.392(3)
C1 C2 . 1.437(3)
C2 C3 . 1.343(3)
C7 C8 . 1.352(3)
C7 C6 . 1.432(3)
C11 C16 . 1.391(3)
C11 C12 . 1.393(3)
C12 C13 . 1.395(4)
C16 C15 . 1.389(3)
C13 C14 . 1.379(4)
C14 C15 . 1.380(4)
C10 C1 2 1.392(3)
C10 C17 . 1.495(3)
C27 C26 . 1.528(3)
C23 C24 . 1.523(3)
C25 C26 . 1.513(4)
C25 C24 . 1.516(3)
C18 C19 . 1.384(3)
C18 C17 . 1.400(3)
C17 C22 . 1.390(3)
C22 C21 . 1.391(3)
C20 C21 . 1.387(3)
C20 C19 . 1.388(3)
loop_
_platon_squeeze_void_nr
_platon_squeeze_void_average_x
_platon_squeeze_void_average_y
_platon_squeeze_void_average_z
_platon_squeeze_void_volume
_platon_squeeze_void_count_electrons
_platon_squeeze_void_content
1 0.500 0.500 0.285 375 111 ' '

_cod_database_fobs_code 2021486
