#------------------------------------------------------------------------------
#$Date: 2019-02-14 05:35:50 +0200 (Thu, 14 Feb 2019) $
#$Revision: 213637 $
#$URL: file:///home/coder/svn-repositories/cod/cif/2/02/14/2021487.cif $
#------------------------------------------------------------------------------
#
# This file is available in the Crystallography Open Database (COD),
# http://www.crystallography.net/. The original data for this entry
# were provided by IUCr Journals, http://journals.iucr.org/.
#
# The file may be used within the scientific community so long as
# proper attribution is given to the journal article from which the
# data were obtained.
#
data_2021487
loop_
_publ_author_name
'Lahanas, Nicole'
'Kucheryavy, Pavel'
'Lalancette, Roger A.'
'Lockard, Jenny V.'
_publ_section_title
;
 Crystallographic identification of a series of manganese porphyrin
 complexes with nitrogenous bases
;
_journal_coeditor_code           JX3027
_journal_issue                   3
_journal_name_full               'Acta Crystallographica Section C'
_journal_page_first
;
;
_journal_paper_doi               10.1107/S2053229619001232
_journal_volume                  75
_journal_year                    2019
_chemical_formula_iupac          '[Mn (C44 H28 N4) Cl (C5 H5 N)], 2C5 H5 N'
_chemical_formula_moiety         'C49 H33 Cl Mn N5, 2(C5 H5 N)'
_chemical_formula_sum            'C59 H43 Cl Mn N7'
_chemical_formula_weight         940.39
_chemical_name_systematic
;
Chlorido(pyridine)(5,10,15,20-tetraphenylporphryinato)manganese(III)
pyridine disolvate
;
_space_group_crystal_system      triclinic
_space_group_IT_number           2
_space_group_name_Hall           '-P 1'
_space_group_name_H-M_alt        'P -1'
_symmetry_space_group_name_Hall  '-P 1'
_symmetry_space_group_name_H-M   'P -1'
_atom_sites_solution_hydrogens   geom
_atom_sites_solution_primary     direct
_atom_sites_solution_secondary   difmap
_audit_creation_method           SHELXL-2014/7
_cell_angle_alpha                90.1770(10)
_cell_angle_beta                 90.3240(10)
_cell_angle_gamma                110.5370(10)
_cell_formula_units_Z            2
_cell_length_a                   11.04990(10)
_cell_length_b                   12.10510(10)
_cell_length_c                   18.5362(2)
_cell_measurement_reflns_used    9885
_cell_measurement_temperature    100(2)
_cell_measurement_theta_max      68.62
_cell_measurement_theta_min      2.38
_cell_volume                     2321.76(4)
_computing_cell_refinement
;
APEX2 (Bruker, 2006)
;
_computing_data_collection
;
APEX2 (Bruker, 2006)
;
_computing_data_reduction
;
SAINT (Bruker, 2005)
;
_computing_molecular_graphics
;
SHELXTL (Sheldrick, 2008)
;
_computing_publication_material
;
SHELXTL (Sheldrick, 2008)
;
_computing_structure_refinement
;
SHELXL2014 (Sheldrick, 2015b)
;
_computing_structure_solution
;
SHELXT2014 (Sheldrick, 2015a)
;
_diffrn_ambient_temperature      100(2)
_diffrn_measured_fraction_theta_full 0.923
_diffrn_measured_fraction_theta_max 0.909
_diffrn_measurement_device_type  'Bruker SMART CCD APEXII area-detector'
_diffrn_measurement_method       '\f and \w'
_diffrn_radiation_monochromator  graphite
_diffrn_radiation_source         'fine-focus sealed tube'
_diffrn_radiation_type           CuK\a
_diffrn_radiation_wavelength     1.54178
_diffrn_reflns_av_R_equivalents  0.0323
_diffrn_reflns_av_unetI/netI     0.0303
_diffrn_reflns_limit_h_max       12
_diffrn_reflns_limit_h_min       -12
_diffrn_reflns_limit_k_max       14
_diffrn_reflns_limit_k_min       -14
_diffrn_reflns_limit_l_max       20
_diffrn_reflns_limit_l_min       -21
_diffrn_reflns_number            21813
_diffrn_reflns_theta_full        67.679
_diffrn_reflns_theta_max         68.717
_diffrn_reflns_theta_min         2.384
_exptl_absorpt_coefficient_mu    3.220
_exptl_absorpt_correction_T_max  0.653
_exptl_absorpt_correction_T_min  0.501
_exptl_absorpt_correction_type   numerical
_exptl_absorpt_process_details
;
(SADABS; Krause <i>et al.</i>,  2015)
;
_exptl_crystal_colour            black
_exptl_crystal_density_diffrn    1.345
_exptl_crystal_description       block
_exptl_crystal_F_000             976
_exptl_crystal_size_max          0.298
_exptl_crystal_size_mid          0.256
_exptl_crystal_size_min          0.235
_refine_diff_density_max         0.252
_refine_diff_density_min         -0.306
_refine_ls_extinction_coef       0.00110(9)
_refine_ls_extinction_expression Fc^*^=kFc[1+0.001xFc^2^\l^3^/sin(2\q)]^-1/4^
_refine_ls_extinction_method
;
SHELXL2014 (Sheldrick, 2015b)
;
_refine_ls_goodness_of_fit_ref   1.076
_refine_ls_hydrogen_treatment    constr
_refine_ls_matrix_type           full
_refine_ls_number_parameters     614
_refine_ls_number_reflns         7797
_refine_ls_number_restraints     0
_refine_ls_restrained_S_all      1.076
_refine_ls_R_factor_all          0.0292
_refine_ls_R_factor_gt           0.0283
_refine_ls_shift/su_max          0.002
_refine_ls_shift/su_mean         0.000
_refine_ls_structure_factor_coef Fsqd
_refine_ls_weighting_details
'w=1/[\s^2^(Fo^2^)+(0.0380P)^2^+0.7188P] where P=(Fo^2^+2Fc^2^)/3'
_refine_ls_weighting_scheme      calc
_refine_ls_wR_factor_gt          0.0768
_refine_ls_wR_factor_ref         0.0773
_reflns_number_gt                7543
_reflns_number_total             7797
_reflns_threshold_expression     'I > 2\s(I)'
_cod_data_source_file            jx3027sup1.cif
_cod_data_source_block           III_Pyridine
_cod_database_code               2021487
_shelx_space_group_comment
;
The symmetry employed for this shelxl refinement is uniquely defined
by the following loop, which should always be used as a source of
symmetry information in preference to the above space-group names.
They are only intended as comments.
;
_shelx_hkl_file
;
  -1   0   0   62.89    2.60
  -1   0   0   54.79    2.50
  -1   0   0   63.59    2.60
  -1   0   0   58.99    2.70
  -1   0   0   61.99    2.60
   1   0   0   64.19    2.70
   1   0   0   57.39    2.50
   1   0   0   59.29    2.60
   1   0   0   65.39    2.70
  -2   0   0  748.23   29.60
  -2   0   0  717.83   29.80
  -2   0   0  735.53   29.80
  -2   0   0  757.02   29.90
   2   0   0  697.23   29.80
   2   0   0  696.93   29.80
   2   0   0  751.82   30.00
  -3   0   0    0.70    0.30
  -3   0   0    0.40    0.40
   3   0   0    0.20    0.30
   3   0   0    0.50    0.40
   3   0   0    0.80    0.20
  -4   0   0  952.10   37.30
   4   0   0  924.31   36.80
   4   0   0  902.11   37.10
   4   0   0  827.92   37.10
  -5   0   0    4.60    0.50
  -5   0   0    1.60    0.70
   5   0   0    2.40    0.60
   5   0   0    1.20    0.60
  -6   0   0  295.87   12.60
   6   0   0  307.97   13.10
   6   0   0  300.67   13.30
  -7   0   0   23.80    1.90
  -8   0   0  197.78    8.40
  -8   0   0  171.88    7.60
   8   0   0  172.68    8.00
  -9   0   0    0.60    0.90
  -9   0   0    0.20    0.50
   9   0   0    1.10    0.80
 -10   0   0  417.56   17.90
 -10   0   0  407.86   17.10
  10   0   0  421.36   17.60
 -11   0   0    7.10    1.20
  11   0   0    9.10    1.10
 -12   0   0    8.90    1.10
  12   0   0    8.90    0.90
  12  -1   0    5.10    0.80
 -12   1   0    5.00    0.90
  11  -1   0   29.10    2.00
 -11   1   0   29.40    2.30
  10  -1   0    5.30    1.00
 -10   1   0    4.50    0.60
 -10   1   0    4.20    1.20
   9  -1   0   57.89    3.30
  -9   1   0   65.79    3.00
  -9   1   0   66.09    3.80
   8  -1   0    6.50    1.00
  -8   1   0    7.20    0.80
  -8   1   0    9.00    1.30
   7  -1   0  279.57   12.80
  -7   1   0  293.77   12.10
   6  -1   0   59.29    3.40
   6  -1   0   63.89    3.40
  -6   1   0   62.99    2.80
  -6   1   0   59.09    3.60
   5  -1   0  156.88    7.20
   5  -1   0  153.28    7.20
  -5   1   0  175.68    7.50
  -5   1   0  156.38    6.80
   4  -1   0  113.29    5.50
   4  -1   0  118.19    5.30
   4  -1   0  113.99    4.90
   4  -1   0  108.39    5.30
  -4   1   0  127.39    5.00
  -4   1   0  120.79    5.50
   3  -1   0  478.35   21.50
   3  -1   0  470.35   21.60
   3  -1   0  534.95   21.70
   3  -1   0  542.45   21.30
  -3   1   0  548.95   21.30
  -3   1   0  547.35   21.60
  -3   1   0  529.85   21.70
   2  -1   0   66.29    3.00
   2  -1   0   71.69    3.10
   2  -1   0   69.99    2.90
   2  -1   0   70.89    3.10
  -2   1   0   71.29    3.10
  -2   1   0   66.69    2.80
  -2   1   0   65.69    3.00
   1  -1   0 1075.19   46.70
   1  -1   0 1148.09   46.40
   1  -1   0 1116.29   46.60
  -1   1   0 1244.28   46.50
  -1   1   0 1089.99   46.50
  -1   1   0 1155.48   46.50
  -1   1   0 1154.98   46.30
  -1   1   0 1098.39   46.40
   0  -1   0   21.70    1.00
   0  -1   0   21.50    1.00
   0  -1   0   23.20    1.10
   0   1   0   22.60    1.10
   0   1   0   22.70    1.10
   0   1   0   22.80    1.00
  -1  -1   0 3863.11  157.58
  -1  -1   0 3828.02  157.18
  -1  -1   0 3757.92  157.58
   1   1   0 3900.41  156.68
   1   1   0 3959.70  158.08
   1   1   0 3825.12  157.38
   1   1   0 3842.92  157.08
  -2  -1   0 1106.99   44.70
  -2  -1   0 1058.59   44.70
  -2  -1   0 1118.39   44.80
   2   1   0 1115.09   44.70
   2   1   0 1044.80   44.50
   2   1   0 1090.19   44.80
   2   1   0 1128.59   44.60
  -3  -1   0  436.36   18.00
  -3  -1   0  425.56   18.00
  -3  -1   0  403.96   17.70
  -3  -1   0  455.05   18.20
   3   1   0  440.06   17.80
   3   1   0  429.86   18.00
   3   1   0  441.26   18.30
  -4  -1   0    4.60    0.80
  -4  -1   0    4.80    0.80
   4   1   0    5.20    0.60
   4   1   0    5.40    0.80
  -5  -1   0  273.27   11.30
  -5  -1   0  263.97   12.10
   5   1   0  269.27   11.40
   5   1   0  275.07   11.90
  -6  -1   0    2.90    0.50
   6   1   0    3.20    0.90
  -7  -1   0   15.10    1.50
  -8  -1   0    0.70    0.50
  -8  -1   0    2.10    0.90
   8   1   0    1.10    0.80
  -9  -1   0  413.76   17.70
  -9  -1   0  414.16   17.00
   9   1   0  404.26   17.50
 -10  -1   0   16.10    1.00
 -10  -1   0   17.30    1.80
  10   1   0   16.30    1.70
 -11  -1   0   89.19    4.50
  11   1   0   96.59    4.40
  12   1   0   15.20    1.10
  12  -2   0   37.20    2.10
 -12   2   0   35.00    2.30
  11  -2   0   65.39    3.30
 -11   2   0   63.69    2.80
 -11   2   0   60.79    3.70
  10  -2   0    3.50    0.90
 -10   2   0    3.70    1.10
 -10   2   0    2.20    0.60
   9  -2   0   23.80    1.90
  -9   2   0   25.00    1.50
  -9   2   0   28.40    2.20
  -8   2   0  252.67   11.20
   7  -2   0   75.39    4.10
   7  -2   0   74.89    4.10
  -7   2   0   70.69    3.40
   6  -2   0  402.66   17.20
   6  -2   0  404.96   17.30
  -6   2   0  379.16   17.40
  -6   2   0  426.36   16.70
   5  -2   0  375.16   16.10
   5  -2   0  402.86   16.30
  -5   2   0  386.66   16.40
  -5   2   0  365.56   15.70
   4  -2   0   85.49    3.90
   4  -2   0   79.19    4.30
   4  -2   0   80.19    4.00
  -4   2   0   92.39    3.70
  -4   2   0   85.49    4.10
   3  -2   0    1.00    0.40
   3  -2   0    0.30    0.30
   3  -2   0    0.90    0.30
  -3   2   0    0.60    0.30
  -3   2   0    1.20    0.10
  -3   2   0    2.00    0.40
  -3   2   0    0.80    0.40
   2  -2   0   80.49    3.50
   2  -2   0   82.19    3.70
   2  -2   0   81.29    3.70
  -2   2   0   85.69    3.60
  -2   2   0   82.19    3.70
  -2   2   0   81.39    3.50
   1  -2   0   11.80    0.80
   1  -2   0   13.40    0.80
   1  -2   0   13.30    0.60
  -1   2   0   13.70    0.80
  -1   2   0   12.70    0.60
  -1   2   0   13.90    0.70
  -1   2   0   13.50    0.80
   0  -2   0 1927.61   77.59
   0  -2   0 1778.42   77.09
   0   2   0 1867.71   77.79
   0   2   0 1850.01   76.79
   0   2   0 2007.50   77.79
  -1  -2   0 1644.34   61.49
  -1  -2   0 1322.37   60.99
   1   2   0 1523.25   61.09
   1   2   0 1477.75   61.09
   1   2   0 1494.55   61.59
   1   2   0 1529.35   61.69
  -2  -2   0 9937.81  382.46
   2   2   0 8794.92  380.86
   2   2   0 9503.25  381.86
   2   2   0 8719.93  382.76
   2   2   0 9916.71  382.86
  -3  -2   0  270.97   11.80
  -3  -2   0  262.87   11.50
   3   2   0  275.57   11.60
   3   2   0  261.27   11.80
   3   2   0  282.67   11.40
  -4  -2   0  254.07   11.80
  -4  -2   0  252.77   11.40
  -4  -2   0  256.77   11.10
   4   2   0  285.47   11.60
   4   2   0  283.37   11.30
  -5  -2   0   77.49    3.60
   5   2   0   79.39    3.80
   5   2   0   83.59    4.30
   6   2   0    3.90    1.00
  -7  -2   0    9.00    1.30
  -7  -2   0   11.20    0.90
   7   2   0   10.00    1.20
  -8  -2   0  538.85   22.30
  -8  -2   0  519.85   22.90
   8   2   0  569.04   22.80
  -9  -2   0    9.60    1.40
  -9  -2   0   10.20    0.90
   9   2   0   11.50    1.40
 -10  -2   0    7.70    1.20
  10   2   0    7.80    1.10
 -11  -2   0   34.20    2.10
  11   2   0   34.70    2.00
 -12   3   0    0.40    0.70
  11  -3   0    4.50    0.90
 -11   3   0    2.90    0.50
 -11   3   0    3.50    1.10
  10  -3   0   10.80    1.20
 -10   3   0   13.60    1.10
 -10   3   0   11.30    1.60
   9  -3   0  140.99    6.50
  -9   3   0  147.29    7.00
  -9   3   0  145.39    6.20
   8  -3   0  110.39    6.20
  -8   3   0  141.69    6.10
   7  -3   0  203.18    9.50
   7  -3   0  217.28    9.80
  -7   3   0  214.68    9.00
   6  -3   0    0.80    0.70
   6  -3   0    1.10    0.50
  -6   3   0    0.50    0.30
  -6   3   0    1.00    0.60
   5  -3   0    5.40    0.80
   5  -3   0    7.20    1.00
  -5   3   0    4.30    0.80
  -5   3   0    7.40    0.60
   4  -3   0   86.89    4.00
   4  -3   0   88.79    4.20
  -4   3   0   90.49    4.30
  -4   3   0   84.69    3.90
   3  -3   0   45.30    2.50
   3  -3   0   48.90    2.30
   3  -3   0   49.20    2.60
  -3   3   0   54.39    2.60
  -3   3   0   48.50    2.40
  -3   3   0   52.89    2.40
   2  -3   0   12.40    1.00
   2  -3   0   11.70    1.00
   2  -3   0   13.50    0.70
  -2   3   0   12.90    0.80
  -2   3   0   12.00    0.90
  -2   3   0   12.90    1.00
   1  -3   0  466.85   20.20
   1  -3   0  467.85   20.10
  -1   3   0  525.55   20.10
  -1   3   0  476.55   20.10
  -1   3   0  486.75   20.00
  -1   3   0  493.55   19.90
   0  -3   0  221.28    9.50
   0  -3   0  214.88    9.40
   0   3   0  232.78    9.50
   0   3   0  221.98    9.50
   0   3   0  227.78    9.20
   0   3   0  213.48    9.20
  -1  -3   0  233.98   10.10
  -1  -3   0  240.18    9.90
   1   3   0  238.78   10.10
   1   3   0  245.98    9.80
   1   3   0  230.18    9.80
   1   3   0  221.58    9.70
   1   3   0  225.98   10.10
  -2  -3   0   95.39    4.30
  -2  -3   0   96.39    4.50
   2   3   0   88.49    4.50
   2   3   0   90.49    4.50
   2   3   0   89.59    4.00
   2   3   0   93.49    4.20
   2   3   0   93.09    4.30
  -3  -3   0  848.62   36.50
  -3  -3   0  914.31   36.90
   3   3   0  918.01   36.90
   3   3   0  879.11   36.40
   3   3   0  864.21   36.60
  -4  -3   0  148.49    6.40
   4   3   0  145.29    6.90
   4   3   0  150.08    6.60
   5   3   0   49.60    3.10
   5   3   0   45.30    2.60
  -6  -3   0  165.48    7.50
  -7  -3   0    7.00    0.70
  -7  -3   0    8.60    1.30
   7   3   0    8.10    1.10
  -8  -3   0   15.60    1.10
  -8  -3   0   16.40    1.80
   8   3   0   17.80    1.70
  -9  -3   0   79.29    4.30
   9   3   0   90.19    4.30
  10   3   0   20.60    1.60
  11   3   0    3.60    0.60
 -12   4   0   25.80    2.00
 -11   4   0    3.80    1.10
 -11   4   0    2.20    0.50
 -10   4   0   21.50    2.20
 -10   4   0   21.90    1.40
  -9   4   0    0.10    0.80
  -9   4   0    1.90    0.50
   8  -4   0  503.65   21.20
  -8   4   0  464.85   20.60
   7  -4   0   51.79    3.30
  -7   4   0   50.99    2.50
   6  -4   0   79.69    4.40
  -6   4   0   85.99    3.70
  -6   4   0   81.19    4.50
   5  -4   0   86.79    4.00
   5  -4   0   66.99    3.50
  -5   4   0   72.59    3.90
  -5   4   0   82.09    3.60
  -5   4   0   68.79    3.30
   4  -4   0  548.65   24.20
   4  -4   0  598.14   24.70
  -4   4   0  625.94   24.40
  -4   4   0  616.14   24.70
  -4   4   0  562.94   24.10
   3  -4   0  106.49    4.50
   3  -4   0  102.19    4.90
   3  -4   0  103.59    4.90
  -3   4   0  102.59    4.70
  -3   4   0  106.79    4.90
   2  -4   0  386.26   16.30
   2  -4   0  388.86   15.90
   2  -4   0  395.76   16.30
  -2   4   0  370.36   16.10
  -2   4   0  392.36   16.20
  -2   4   0  387.66   16.30
   1  -4   0  174.08    7.20
   1  -4   0  157.48    7.20
  -1   4   0  163.18    7.20
  -1   4   0  158.98    7.10
  -1   4   0  167.88    7.00
  -1   4   0  157.78    6.80
   0  -4   0  399.46   16.80
   0  -4   0  408.06   17.00
   0   4   0  408.46   16.70
   0   4   0  399.86   16.60
   0   4   0  397.76   16.90
   0   4   0  399.36   17.00
  -1  -4   0  808.12   32.40
  -1  -4   0  788.42   32.70
   1   4   0  753.72   32.20
   1   4   0  780.12   32.30
   1   4   0  774.92   32.70
   1   4   0  794.52   32.60
   1   4   0  800.22   32.30
  -2  -4   0 1465.65   60.09
  -2  -4   0 1454.05   60.39
   2   4   0 1465.15   59.79
   2   4   0 1423.86   59.99
   2   4   0 1492.15   60.39
   2   4   0 1493.75   59.99
  -3  -4   0 1607.54   66.79
   3   4   0 1630.94   66.69
   3   4   0 1653.63   66.99
   4   4   0  665.23   28.10
   4   4   0  684.63   28.40
   5   4   0  353.66   15.20
  -6  -4   0    9.80    0.80
   6   4   0    6.70    1.00
  -7  -4   0   33.00    2.40
  -7  -4   0   20.20    1.30
   7   4   0   19.20    1.80
   8   4   0    4.90    1.00
   9   4   0    3.90    0.90
  10   4   0    9.50    1.00
 -12   5   0   21.10    1.90
 -11   5   0   38.70    1.90
 -11   5   0   36.90    2.70
 -10   5   0   24.10    2.30
 -10   5   0   30.40    1.60
  -9   5   0   56.59    2.70
  -9   5   0   54.79    3.40
   8  -5   0    0.50    0.80
  -8   5   0    1.10    0.80
   7  -5   0  189.58    9.40
  -7   5   0  205.68    8.50
   6  -5   0   90.39    5.20
  -6   5   0  108.69    4.80
  -6   5   0  103.79    4.50
  -6   5   0  101.09    5.40
   5  -5   0  193.98    8.90
  -5   5   0  168.98    8.10
  -5   5   0  215.38    8.50
  -5   5   0  195.08    8.90
   4  -5   0   63.89    3.40
  -4   5   0   59.79    3.40
  -4   5   0   60.79    3.10
   3  -5   0  107.59    5.00
  -3   5   0   97.69    4.70
  -3   5   0  107.49    5.10
  -3   5   0  103.39    4.50
   2  -5   0  135.89    6.00
  -2   5   0  118.29    5.70
  -2   5   0  131.79    6.00
   1  -5   0   31.70    2.00
  -1   5   0   32.60    1.80
  -1   5   0   31.40    2.10
   0  -5   0  157.48    6.90
   0   5   0  154.78    6.70
   0   5   0  146.09    7.10
   0   5   0  153.48    6.70
   0   5   0  153.18    6.60
  -1  -5   0  156.18    7.00
   1   5   0  158.18    6.80
   1   5   0  145.29    6.80
   1   5   0  153.18    6.70
  -2  -5   0    6.20    1.00
   2   5   0    5.80    0.90
   2   5   0    6.90    0.90
   3   5   0    5.90    0.90
   3   5   0    5.10    1.00
   4   5   0  161.48    7.50
   4   5   0  152.78    7.50
  -5  -5   0  316.07   13.30
  -5  -5   0  336.57   14.50
   5   5   0  310.17   13.60
  -6  -5   0    2.50    1.10
  -6  -5   0    1.40    0.50
   6   5   0    1.80    0.80
  -7  -5   0   12.20    1.90
   7   5   0   11.70    1.30
  -8  -5   0    8.70    2.00
   8   5   0    7.00    1.00
   9   5   0   11.50    1.20
 -12   6   0    6.20    1.10
 -11   6   0  188.38    7.80
 -11   6   0  179.78    8.50
 -10   6   0  124.89    5.30
 -10   6   0  115.69    6.00
  -9   6   0    5.10    1.10
  -9   6   0    5.70    0.70
   8  -6   0   42.50    3.20
  -8   6   0   38.10    2.10
  -8   6   0   40.40    2.60
   7  -6   0   22.50    2.30
  -7   6   0   23.60    1.80
  -7   6   0   23.80    1.50
   6  -6   0  410.36   17.50
  -6   6   0  402.26   16.50
  -6   6   0  375.96   16.80
   5  -6   0    2.90    0.90
  -5   6   0    3.70    0.60
  -5   6   0    3.90    0.80
  -5   6   0    3.60    1.00
   4  -6   0   76.09    3.90
  -4   6   0   67.89    3.50
  -4   6   0   65.59    3.10
  -4   6   0   68.59    3.90
   3  -6   0   86.39    4.50
  -3   6   0   87.39    4.60
  -3   6   0   90.09    4.20
   2  -6   0  370.46   15.20
  -2   6   0  341.67   14.70
  -2   6   0  361.76   14.80
  -2   6   0  354.86   15.20
  -2   6   0  319.87   14.40
   1  -6   0   15.00    1.40
  -1   6   0   15.80    1.20
  -1   6   0   12.70    0.90
  -1   6   0   15.50    1.20
   0  -6   0  468.45   20.00
   0   6   0  463.55   19.70
   0   6   0  480.75   19.70
  -1  -6   0  118.89    5.90
   1   6   0  126.19    5.60
   1   6   0  123.49    5.70
   2   6   0  275.27   12.00
   3   6   0   97.79    4.60
  -4  -6   0  309.07   14.40
  -4  -6   0  318.67   13.20
   4   6   0  322.87   13.50
  -5  -6   0    1.60    0.40
  -5  -6   0    3.10    1.30
   5   6   0    1.10    0.70
  -6  -6   0  182.38    8.90
   6   6   0  176.58    8.00
  -7  -6   0   93.19    5.30
   7   6   0   94.09    4.50
  -8  -6   0    7.00    1.30
   8   6   0    7.00    0.90
   9   6   0   11.50    1.00
 -12   7   0   12.00    1.50
 -11   7   0  425.36   17.80
 -11   7   0  440.46   18.50
 -10   7   0  135.79    6.80
 -10   7   0  147.39    6.10
  -9   7   0    3.00    1.00
  -9   7   0    3.10    0.60
  -8   7   0   89.79    4.00
  -8   7   0   92.59    4.50
  -8   7   0   85.79    4.60
   7  -7   0  198.48    9.50
  -7   7   0  192.38    8.60
  -7   7   0  185.98    8.60
   6  -7   0   15.10    2.00
  -6   7   0   15.10    1.20
  -6   7   0   13.20    1.50
   5  -7   0  126.99    6.40
  -5   7   0  124.79    6.00
  -5   7   0  121.79    5.50
   4  -7   0  246.28   11.60
  -4   7   0  273.57   11.30
  -4   7   0  251.27   10.80
   3  -7   0  103.09    5.40
  -3   7   0  102.29    5.00
   2  -7   0   20.50    1.80
  -2   7   0   19.20    1.40
  -2   7   0   19.30    1.60
   1  -7   0  117.39    5.90
  -1   7   0  120.59    5.60
  -1   7   0  123.59    5.60
   0  -7   0   25.80    2.10
   0   7   0   25.60    1.80
   0   7   0   26.50    1.80
   1   7   0   64.79    3.50
   2   7   0   62.49    3.20
  -3  -7   0   31.00    1.60
  -3  -7   0   34.90    2.90
   3   7   0   32.40    2.10
  -4  -7   0    5.20    1.40
   4   7   0    5.70    1.00
  -5  -7   0  497.15   21.30
   5   7   0  464.95   20.20
  -6  -7   0   13.90    2.00
  -7  -7   0    3.60    1.10
 -12   8   0  170.98    7.60
 -11   8   0   11.20    1.40
 -10   8   0  176.28    8.50
 -10   8   0  189.88    7.80
  -9   8   0   19.80    1.40
  -9   8   0   24.10    2.00
  -9   8   0   21.90    2.10
  -8   8   0   74.19    3.80
  -8   8   0   63.39    3.10
  -7   8   0    7.40    1.30
  -7   8   0    8.50    1.20
  -7   8   0    7.50    0.80
   6  -8   0   37.60    3.10
  -6   8   0   38.60    2.50
  -6   8   0   42.60    2.80
   5  -8   0   13.60    1.90
  -5   8   0   13.90    1.60
   4  -8   0   83.79    4.90
  -4   8   0   84.09    4.40
   3  -8   0  116.99    6.00
  -3   8   0  108.39    5.50
   2  -8   0  306.77   13.30
  -2   8   0  277.37   12.70
  -2   8   0  294.97   12.80
   1  -8   0  177.18    8.60
  -1   8   0  189.58    8.30
  -1   8   0  176.78    8.20
   0   8   0    6.90    1.10
   0   8   0    8.00    1.00
  -1  -8   0   41.90    3.10
   1   8   0   40.10    2.40
  -2  -8   0   50.19    3.70
   2   8   0   52.79    2.90
  -3  -8   0   82.69    5.10
   3   8   0   82.49    4.20
  -4  -8   0   13.50    2.10
   4   8   0   12.30    1.40
  -5  -8   0   25.50    2.70
   5   8   0   25.00    1.90
  -6  -8   0    9.20    1.60
  -7  -8   0   62.59    3.50
 -10   9   0    3.40    0.90
  -9   9   0  348.97   15.20
  -8   9   0    9.60    1.50
  -7   9   0  119.59    5.90
  -6   9   0   14.70    1.70
   5  -9   0   14.10    2.10
  -5   9   0   15.50    1.60
  -5   9   0   14.90    1.80
   4  -9   0  204.38   10.30
  -4   9   0  207.38    9.50
  -4   9   0  210.18    9.80
  -4   9   0  237.18   10.40
   3  -9   0  323.07   15.20
  -3   9   0  332.37   14.50
  -3   9   0  348.47   15.40
  -3   9   0  346.07   14.80
   2  -9   0    9.80    1.60
   2  -9   0    5.60    2.20
  -2   9   0   10.90    1.50
  -2   9   0   10.50    1.20
   1  -9   0  236.38   11.20
  -1   9   0  231.58   10.20
  -1   9   0  235.48   10.60
   0  -9   0   40.50    3.10
   0   9   0   37.50    2.40
  -1  -9   0  170.58    8.70
   1   9   0  173.78    7.80
  -2  -9   0  140.59    7.60
   2   9   0  145.59    6.70
  -3  -9   0   96.79    5.70
   3   9   0   97.19    4.80
  -4  -9   0    3.90    1.40
   4   9   0    4.60    1.00
  -5  -9   0    8.40    1.50
   5   9   0    9.60    1.10
  -6  -9   0    3.30    1.00
 -10  10   0  126.79    6.00
  -9  10   0  102.39    5.20
  -8  10   0  295.97   13.10
  -7  10   0   15.10    1.70
  -6  10   0   60.79    3.60
  -5  10   0    1.50    1.10
  -5  10   0    0.80    0.80
   4 -10   0   94.09    7.60
  -4  10   0  128.19    5.70
   3 -10   0   22.30    3.20
  -3  10   0   24.10    1.90
   2 -10   0   36.30    3.50
  -2  10   0   34.70    2.20
   1 -10   0   44.90    3.50
  -1  10   0   40.60    2.50
   0 -10   0   10.80    2.00
   0  10   0   10.20    1.30
  -1 -10   0    8.30    1.80
   1  10   0   13.50    1.50
  -2 -10   0   29.20    3.00
   2  10   0   32.50    2.30
  -3 -10   0   72.09    4.60
   3  10   0   71.79    3.80
  -4 -10   0    4.30    1.30
   4  10   0    4.50    0.90
  -5 -10   0   88.49    4.60
   5  10   0   85.69    4.00
 -11  11   0   15.30    1.30
 -10  11   0   -0.20    0.60
  -9  11   0  134.29    6.40
  -8  11   0  113.69    5.70
  -7  11   0    2.40    1.00
  -6  11   0    1.50    1.00
   5 -11   0  152.08    9.30
  -5  11   0  166.88    7.50
   4 -11   0   90.89    6.10
  -4  11   0   92.69    4.70
   3 -11   0    6.40    1.80
  -3  11   0    8.10    1.20
   2 -11   0  117.59    6.80
  -2  11   0  129.99    5.90
   1 -11   0  167.48    8.60
  -1  11   0  170.28    7.70
   0 -11   0   31.20    3.10
   0  11   0   28.00    2.10
  -1 -11   0  117.29    6.60
   1  11   0  124.79    5.80
  -2 -11   0   84.29    5.10
   2  11   0   89.49    4.30
  -3 -11   0    1.00    1.00
   3  11   0    2.70    0.80
  -4 -11   0   76.99    4.10
   4  11   0   77.79    3.60
 -10  12   0   23.70    1.60
  -9  12   0   -0.30    0.60
  -8  12   0  105.29    5.20
  -7  12   0  134.89    6.40
  -6  12   0   42.00    2.70
   5 -12   0   33.20    3.40
  -5  12   0   39.30    2.50
   4 -12   0  193.78    9.70
  -4  12   0  200.68    8.90
   3 -12   0   11.20    1.90
   2 -12   0   41.50    3.50
  -2  12   0   45.60    2.60
   1 -12   0   34.80    3.10
  -1  12   0   40.50    2.40
   0 -12   0  200.08    9.70
   0  12   0  201.78    8.90
  -1 -12   0    5.00    1.30
   1  12   0    5.30    0.90
  -2 -12   0    4.60    1.10
   2  12   0    7.20    0.90
  -3 -12   0   10.30    1.30
  -9  13   0   47.50    2.60
  -8  13   0   19.70    1.60
  -7  13   0   57.49    3.20
  -6  13   0    8.50    1.20
   5 -13   0  140.09    7.00
  -5  13   0  143.99    6.50
   4 -13   0   16.50    2.10
  -4  13   0   19.50    1.80
   3 -13   0   47.70    3.40
   2 -13   0    2.70    1.10
   1 -13   0  204.58    9.60
  -1  13   0  209.78    9.00
   0 -13   0    2.20    1.00
   0  13   0    2.50    0.70
  -1 -13   0    7.90    1.20
  -7  14   0    2.90    0.70
  -6  14   0  240.48   10.30
   4 -14   0   24.70    2.00
   3 -14   0   45.70    2.80
   2 -14   0   30.10    2.20
   3 -14   1   69.79    3.80
   4 -14   1   48.70    3.00
  -5  14  -1    3.50    0.70
   5 -14   1    3.00    0.90
  -6  14  -1    0.40    0.50
  -7  14  -1   89.89    4.20
  -1 -13   1   14.80    1.60
   0  13  -1   13.00    1.20
   0 -13   1   12.80    1.80
  -1  13  -1   19.80    1.50
   1 -13   1   20.40    2.20
   2 -13   1   24.80    2.50
   3 -13   1    0.60    1.00
  -4  13  -1  100.69    4.70
   4 -13   1   95.29    5.40
  -5  13  -1   46.20    2.60
   5 -13   1   39.80    3.10
  -6  13  -1  157.18    7.20
  -7  13  -1    4.80    1.00
  -8  13  -1    2.40    0.80
  -9  13  -1    0.30    0.60
  -3 -12   1    5.60    1.00
   2  12  -1    2.80    0.70
  -2 -12   1    2.20    1.00
   1  12  -1   17.80    1.60
  -1 -12   1   19.10    2.20
   0  12  -1   23.80    1.90
   0 -12   1   25.30    2.60
  -1  12  -1   40.80    2.40
   1 -12   1   35.40    3.20
  -2  12  -1   22.30    1.70
   2 -12   1   18.80    2.60
  -3  12  -1   23.80    1.90
   3 -12   1   19.00    2.80
  -4  12  -1   15.40    1.70
   4 -12   1   14.90    2.40
  -5  12  -1  179.48    8.00
   5 -12   1  166.88    9.00
  -6  12  -1   24.10    2.10
   6 -12   1   27.00    3.90
  -7  12  -1   23.40    2.00
  -8  12  -1   13.00    1.50
  -9  12  -1    4.60    0.90
 -10  12  -1   17.00    1.40
   4  11  -1    1.90    0.60
  -4 -11   1    2.30    0.90
   3  11  -1   14.50    1.40
  -3 -11   1   13.60    2.00
   2  11  -1   13.10    1.40
  -2 -11   1   10.60    1.80
   1  11  -1    0.80    0.80
  -1 -11   1   -0.30    1.10
   0  11  -1  255.37   10.90
   0 -11   1  240.48   11.80
  -1  11  -1  223.68    9.80
   1 -11   1  220.68   10.80
  -2  11  -1   50.49    2.90
   2 -11   1   48.50    4.00
  -3  11  -1   -0.30    0.80
   3 -11   1    0.30    1.60
  -4  11  -1    5.80    1.10
   4 -11   1    5.40    2.50
  -5  11  -1   61.59    3.50
   5 -11   1   57.19    6.10
  -6  11  -1  190.68    9.80
  -6  11  -1  201.78    9.00
  -7  11  -1   53.09    3.30
  -8  11  -1   71.99    4.00
  -9  11  -1   10.50    1.30
 -10  11  -1   31.60    2.10
   5  10  -1    6.90    0.80
  -5 -10   1    6.10    1.10
   4  10  -1    2.70    0.80
  -4 -10   1    1.90    1.10
   3  10  -1   10.40    1.30
  -3 -10   1    9.80    1.80
   2  10  -1    2.00    0.90
  -2 -10   1    1.60    1.20
   1  10  -1  483.35   19.90
  -1 -10   1  456.75   20.80
   0  10  -1   75.69    3.90
   0 -10   1   70.39    4.70
  -1  10  -1  154.58    7.00
   1 -10   1  150.18    8.00
  -2  10  -1   67.59    3.60
  -2  10  -1   66.19    3.60
   2 -10   1   74.39    5.10
  -3  10  -1  234.48   10.00
   3 -10   1  214.88   11.90
  -4  10  -1    0.30    0.70
  -4  10  -1   -0.50    1.20
  -5  10  -1    5.50    1.20
  -5  10  -1    3.60    1.70
  -6  10  -1   10.60    1.50
  -6  10  -1   11.50    2.10
  -7  10  -1  227.18   10.30
  -8  10  -1    6.60    1.30
  -9  10  -1  140.59    6.70
 -10  10  -1   58.19    3.20
  -6  -9   1    6.10    1.10
   5   9  -1    8.50    1.10
  -5  -9   1    6.50    1.40
   4   9  -1  120.99    5.60
  -4  -9   1  111.99    6.30
   3   9  -1  203.08    9.10
  -3  -9   1  205.58   10.00
   2   9  -1  101.59    4.90
  -2  -9   1   96.59    5.80
   1   9  -1   24.10    1.90
  -1  -9   1   23.80    2.60
   0   9  -1   51.99    2.90
   0  -9   1   54.19    3.70
  -1   9  -1    7.80    1.30
  -1   9  -1    6.90    1.00
   1  -9   1    9.20    1.90
  -2   9  -1   56.19    3.20
  -2   9  -1   49.00    2.90
  -2   9  -1   53.89    2.80
   2  -9   1   53.89    3.60
   2  -9   1   36.00    4.60
  -3   9  -1    0.20    0.70
  -3   9  -1    0.50    0.70
  -3   9  -1   -0.20    1.10
   3  -9   1    1.10    0.90
  -4   9  -1   16.40    2.20
  -4   9  -1   13.40    1.50
  -4   9  -1   10.80    1.50
   4  -9   1    8.80    1.70
  -5   9  -1    7.40    1.20
  -5   9  -1    6.90    1.20
   5  -9   1    6.90    1.60
  -6   9  -1    8.20    1.30
  -7   9  -1    2.20    1.00
  -7   9  -1    0.90    0.60
  -8   9  -1  645.64   26.70
  -8   9  -1  654.73   27.40
  -9   9  -1    4.10    0.70
  -9   9  -1    2.60    1.00
  -7  -8   1  162.98    7.50
   6   8  -1    1.20    0.70
  -6  -8   1    1.30    1.00
   5   8  -1   13.90    1.40
  -5  -8   1   15.20    2.10
   4   8  -1  105.29    5.20
  -4  -8   1  107.99    6.10
   3   8  -1   26.90    2.00
  -3  -8   1   25.20    2.80
   2   8  -1   13.70    1.50
  -2  -8   1   15.80    2.20
   1   8  -1    2.60    0.70
  -1  -8   1    4.80    1.20
   0   8  -1   -0.30    0.60
   0   8  -1    0.40    0.60
  -1   8  -1   85.29    4.30
  -1   8  -1   80.99    4.30
   1  -8   1   86.09    4.60
  -2   8  -1  144.69    6.70
   2  -8   1  136.69    6.90
  -3   8  -1  209.58    9.40
   3  -8   1  204.78    9.80
  -4   8  -1   34.40    1.80
  -4   8  -1   33.10    2.30
   4  -8   1   30.00    2.60
  -5   8  -1   40.00    2.60
  -5   8  -1   37.60    2.10
   5  -8   1   39.00    3.00
  -6   8  -1   89.49    4.00
  -6   8  -1   88.59    4.40
  -6   8  -1   81.89    4.50
   6  -8   1   81.49    5.10
  -7   8  -1  375.06   15.20
  -7   8  -1  353.96   15.70
  -8   8  -1    5.10    0.80
  -8   8  -1    6.30    1.20
  -8   8  -1    7.40    1.30
  -9   8  -1   98.79    4.60
  -9   8  -1  106.49    5.20
  -9   8  -1  102.89    5.30
 -10   8  -1   83.39    4.50
 -10   8  -1   80.29    3.70
 -11   8  -1  387.76   16.50
 -11   8  -1  381.36   15.80
 -12   8  -1    2.30    0.70
  -7  -7   1   16.40    2.00
   6   7  -1   91.19    4.50
  -6  -7   1   91.69    5.30
   5   7  -1  231.38   10.00
  -5  -7   1  224.78   10.90
   4   7  -1   12.20    1.30
  -4  -7   1   11.70    1.90
   3   7  -1    3.60    0.80
  -3  -7   1    5.00    1.30
   2   7  -1    5.20    0.80
   1   7  -1    0.60    0.60
   1   7  -1    0.60    0.60
   0   7  -1   22.60    1.60
   0   7  -1   19.40    1.60
   0  -7   1   21.00    1.80
  -1   7  -1    0.50    0.60
  -1   7  -1    1.40    0.60
   1  -7   1    0.00    0.60
  -2   7  -1  282.37   12.20
  -2   7  -1  280.97   12.50
  -2   7  -1  316.37   12.70
   2  -7   1  288.67   12.90
  -3   7  -1   73.99    3.70
  -3   7  -1   72.79    4.20
  -3   7  -1   71.49    3.30
   3  -7   1   70.39    4.00
  -4   7  -1   64.79    4.00
  -4   7  -1   67.29    3.10
  -4   7  -1   74.99    3.70
   4  -7   1   65.19    3.90
  -5   7  -1  234.28   10.00
  -5   7  -1  234.48   10.50
   5  -7   1  238.58   10.90
  -6   7  -1    6.50    1.10
  -6   7  -1    7.20    0.80
   6  -7   1    7.00    1.40
  -7   7  -1  107.89    5.30
  -7   7  -1  104.39    4.80
  -7   7  -1  104.89    5.20
   7  -7   1  107.99    6.00
  -8   7  -1    2.90    0.60
  -8   7  -1    3.00    0.90
  -8   7  -1    4.30    1.10
  -9   7  -1  116.49    5.00
  -9   7  -1  106.99    5.70
 -10   7  -1   15.00    1.80
 -10   7  -1   14.90    1.20
 -11   7  -1  175.18    7.40
 -11   7  -1  177.18    8.20
 -12   7  -1  284.37   12.40
   8   6  -1   10.60    1.10
   7   6  -1  110.39    5.10
  -7  -6   1  107.39    5.80
  -6  -6   1   28.00    2.80
   5   6  -1  556.94   23.30
  -5  -6   1  558.94   24.20
   4   6  -1  121.29    5.90
  -4  -6   1  137.69    6.70
   3   6  -1   43.70    2.40
   2   6  -1  187.68    8.50
   1   6  -1   42.50    2.40
   1   6  -1   44.40    2.50
   0   6  -1   24.00    1.30
   0   6  -1   25.90    1.60
   0   6  -1   24.40    1.70
   0  -6   1   24.70    1.80
  -1   6  -1   74.99    4.10
  -1   6  -1   71.69    3.60
  -1   6  -1   75.99    3.60
   1  -6   1   74.79    3.80
  -2   6  -1  580.84   23.70
  -2   6  -1  566.34   23.40
  -2   6  -1  566.54   23.60
  -2   6  -1  570.64   24.10
   2  -6   1  562.04   24.00
  -3   6  -1   55.09    3.20
  -3   6  -1   57.59    2.60
  -3   6  -1   59.79    3.00
   3  -6   1   53.89    3.20
  -4   6  -1  520.05   21.80
  -4   6  -1  536.85   22.60
  -4   6  -1  499.75   22.20
   4  -6   1  569.44   22.70
  -5   6  -1  520.05   23.10
  -5   6  -1  541.65   23.60
  -5   6  -1  553.74   22.80
   5  -6   1  598.14   23.70
  -6   6  -1   45.70    2.30
  -6   6  -1   49.90    2.70
  -6   6  -1   42.60    3.10
   6  -6   1   45.80    3.20
  -7   6  -1   79.49    3.80
  -7   6  -1   76.29    4.10
   7  -6   1   91.69    5.00
  -8   6  -1   25.20    2.00
  -8   6  -1   27.80    1.70
  -8   6  -1   25.50    1.50
   8  -6   1   20.40    2.40
  -9   6  -1  246.98   10.20
  -9   6  -1  237.78   10.90
 -10   6  -1    0.90    1.00
 -10   6  -1    0.10    0.50
 -11   6  -1   82.89    4.40
 -11   6  -1   80.29    3.70
 -12   6  -1    2.30    0.90
 -12   6  -1    1.80    0.40
   9   5  -1    1.90    0.60
   8   5  -1   26.10    1.90
   7   5  -1   50.19    2.90
  -7  -5   1   54.79    4.10
   6   5  -1  663.93   27.30
  -6  -5   1  645.64   28.00
   5   5  -1    1.60    0.70
   5   5  -1    4.20    0.80
  -5  -5   1    6.20    0.60
   4   5  -1  341.67   15.00
   3   5  -1  398.86   17.00
   3   5  -1  392.76   16.80
   2   5  -1   51.99    2.70
   2   5  -1   50.49    2.80
   2   5  -1   49.60    2.60
   1   5  -1   66.59    3.80
   1   5  -1   54.09    3.20
   1   5  -1   71.09    3.30
   1   5  -1   77.59    3.40
  -1  -5   1   74.59    3.50
   0   5  -1  422.36   18.10
   0   5  -1  423.36   17.70
   0   5  -1  432.86   17.70
   0  -5   1  416.76   17.80
  -1   5  -1   64.09    3.00
  -1   5  -1   61.29    3.30
  -1   5  -1   56.29    3.00
   1  -5   1   62.99    3.20
  -2   5  -1   81.29    3.80
  -2   5  -1   78.89    3.60
  -2   5  -1   77.09    4.00
   2  -5   1   82.99    4.00
  -3   5  -1   10.00    1.00
  -3   5  -1    9.50    1.10
  -3   5  -1   10.10    0.70
  -3   5  -1   13.70    0.80
   3  -5   1   13.30    1.30
  -4   5  -1  983.30   40.90
  -4   5  -1  974.90   40.60
  -4   5  -1 1046.50   40.30
   4  -5   1  944.01   40.90
  -5   5  -1  397.26   15.70
  -5   5  -1  357.96   15.30
  -5   5  -1  369.26   16.10
   5  -5   1  360.16   16.10
  -6   5  -1  321.67   13.50
  -6   5  -1  326.87   13.90
  -6   5  -1  306.27   14.40
   6  -5   1  347.77   14.50
  -7   5  -1    1.30    0.50
   7  -5   1    1.20    0.90
  -8   5  -1    6.70    1.20
  -8   5  -1    4.20    0.70
   8  -5   1    5.20    1.40
  -9   5  -1   17.80    1.90
  -9   5  -1   17.10    1.30
 -10   5  -1  122.29    5.40
 -10   5  -1  126.79    6.30
 -11   5  -1  169.08    7.90
 -11   5  -1  164.58    7.10
 -12   5  -1    3.10    0.90
 -12   5  -1    2.00    0.40
  10   4  -1  128.59    5.70
   9   4  -1    1.90    0.70
   8   4  -1    0.50    0.70
  -8  -4   1    0.40    0.80
   7   4  -1  233.18    9.70
  -7  -4   1  219.68    9.90
  -7  -4   1  208.18    9.40
   6   4  -1  187.28    8.90
  -6  -4   1  231.88    9.50
  -6  -4   1  191.88    9.00
  -6  -4   1  198.48    8.50
   5   4  -1  392.96   16.80
   4   4  -1    3.60    0.80
   4   4  -1    4.10    1.00
   3   4  -1  523.45   21.40
   3   4  -1  500.25   21.60
   2   4  -1   87.29    4.60
   2   4  -1   87.09    4.00
   2   4  -1   89.19    4.10
   2   4  -1   88.39    4.20
  -2  -4   1   87.79    4.10
   1   4  -1  976.70   39.90
   1   4  -1  956.00   39.50
   1   4  -1  960.00   39.50
   1   4  -1 1007.80   39.60
   1   4  -1  925.91   40.00
  -1  -4   1  983.70   39.60
  -1  -4   1  938.81   39.90
   0   4  -1   61.09    3.00
   0   4  -1   60.09    3.10
   0   4  -1   60.19    2.80
   0   4  -1   54.79    2.80
   0   4  -1   61.39    2.70
   0  -4   1   58.19    2.90
   0  -4   1   55.59    3.00
  -1   4  -1   37.10    2.10
  -1   4  -1   37.00    2.00
  -1   4  -1   34.40    1.80
  -1   4  -1   38.00    1.70
  -1   4  -1   38.20    1.90
   1  -4   1   36.90    2.00
   1  -4   1   36.40    2.10
  -2   4  -1  122.99    5.50
  -2   4  -1  130.39    5.30
   2  -4   1  115.29    5.50
   2  -4   1  117.19    5.50
  -3   4  -1  562.64   25.90
  -3   4  -1  649.64   26.40
  -3   4  -1  698.13   26.20
   3  -4   1  655.43   26.40
   3  -4   1  615.64   25.90
  -4   4  -1    0.90    0.30
  -4   4  -1    1.00    0.40
  -4   4  -1    0.90    0.50
   4  -4   1    0.70    0.50
  -5   4  -1  363.56   14.60
  -5   4  -1  354.36   14.80
  -5   4  -1  345.47   15.20
   5  -4   1  345.27   15.20
  -6   4  -1   49.10    2.30
  -6   4  -1   47.60    3.10
   6  -4   1   49.20    3.00
  -7   4  -1   54.39    2.70
  -7   4  -1   54.59    3.60
   7  -4   1   56.29    3.50
  -8   4  -1   22.70    1.90
  -8   4  -1   21.50    1.40
   8  -4   1   19.60    2.20
  -9   4  -1  153.18    7.30
  -9   4  -1  150.78    6.50
 -10   4  -1   61.19    2.80
 -10   4  -1   53.29    3.60
 -11   4  -1   28.40    2.40
 -11   4  -1   27.10    1.60
 -12   4  -1  123.49    5.20
 -12   4  -1  123.89    5.90
  11   3  -1    3.00    0.60
  10   3  -1    1.40    0.70
 -10  -3   1    2.00    0.70
   9   3  -1    8.60    1.20
  -9  -3   1    8.80    1.30
   8   3  -1  324.47   13.40
  -8  -3   1  298.47   13.50
   7   3  -1  222.38   10.10
  -7  -3   1  227.68   10.30
  -7  -3   1  243.38    9.70
  -6  -3   1  130.39    6.10
   5   3  -1   52.79    3.30
   5   3  -1   55.19    2.90
   4   3  -1 1314.27   53.79
   4   3  -1 1293.57   53.49
   3   3  -1  197.48    8.60
   3   3  -1  208.18    8.80
  -3  -3   1  193.68    8.60
   2   3  -1 1778.52   75.69
   2   3  -1 1747.73   75.29
   2   3  -1 1878.51   75.79
   2   3  -1 1926.81   75.59
   2   3  -1 1918.11   75.39
  -2  -3   1 1889.71   75.49
  -2  -3   1 1815.42   75.79
   1   3  -1   34.70    1.80
   1   3  -1   33.80    1.90
   1   3  -1   35.40    1.80
   1   3  -1   33.80    1.70
   1   3  -1   32.30    2.00
  -1  -3   1   33.90    2.00
  -1  -3   1   33.90    1.80
   0   3  -1 1334.27   54.19
   0   3  -1 1329.37   54.19
   0   3  -1 1335.77   54.29
   0   3  -1 1345.47   54.39
   0   3  -1 1305.27   54.19
   0  -3   1 1319.97   54.39
   0  -3   1 1336.07   54.19
  -1   3  -1   61.09    2.80
  -1   3  -1   57.89    2.80
  -1   3  -1   61.79    2.50
  -1   3  -1   63.89    2.90
  -1   3  -1   59.79    2.70
   1  -3   1   61.89    2.80
   1  -3   1   58.99    2.90
  -2   3  -1  341.47   14.30
  -2   3  -1  354.16   14.10
  -2   3  -1  317.47   14.20
  -2   3  -1  337.77   14.00
  -2   3  -1  352.96   14.40
   2  -3   1  332.77   14.00
   2  -3   1  349.07   14.40
   2  -3   1  374.46   14.50
  -3   3  -1  159.88    6.60
  -3   3  -1  170.88    7.10
  -3   3  -1  154.68    7.20
  -3   3  -1  159.88    6.90
  -3   3  -1  160.28    6.60
   3  -3   1  162.28    7.20
   3  -3   1  166.48    6.80
   3  -3   1  163.28    7.10
  -4   3  -1  494.25   21.60
  -4   3  -1  513.65   21.90
   4  -3   1  541.05   21.60
   4  -3   1  547.55   22.00
  -5   3  -1   12.90    0.80
  -5   3  -1   12.50    1.30
  -5   3  -1   13.00    1.00
   5  -3   1   13.50    1.30
   5  -3   1   13.00    1.10
  -6   3  -1  204.48    9.30
  -6   3  -1  207.88    8.50
   6  -3   1  187.58    8.90
   6  -3   1  208.78    9.30
  -7   3  -1   15.60    1.80
  -7   3  -1   14.90    1.10
   7  -3   1   15.60    1.70
  -8   3  -1  550.34   22.30
  -8   3  -1  512.85   22.70
   8  -3   1  548.25   23.30
  -9   3  -1   25.90    1.60
  -9   3  -1   29.10    2.30
 -10   3  -1  327.87   14.70
 -10   3  -1  339.37   13.90
 -11   3  -1   13.60    1.10
 -11   3  -1   13.80    1.70
 -12   3  -1   82.79    4.20
  11   2  -1   34.40    2.00
 -11  -2   1   31.30    2.00
  10   2  -1    1.40    0.80
 -10  -2   1    1.70    0.90
   9   2  -1    5.90    1.10
  -9  -2   1    5.80    1.20
   8   2  -1   12.90    1.40
  -8  -2   1   14.50    1.70
  -8  -2   1   13.80    1.00
   7   2  -1  170.58    7.70
  -7  -2   1  172.08    7.90
  -7  -2   1  173.58    7.30
   6   2  -1   12.50    1.60
   5   2  -1  177.18    8.00
   5   2  -1  168.28    7.60
   4   2  -1   35.60    1.90
   4   2  -1   35.00    2.20
  -4  -2   1   32.70    2.50
   3   2  -1 5265.17  216.88
   3   2  -1 5280.67  216.08
   3   2  -1 5548.94  217.98
   3   2  -1 5556.34  217.38
  -3  -2   1 5440.76  217.48
  -3  -2   1 5501.65  216.88
  -3  -2   1 4554.64  216.28
   2   2  -1 1549.24   61.89
   2   2  -1 1519.25   61.99
   2   2  -1 1486.05   61.59
   2   2  -1 1542.45   61.79
   2   2  -1 1598.84   61.89
  -2  -2   1 1481.15   61.79
  -2  -2   1 1404.76   61.89
  -2  -2   1 1525.45   61.59
   1   2  -1 3965.70  149.09
   1   2  -1 3484.35  147.29
   1   2  -1 3545.95  147.89
   1   2  -1 3544.35  148.19
  -1  -2   1 3606.94  147.49
  -1  -2   1 3418.16  148.29
  -1  -2   1 3730.63  148.69
   0   2  -1  832.42   33.20
   0   2  -1  810.92   33.30
   0   2  -1  822.72   33.20
   0   2  -1  815.32   33.10
   0   2  -1  824.42   33.10
   0  -2   1  785.62   33.20
   0  -2   1  800.42   33.30
  -1   2  -1  154.18    6.30
  -1   2  -1  143.29    6.40
  -1   2  -1  143.69    6.30
  -1   2  -1  150.18    6.40
   1  -2   1  165.68    6.40
   1  -2   1  151.28    6.40
   1  -2   1  150.18    6.40
  -2   2  -1  532.15   20.70
  -2   2  -1  491.65   20.70
  -2   2  -1  461.55   20.60
  -2   2  -1  489.65   20.40
  -2   2  -1  507.15   20.60
   2  -2   1  521.35   20.70
   2  -2   1  501.65   20.70
   2  -2   1  515.05   20.50
  -3   2  -1  491.95   21.00
  -3   2  -1  550.54   21.30
   3  -2   1  521.95   21.20
   3  -2   1  457.95   21.10
   3  -2   1  544.85   21.30
  -4   2  -1   98.19    3.90
  -4   2  -1   82.09    4.20
   4  -2   1   88.29    4.30
   4  -2   1   88.09    4.10
  -5   2  -1    7.70    0.60
  -5   2  -1    7.40    1.00
   5  -2   1    7.90    1.10
   5  -2   1    9.30    1.00
  -6   2  -1    2.10    0.40
  -6   2  -1    2.00    0.80
   6  -2   1    2.90    0.70
   6  -2   1    1.20    0.60
  -7   2  -1  822.42   35.70
  -7   2  -1  873.21   34.70
   7  -2   1  830.92   35.40
   7  -2   1  859.61   35.60
  -8   2  -1   21.30    1.50
  -8   2  -1   24.50    2.00
  -9   2  -1    2.00    1.00
  -9   2  -1    5.10    0.70
   9  -2   1    1.70    0.80
 -10   2  -1   75.99    3.50
 -10   2  -1   78.09    4.30
  10  -2   1   77.99    3.90
 -11   2  -1  159.28    6.70
 -11   2  -1  160.38    7.50
  11  -2   1  157.78    7.10
 -12   2  -1   29.30    2.10
  12  -2   1   32.10    1.90
  12   1  -1    8.80    0.90
  11   1  -1   19.70    1.60
 -11  -1   1   16.90    1.60
  10   1  -1  174.98    7.60
 -10  -1   1  162.38    7.80
   9   1  -1    1.20    0.80
  -9  -1   1   -0.10    0.40
  -9  -1   1   -0.30    0.90
   8   1  -1   62.29    3.30
  -8  -1   1   61.59    3.50
  -8  -1   1   57.39    2.80
  -7  -1   1   12.20    1.40
   6   1  -1    4.40    1.00
   5   1  -1   57.49    2.80
   5   1  -1   56.39    3.20
  -5  -1   1   57.99    2.90
   4   1  -1 1369.66   56.09
   4   1  -1 1366.96   55.69
  -4  -1   1 1293.87   55.89
  -4  -1   1 1433.06   56.29
   3   1  -1   19.40    1.00
   3   1  -1   15.70    1.00
   3   1  -1   19.50    1.50
   3   1  -1   18.70    1.30
  -3  -1   1   18.90    1.40
  -3  -1   1   18.60    1.30
  -3  -1   1   18.50    1.20
   2   1  -1 9400.26  398.76
   2   1  -1 9934.51  388.26
   2   1  -1 9295.27  388.86
   2   1  -1 9723.53  389.86
  -2  -1   1 9274.27  389.16
  -2  -1   1 9999.00  388.26
  -2  -1   1 9129.19  389.36
   1   1  -1  176.38    7.50
   1   1  -1  180.68    7.50
   1   1  -1  174.48    7.50
  -1  -1   1  199.08    7.60
  -1  -1   1  173.18    7.40
  -1  -1   1  180.98    7.60
   0   1  -1 1589.64   65.29
   0   1  -1 1550.34   65.59
   0   1  -1 1597.14   65.29
   0   1  -1 1621.04   65.29
   0   1  -1 1613.04   65.49
   0   1  -1 1577.14   65.59
   0  -1   1 1787.12   65.59
   0  -1   1 1611.64   65.59
   0  -1   1 1466.35   65.19
   0  -1   1 1589.14   65.49
  -1   1  -1  121.89    4.90
  -1   1  -1  114.99    4.90
  -1   1  -1  116.39    4.80
  -1   1  -1  119.49    4.90
  -1   1  -1  118.89    5.00
   1  -1   1  112.29    4.80
   1  -1   1  116.99    4.90
   1  -1   1  121.49    4.90
   1  -1   1  114.29    5.00
   1  -1   1  128.29    4.90
  -2   1  -1  835.22   36.10
  -2   1  -1  878.71   35.90
  -2   1  -1  845.22   35.90
  -2   1  -1  955.20   36.10
   2  -1   1  896.71   36.00
   2  -1   1  848.32   36.00
   2  -1   1  900.21   36.10
   2  -1   1  905.61   36.10
  -3   1  -1    6.30    0.60
  -3   1  -1    9.00    0.80
  -3   1  -1    7.10    0.50
   3  -1   1    7.80    0.70
   3  -1   1    8.10    0.80
   3  -1   1    7.40    0.70
   3  -1   1    6.90    0.40
  -4   1  -1  225.98   10.40
   4  -1   1  228.78    9.90
   4  -1   1  254.77   10.30
   4  -1   1  256.17   10.40
  -5   1  -1  199.08    8.70
  -5   1  -1  196.38    8.00
   5  -1   1  196.58    8.50
   5  -1   1  175.38    8.50
  -6   1  -1  697.73   30.40
  -6   1  -1  716.83   29.50
   6  -1   1  695.63   30.10
   6  -1   1  769.92   30.20
  -7   1  -1  121.79    5.20
   7  -1   1  113.49    5.90
   7  -1   1  115.29    5.90
  -8   1  -1  398.96   15.60
  -8   1  -1  323.57   15.00
  -8   1  -1  351.26   15.00
   8  -1   1  358.46   15.20
  -9   1  -1   20.30    1.40
  -9   1  -1   21.70    2.10
   9  -1   1   21.60    1.70
 -10   1  -1  176.78    7.50
 -10   1  -1  177.68    8.30
  10  -1   1  173.48    7.90
 -11   1  -1  144.29    6.90
 -11   1  -1  148.99    6.20
  11  -1   1  144.19    6.60
 -12   1  -1    4.20    0.80
  12  -1   1    4.40    0.70
  12   0  -1   23.40    1.50
 -12   0   1   20.80    1.60
  11   0  -1  133.09    6.20
 -11   0   1  139.09    6.50
  10   0  -1   12.70    1.40
 -10   0   1   15.80    1.80
   9   0  -1   34.60    2.30
  -9   0   1   35.50    1.80
  -9   0   1   36.90    2.60
   8   0  -1   73.19    3.90
  -8   0   1   82.69    3.50
  -8   0   1   78.99    4.20
  -7   0   1  196.38    8.80
   6   0  -1  102.59    5.20
   5   0  -1  427.96   17.50
   5   0  -1  415.96   17.00
   5   0  -1  369.76   17.20
  -5   0   1  415.26   16.90
  -5   0   1  426.46   17.70
   4   0  -1  332.27   14.20
   4   0  -1  328.87   13.60
   4   0  -1  318.47   13.80
   4   0  -1  371.86   14.00
  -4   0   1  318.37   13.90
  -4   0   1  302.37   13.50
  -4   0   1  334.07   14.10
   3   0  -1  547.75   21.30
   3   0  -1  522.45   21.70
   3   0  -1  550.54   21.50
  -3   0   1  500.85   21.60
  -3   0   1  507.25   21.50
  -3   0   1  489.05   21.20
   2   0  -1 3095.59  115.29
   2   0  -1 3006.70  114.59
   2   0  -1 2496.35  114.49
  -2   0   1 2636.44  114.99
  -2   0   1 2811.22  114.89
   1   0  -1 1980.00   80.49
   1   0  -1 1969.60   80.69
   1   0  -1 2066.59   80.59
  -1   0   1 1928.81   80.89
  -1   0   1 1918.61   80.89
   0   0  -1   18.80    0.90
   0   0  -1   20.10    0.90
   0   0   1   20.70    0.90
   0   0   1   21.70    0.90
  -1   0  -1 1613.64   62.99
  -1   0  -1 1554.24   62.79
  -1   0  -1 1561.44   62.79
   1   0   1 1547.65   62.49
   1   0   1 1371.06   62.49
  -2   0  -1   59.89    2.90
  -2   0  -1   69.19    2.90
  -2   0  -1   61.79    3.00
   2   0   1   65.39    2.90
   2   0   1   62.39    2.90
  -3   0  -1   46.80    2.40
  -3   0  -1   47.20    2.30
   3   0   1   45.10    2.30
   3   0   1   44.90    2.40
   3   0   1   41.30    2.00
  -4   0  -1  188.68    8.70
  -4   0  -1  210.08    8.60
   4   0   1  207.08    8.60
   4   0   1  181.58    8.20
  -5   0  -1  424.16   18.60
  -5   0  -1  432.66   17.90
   5   0   1  459.05   18.40
   5   0   1  419.86   18.40
  -6   0  -1  118.89    6.30
  -6   0  -1  129.99    5.40
   6   0   1  120.79    6.00
   6   0   1  127.49    6.10
  -7   0  -1   62.29    3.00
  -7   0  -1   63.69    3.40
  -8   0  -1   18.90    1.80
  -8   0  -1   17.00    1.20
   8   0   1   19.00    1.60
  -9   0  -1  282.97   11.30
  -9   0  -1  263.87   12.10
   9   0   1  264.67   11.80
 -10   0  -1   48.90    3.20
 -10   0  -1   52.29    2.50
  10   0   1   52.99    3.00
 -11   0  -1   73.79    4.00
  11   0   1   78.79    3.80
  12   0   1    2.30    0.60
  12  -1  -1    4.00    0.70
 -12   1   1    3.80    0.80
  11  -1  -1   21.50    1.70
 -11   1   1   19.60    2.00
  10  -1  -1  312.77   13.50
 -10   1   1  322.27   13.80
 -10   1   1  308.97   13.00
   9  -1  -1   45.30    2.70
  -9   1   1   49.80    3.10
  -9   1   1   45.70    2.30
   8  -1  -1   16.60    1.50
  -8   1   1   19.70    1.20
  -8   1   1   17.50    1.70
   7  -1  -1    2.00    0.90
   6  -1  -1  565.74   23.90
   6  -1  -1  530.05   23.90
  -6   1   1  606.54   23.40
   5  -1  -1   15.80    1.30
   5  -1  -1   12.70    1.20
  -5   1   1   14.80    0.90
  -5   1   1   21.80    1.60
   4  -1  -1  562.54   23.70
   4  -1  -1  564.04   24.00
   4  -1  -1  592.64   24.00
   4  -1  -1  561.84   24.30
  -4   1   1  555.44   24.10
  -4   1   1  639.24   23.80
  -4   1   1  583.14   24.20
   3  -1  -1 1508.65   63.49
   3  -1  -1 1600.44   63.49
   3  -1  -1 1607.44   63.79
  -3   1   1 1615.34   63.59
  -3   1   1 1452.85   63.49
   2  -1  -1 1764.82   71.59
   2  -1  -1 1678.63   70.59
   2  -1  -1 1686.43   70.69
   2  -1  -1 1683.13   70.59
  -2   1   1 1864.01   71.09
  -2   1   1 1705.93   70.99
  -2   1   1 1754.12   70.99
   1  -1  -1    1.40    0.20
   1  -1  -1    1.50    0.20
   1  -1  -1    1.30    0.20
   1  -1  -1    1.30    0.20
  -1   1   1    1.00    0.20
  -1   1   1    1.80    0.30
  -1   1   1    1.40    0.20
   0  -1  -1 1641.24   69.19
   0  -1  -1 1732.73   69.29
   0  -1  -1 1770.62   69.39
   0  -1  -1 1646.64   69.09
   0   1   1 1709.43   69.09
   0   1   1 1559.24   68.79
   0   1   1 1769.42   69.39
  -1  -1  -1  513.65   21.30
  -1  -1  -1  476.05   21.30
  -1  -1  -1  556.94   21.30
   1   1   1  536.15   21.30
   1   1   1  512.55   21.30
  -2  -1  -1    3.10    0.50
  -2  -1  -1    4.00    0.60
   2   1   1    3.10    0.50
   2   1   1    2.80    0.50
  -3  -1  -1  424.36   18.90
  -3  -1  -1  429.46   18.80
   3   1   1  482.55   18.80
   3   1   1  456.75   18.90
   3   1   1  459.15   18.50
  -4  -1  -1   11.20    1.10
  -4  -1  -1   10.40    1.20
   4   1   1    9.40    0.80
   4   1   1   12.20    1.10
  -5  -1  -1  191.28    8.70
  -5  -1  -1  190.68    8.40
  -5  -1  -1  189.38    7.90
   5   1   1  176.48    8.40
  -6  -1  -1  264.67   11.00
   6   1   1  260.27   11.80
  -7  -1  -1    2.00    0.60
  -7  -1  -1    1.70    0.80
  -8  -1  -1   76.99    3.40
  -8  -1  -1   68.49    4.00
   8   1   1   76.89    3.80
  -9  -1  -1   47.60    3.10
  -9  -1  -1   49.99    2.40
   9   1   1   47.60    2.90
 -10  -1  -1  354.06   14.30
 -10  -1  -1  328.57   15.00
  10   1   1  356.56   14.80
 -11  -1  -1    1.00    0.70
  11   1   1   -0.20    0.60
  12   1   1   31.60    1.70
  12  -2  -1    5.20    0.80
 -12   2   1    4.90    1.00
  11  -2  -1  203.68    9.20
 -11   2   1  217.28    9.60
  10  -2  -1    8.30    1.10
 -10   2   1    9.30    0.80
 -10   2   1   10.10    1.50
   9  -2  -1  240.88   10.50
  -9   2   1  241.18   10.10
  -9   2   1  237.88   10.80
  -8   2   1  114.89    5.60
   7  -2  -1   16.60    1.70
   6  -2  -1    0.30    0.50
   6  -2  -1    0.50    0.50
  -6   2   1    0.60    0.30
   5  -2  -1    7.00    0.90
   5  -2  -1    8.00    1.00
  -5   2   1    7.20    1.00
  -5   2   1    7.50    0.60
  -5   2   1    6.80    0.70
   4  -2  -1  176.68    8.70
   4  -2  -1  196.78    8.20
   4  -2  -1  210.58    8.70
   4  -2  -1  195.38    8.50
  -4   2   1  197.78    8.40
  -4   2   1  196.78    8.70
  -4   2   1  213.68    8.70
   3  -2  -1    6.70    0.90
   3  -2  -1    8.70    0.70
   3  -2  -1    8.70    0.80
  -3   2   1    8.00    0.60
  -3   2   1    6.20    0.80
  -3   2   1    5.00    0.80
   2  -2  -1   74.19    3.50
   2  -2  -1   74.29    3.50
   2  -2  -1   78.09    3.40
  -2   2   1   80.39    3.50
  -2   2   1   79.39    3.40
  -2   2   1   78.49    3.50
   1  -2  -1  399.06   17.00
   1  -2  -1  408.36   17.00
   1  -2  -1  413.46   16.80
  -1   2   1  435.46   17.00
  -1   2   1  403.76   17.00
  -1   2   1  407.86   16.90
   0  -2  -1    0.00    0.20
   0  -2  -1    0.20    0.20
   0   2   1    1.40    0.20
   0   2   1    0.30    0.20
   0   2   1    0.40    0.30
   0   2   1    0.10    0.20
  -1  -2  -1    4.20    0.60
  -1  -2  -1    5.70    0.70
   1   2   1    6.10    0.70
   1   2   1    5.30    0.40
   1   2   1    5.30    0.60
   1   2   1    5.20    0.60
  -2  -2  -1   12.20    1.10
  -2  -2  -1   11.40    1.00
   2   2   1   12.00    0.60
   2   2   1   11.30    1.00
   2   2   1   12.20    0.90
  -3  -2  -1 1950.80   76.69
  -3  -2  -1 1916.91   76.89
   3   2   1 1734.03   76.59
   3   2   1 1904.81   76.39
  -4  -2  -1  458.35   19.30
  -4  -2  -1  426.16   18.50
  -4  -2  -1  463.45   19.10
   4   2   1  456.25   19.10
   4   2   1  450.85   18.70
  -5  -2  -1    7.70    1.10
  -5  -2  -1    7.40    0.70
  -5  -2  -1    7.40    1.30
   5   2   1    8.70    0.90
   5   2   1    9.10    1.30
  -6  -2  -1    9.90    0.90
   6   2   1   10.80    1.50
  -7  -2  -1   44.60    2.20
  -7  -2  -1   42.90    2.70
   7   2   1   39.50    2.50
  -8  -2  -1    1.00    0.50
  -8  -2  -1    2.00    0.90
   8   2   1    1.10    0.80
  -9  -2  -1   36.70    1.90
  -9  -2  -1   36.40    2.60
   9   2   1   34.80    2.40
 -10  -2  -1   20.20    1.80
  10   2   1   22.10    1.80
  11   2   1   22.70    1.60
  12  -3  -1  150.58    6.90
 -12   3   1  163.48    7.20
  11  -3  -1    6.90    1.00
 -11   3   1    6.40    1.30
 -11   3   1    5.10    0.70
  10  -3  -1    5.40    1.00
 -10   3   1    5.30    1.30
 -10   3   1    5.70    0.70
   9  -3  -1   20.20    1.60
  -9   3   1   22.30    2.10
  -9   3   1   22.10    1.40
  -8   3   1  530.15   22.40
   7  -3  -1   40.00    2.60
   7  -3  -1   40.90    2.70
   6  -3  -1   86.59    4.30
   6  -3  -1   88.49    4.50
  -6   3   1   88.19    5.30
  -6   3   1   84.99    3.80
   5  -3  -1  648.74   24.70
   5  -3  -1  601.24   24.40
  -5   3   1  511.05   24.20
  -5   3   1  588.54   24.70
   4  -3  -1  278.37   12.20
   4  -3  -1  299.97   12.50
   4  -3  -1  266.97   12.50
  -4   3   1  307.27   12.20
  -4   3   1  302.67   12.60
   3  -3  -1   18.30    1.30
   3  -3  -1   17.40    1.30
   3  -3  -1   16.90    1.00
  -3   3   1   16.40    1.10
  -3   3   1   18.90    1.20
   2  -3  -1 4912.11  200.28
   2  -3  -1 4461.85  200.88
   2  -3  -1 5014.10  201.78
  -2   3   1 5149.98  201.68
  -2   3   1 4936.41  200.68
  -2   3   1 5013.80  201.68
   1  -3  -1  504.35   21.80
   1  -3  -1  514.25   22.00
   1  -3  -1  581.34   22.00
  -1   3   1  567.74   22.00
  -1   3   1  509.15   21.80
  -1   3   1  515.65   22.00
   0  -3  -1   85.79    4.10
   0  -3  -1   94.19    4.20
   0   3   1   87.89    4.10
   0   3   1   89.19    3.90
   0   3   1   93.49    3.90
   0   3   1   89.89    4.10
  -1  -3  -1  384.66   15.40
  -1  -3  -1  361.16   15.20
   1   3   1  369.56   15.10
   1   3   1  364.66   15.30
   1   3   1  352.96   15.00
   1   3   1  348.27   15.30
  -2  -3  -1 2659.63  101.99
  -2  -3  -1 2517.05  102.19
   2   3   1 2366.66  102.39
   2   3   1 2334.27  101.99
   2   3   1 2522.75  101.59
   2   3   1 2604.04  101.59
   2   3   1 2463.85  102.09
  -3  -3  -1    5.80    0.90
  -3  -3  -1    5.60    1.00
  -3  -3  -1    5.30    0.60
   3   3   1    4.20    0.70
   3   3   1    6.40    1.10
   3   3   1    7.80    0.80
  -4  -3  -1  266.97   11.80
  -4  -3  -1  261.67   11.30
  -4  -3  -1  267.87   12.10
   4   3   1  277.57   11.60
   4   3   1  280.87   11.90
  -5  -3  -1   61.69    2.90
   5   3   1   61.49    3.60
   5   3   1   60.39    3.20
  -7  -3  -1    6.60    0.70
  -7  -3  -1    5.20    1.50
   7   3   1    5.50    1.00
  -8  -3  -1  242.88   11.40
  -8  -3  -1  248.68   10.30
   8   3   1  243.18   10.70
  -9  -3  -1    6.30    0.60
   9   3   1    5.50    1.00
  10   3   1    3.20    0.80
  11   3   1   24.80    1.50
 -12   4   1   19.20    1.80
 -11   4   1    3.50    1.10
 -11   4   1    4.70    0.60
 -10   4   1   50.69    2.50
 -10   4   1   51.29    3.30
  -9   4   1   16.40    1.20
  -9   4   1   18.60    1.90
   8  -4  -1    3.00    1.10
  -8   4   1    4.10    1.00
   7  -4  -1  263.37   12.00
   6  -4  -1   15.10    1.40
   6  -4  -1   13.60    1.50
  -6   4   1   13.00    1.00
  -6   4   1   16.20    1.20
   5  -4  -1  550.94   23.60
   5  -4  -1  562.04   24.00
  -5   4   1  551.34   23.30
  -5   4   1  621.24   23.60
  -5   4   1  560.44   24.10
   4  -4  -1   11.50    0.90
   4  -4  -1   12.30    1.20
  -4   4   1   13.70    1.00
  -4   4   1   13.90    1.30
   3  -4  -1 1776.32   71.59
   3  -4  -1 1689.23   71.19
   3  -4  -1 1778.52   71.69
  -3   4   1 1744.53   71.49
  -3   4   1 1795.22   71.29
  -3   4   1 1713.73   71.59
   2  -4  -1  299.97   12.20
   2  -4  -1  296.47   12.70
   2  -4  -1  298.47   12.60
  -2   4   1  314.57   12.70
  -2   4   1  286.47   12.50
  -2   4   1  276.97   12.30
   1  -4  -1  387.06   16.50
   1  -4  -1  388.16   16.40
  -1   4   1  388.36   16.50
  -1   4   1  389.66   16.20
  -1   4   1  383.56   16.10
  -1   4   1  409.46   16.50
   0  -4  -1 1501.45   61.29
   0  -4  -1 1567.04   61.19
   0   4   1 1534.95   61.29
   0   4   1 1459.65   60.89
   0   4   1 1369.16   61.19
   0   4   1 1534.75   60.89
  -1  -4  -1    9.90    1.10
  -1  -4  -1   10.10    1.00
   1   4   1    8.00    0.70
   1   4   1    8.60    1.00
   1   4   1    8.80    0.90
  -2  -4  -1   49.70    2.90
  -2  -4  -1   48.00    2.60
   2   4   1   44.30    2.30
   2   4   1   47.20    2.60
   2   4   1   46.30    2.80
   2   4   1   52.49    2.50
  -3  -4  -1   66.39    3.60
  -3  -4  -1   64.19    3.10
  -3  -4  -1   66.29    4.00
   3   4   1   67.99    3.40
   3   4   1   68.89    3.90
   3   4   1   70.49    3.60
   4   4   1   65.89    3.50
   4   4   1   70.79    3.80
   5   4   1    3.40    0.80
  -6  -4  -1   11.30    1.00
  -6  -4  -1    9.20    1.30
  -6  -4  -1   21.90    1.90
  -7  -4  -1   77.29    4.80
  -7  -4  -1   76.09    3.50
   7   4   1   78.79    4.00
  -8  -4  -1   39.60    3.20
  -8  -4  -1   42.50    2.00
   8   4   1   40.10    2.50
   9   4   1   32.50    2.10
  10   4   1   11.90    1.10
 -12   5   1   29.70    2.20
 -11   5   1    3.30    0.50
 -11   5   1    4.10    1.10
 -10   5   1  405.76   17.50
 -10   5   1  403.06   16.70
  -9   5   1   15.20    1.20
  -9   5   1   14.70    1.80
   8  -5  -1   67.29    4.20
  -8   5   1   67.69    3.20
  -8   5   1   71.99    3.80
   7  -5  -1   14.80    1.80
   6  -5  -1  356.26   13.80
  -6   5   1  286.97   12.80
  -6   5   1  282.97   13.10
   5  -5  -1   24.50    1.90
  -5   5   1   23.60    1.60
  -5   5   1   23.30    1.90
   4  -5  -1  214.78    9.20
  -4   5   1  197.38    9.10
  -4   5   1  214.48    8.80
  -4   5   1  187.48    8.50
   3  -5  -1  214.08    9.30
  -3   5   1  201.28    9.30
  -3   5   1  211.88    9.00
   2  -5  -1   11.90    1.30
   2  -5  -1   13.50    1.20
  -2   5   1   12.90    1.70
  -2   5   1   14.60    1.10
  -2   5   1   12.80    1.30
   1  -5  -1   58.09    3.20
   1  -5  -1   60.29    3.10
  -1   5   1   55.89    2.70
  -1   5   1   58.99    3.20
  -1   5   1   60.39    2.90
  -1   5   1   59.99    3.10
   0  -5  -1  816.42   33.30
   0  -5  -1  823.42   33.50
   0   5   1  715.03   32.90
   0   5   1  807.82   33.40
   0   5   1  852.41   33.00
  -1  -5  -1   49.30    2.80
  -1  -5  -1   46.10    3.50
   1   5   1   50.49    3.20
   1   5   1   48.90    2.60
   1   5   1   48.90    2.40
   1   5   1   51.59    2.60
  -2  -5  -1   67.89    3.60
   2   5   1   67.99    3.40
   2   5   1   67.09    3.50
   3   5   1  193.08    9.00
   3   5   1  202.98    8.80
   4   5   1  268.97   12.50
   4   5   1  294.27   12.80
  -5  -5  -1  264.17   11.60
  -5  -5  -1  267.67   12.30
  -5  -5  -1  268.57   11.10
  -6  -5  -1   53.79    2.40
  -6  -5  -1   44.60    3.60
   6   5   1   50.79    2.80
  -7  -5  -1   41.70    2.00
  -7  -5  -1   41.40    3.40
   7   5   1   44.80    2.60
  -8  -5  -1   13.30    2.00
   8   5   1   15.00    1.50
   9   5   1    2.10    0.60
 -12   6   1    9.00    1.30
 -11   6   1   30.90    1.50
 -11   6   1   28.10    2.30
 -10   6   1    3.70    0.60
 -10   6   1    3.60    1.10
  -9   6   1   21.20    1.90
  -9   6   1   20.70    1.40
   8  -6  -1    1.20    1.00
  -8   6   1    0.90    0.70
  -8   6   1    0.40    0.50
  -8   6   1    0.60    0.70
   7  -6  -1  190.78    9.30
   6  -6  -1    2.40    1.00
  -6   6   1    1.70    0.70
   5  -6  -1  749.62   33.40
  -5   6   1  854.51   33.10
  -5   6   1  782.72   32.60
   4  -6  -1    0.90    0.70
  -4   6   1    2.00    0.60
  -4   6   1    0.90    0.30
   3  -6  -1  304.27   13.20
  -3   6   1  297.07   12.70
   2  -6  -1  201.68    9.00
  -2   6   1  190.98    8.60
   1  -6  -1   32.40    2.20
  -1   6   1   33.80    2.00
   0  -6  -1   39.50    2.40
   0   6   1   36.70    2.10
   0   6   1   34.90    2.20
  -1  -6  -1   26.50    2.10
   1   6   1   27.60    1.80
   1   6   1   24.80    1.60
  -2  -6  -1   56.09    3.30
   2   6   1   55.99    3.10
   3   6   1   65.89    3.30
  -4  -6  -1    3.90    1.20
  -4  -6  -1    2.60    0.50
   4   6   1    2.20    0.70
  -5  -6  -1   41.20    2.00
  -5  -6  -1   42.10    3.30
   5   6   1   39.70    2.40
  -6  -6  -1   10.00    0.80
  -6  -6  -1    9.50    1.80
   6   6   1   10.00    1.20
  -7  -6  -1    7.60    1.50
   7   6   1    9.10    1.10
  -8  -6  -1    3.70    1.10
   8   6   1    4.40    0.80
   9   6   1    3.30    0.60
 -12   7   1  312.27   13.40
 -11   7   1   10.00    1.40
 -10   7   1   30.00    1.60
 -10   7   1   30.50    2.40
  -9   7   1   27.10    2.20
  -9   7   1   27.60    1.60
  -9   7   1   28.50    2.10
  -8   7   1   18.50    2.20
  -8   7   1   15.40    1.20
  -8   7   1   16.50    1.70
   7  -7  -1   10.40    1.70
  -7   7   1   12.80    1.40
  -7   7   1   10.90    1.50
   6  -7  -1  488.75   21.00
  -6   7   1  469.15   20.40
   5  -7  -1    0.70    0.80
  -5   7   1    0.50    0.60
   4  -7  -1    5.20    1.20
  -4   7   1    6.40    1.00
   3  -7  -1   23.90    2.10
  -3   7   1   26.60    1.80
   2  -7  -1   17.70    1.80
  -2   7   1   18.60    1.50
  -2   7   1   17.40    1.40
   1  -7  -1   21.40    1.90
  -1   7   1   20.70    1.60
  -1   7   1   18.80    1.50
   0  -7  -1   20.90    1.90
   0   7   1   19.00    1.60
   0   7   1   18.80    1.50
  -1  -7  -1   35.20    2.50
   1   7   1   35.50    2.30
   2   7   1    5.20    0.90
  -3  -7  -1  189.98    9.70
  -3  -7  -1  208.68    8.50
   3   7   1  205.08    8.90
  -4  -7  -1   51.19    2.40
  -4  -7  -1   50.29    3.70
   4   7   1   52.49    2.90
  -5  -7  -1   66.79    4.50
   5   7   1   69.89    3.60
  -6  -7  -1    6.70    1.50
  -7  -7  -1   38.70    2.90
  -8  -7  -1    2.20    0.80
  -9   8   1    2.40    0.90
  -9   8   1    3.80    0.60
  -8   8   1   95.29    4.70
  -8   8   1   90.69    4.10
  -7   8   1   11.00    1.40
  -7   8   1   10.60    1.50
  -7   8   1    9.70    0.90
   6  -8  -1    0.90    1.00
  -6   8   1    1.60    0.80
  -6   8   1    0.90    0.80
   5  -8  -1  160.78    8.10
  -5   8   1  159.18    7.50
   4  -8  -1  197.08    9.50
  -4   8   1  196.38    9.00
   3  -8  -1   59.69    3.80
  -3   8   1   65.89    3.50
   2  -8  -1    6.20    1.30
  -2   8   1    5.80    1.00
  -2   8   1    6.50    1.10
   1  -8  -1  165.78    7.90
  -1   8   1  156.28    7.40
  -1   8   1  164.98    7.50
  -1   8   1  161.28    7.30
   0  -8  -1  296.17   13.30
   0   8   1  289.57   12.50
   0   8   1  293.67   12.70
  -1  -8  -1   25.90    2.40
   1   8   1   24.10    1.70
  -2  -8  -1  181.08    7.60
  -2  -8  -1  180.98    9.10
   2   8   1  186.58    8.20
  -3  -8  -1  222.48   10.80
   3   8   1  224.18    9.80
  -4  -8  -1   74.69    4.80
   4   8   1   69.69    3.80
  -5  -8  -1   94.19    5.50
   5   8   1   93.19    4.50
  -6  -8  -1    2.10    1.10
  -7  -8  -1   23.50    2.00
 -10   9   1    2.80    0.90
  -9   9   1   46.80    3.00
  -8   9   1   11.90    1.60
  -7   9   1  118.39    5.80
  -6   9   1    4.60    1.10
   5  -9  -1  117.49    6.50
  -5   9   1  114.09    5.90
   4  -9  -1  159.18    8.20
  -4   9   1  185.68    8.60
  -4   9   1  158.28    7.40
  -4   9   1  148.69    7.60
   3  -9  -1   69.89    6.30
   3  -9  -1   93.49    5.30
  -3   9   1   92.29    4.50
  -3   9   1   91.39    4.70
   2  -9  -1  202.58   10.00
   2  -9  -1  201.38    9.90
  -2   9   1  215.98    9.40
  -2   9   1  199.78    8.90
   1  -9  -1    7.70    1.50
   1  -9  -1   10.20    1.70
  -1   9   1    8.70    1.30
  -1   9   1    7.30    1.00
   0  -9  -1    6.90    1.50
   0   9   1    8.20    1.10
  -1  -9  -1    2.90    1.30
   1   9   1    2.50    0.90
  -2  -9  -1  115.39    6.50
   2   9   1  118.49    5.60
  -3  -9  -1   45.70    3.70
   3   9   1   47.90    2.80
  -4  -9  -1   25.50    2.80
   4   9   1   23.90    1.90
  -5  -9  -1   19.70    2.30
   5   9   1   18.00    1.50
  -6  -9  -1   63.39    3.70
 -10  10   1   72.79    3.90
  -9  10   1  106.99    5.40
  -8  10   1   17.30    2.00
  -7  10   1    5.20    1.20
  -6  10   1  167.28    7.90
  -5  10   1   53.19    3.20
   4 -10  -1   -1.40    2.30
  -4  10   1   -0.20    0.80
   3 -10  -1  409.26   17.80
  -3  10   1  377.46   16.70
   2 -10  -1    4.70    1.50
  -2  10   1    5.20    1.00
   1 -10  -1   31.80    3.00
  -1  10   1   33.50    2.20
   0 -10  -1    0.30    1.10
   0  10   1    0.70    0.80
  -1 -10  -1    5.10    1.60
   1  10   1    5.50    1.10
  -2 -10  -1    9.00    1.80
   2  10   1   10.30    1.30
  -3 -10  -1  163.08    8.30
   3  10   1  164.88    7.40
  -4 -10  -1   34.10    2.80
   4  10   1   34.20    2.10
  -5 -10  -1    6.60    1.20
   5  10   1    6.20    0.80
 -11  11   1   49.99    2.60
 -10  11   1  272.07   11.70
  -9  11   1    5.00    1.10
  -8  11   1   39.20    2.80
  -7  11   1    2.90    1.10
  -6  11   1   46.60    3.10
  -5  11   1   70.49    3.90
   4 -11  -1   11.50    2.10
  -4  11   1   14.10    1.50
   3 -11  -1   12.30    2.00
  -3  11   1   13.70    1.50
   2 -11  -1  323.37   15.00
  -2  11   1  327.77   14.00
   1 -11  -1   70.59    4.70
  -1  11   1   73.69    3.80
   0 -11  -1  274.17   12.70
   0  11   1  263.17   11.70
  -1 -11  -1   26.80    2.80
   1  11   1   29.30    2.10
  -2 -11  -1   78.79    4.70
   2  11   1   76.99    3.90
  -3 -11  -1    0.90    1.00
   3  11   1    1.70    0.70
  -4 -11  -1    5.30    1.10
   4  11   1    6.10    0.80
 -10  12   1    4.50    0.80
  -9  12   1   71.49    3.70
  -8  12   1   11.50    1.40
  -7  12   1  172.78    7.90
  -6  12   1    1.40    0.90
  -5  12   1  149.79    7.00
   4 -12  -1   19.10    2.50
  -4  12   1   23.60    1.90
   3 -12  -1    7.20    1.60
   2 -12  -1   16.60    2.40
  -2  12   1   16.30    1.50
   1 -12  -1  424.86   18.90
  -1  12   1  427.76   18.00
   0 -12  -1   12.80    1.80
   0  12   1   11.50    1.30
  -1 -12  -1   47.60    3.30
   1  12   1   47.30    2.70
  -2 -12  -1    5.30    1.20
   2  12   1    6.50    0.90
  -3 -12  -1   12.40    1.40
  -9  13   1    2.10    0.60
  -8  13   1   39.40    2.30
  -7  13   1   15.90    1.50
  -6  13   1  140.09    6.50
  -5  13   1   11.40    1.30
   4 -13  -1   13.50    1.90
   3 -13  -1  112.59    5.90
   2 -13  -1  237.18   10.80
  -2  13   1  230.18   10.00
   1 -13  -1   16.30    2.00
  -1  13   1   15.80    1.40
   0 -13  -1  247.48   11.10
   0  13   1  247.48   10.60
  -1 -13  -1    2.70    0.90
  -7  14   1  135.49    6.00
  -6  14   1   47.10    2.50
   3 -14  -1   13.20    1.50
   2 -14  -1    2.40    0.90
   2 -14   2   97.59    4.90
   3 -14   2   38.70    2.60
   4 -14   2   37.00    2.60
  -5  14  -2   12.60    1.10
   5 -14   2   12.20    1.50
  -7  14  -2   54.89    2.80
  -1 -13   2    0.80    0.70
   0  13  -2   52.29    2.70
   0 -13   2   53.79    3.30
  -1  13  -2  143.49    6.40
   1 -13   2  146.79    7.20
   2 -13   2   17.80    2.20
   3 -13   2    6.80    1.50
  -4  13  -2  134.79    6.00
   4 -13   2  119.69    6.60
  -5  13  -2   79.09    3.90
   5 -13   2   71.39    4.50
  -6  13  -2    0.70    0.70
   6 -13   2   -1.00    1.10
  -7  13  -2  160.78    7.30
  -8  13  -2   12.20    1.30
  -9  13  -2    5.90    0.80
  -3 -12   2   34.30    2.60
   2  12  -2   20.80    1.50
  -2 -12   2   19.60    2.00
   1  12  -2   15.50    1.40
  -1 -12   2   13.20    2.00
   0  12  -2   31.50    2.10
   0 -12   2   34.90    3.00
  -1  12  -2    2.30    0.80
   1 -12   2    1.00    1.20
   2 -12   2    1.40    1.40
  -3  12  -2    6.30    1.10
   3 -12   2    2.20    1.60
  -4  12  -2   11.40    1.40
   4 -12   2    8.70    2.20
  -5  12  -2    6.60    1.30
   5 -12   2    9.50    2.50
  -6  12  -2  391.16   16.40
   6 -12   2  368.06   17.70
  -7  12  -2   14.60    1.60
   7 -12   2   14.40    3.00
  -8  12  -2    4.60    1.00
  -9  12  -2    2.30    0.80
 -10  12  -2   95.69    4.50
   4  11  -2   14.10    1.20
  -4 -11   2   13.40    1.50
   3  11  -2   10.40    1.10
  -3 -11   2   10.30    1.50
   2  11  -2    1.90    0.80
  -2 -11   2    2.90    1.20
   1  11  -2   57.09    3.20
  -1 -11   2   56.89    4.10
   0  11  -2   39.90    2.50
   0 -11   2   38.40    3.40
  -1  11  -2   59.99    3.20
   1 -11   2   52.09    4.10
  -2  11  -2  198.38    9.10
   2 -11   2  215.08   10.40
  -3  11  -2  122.39    6.20
   3 -11   2  139.59    7.80
  -4  11  -2   34.70    2.50
   4 -11   2   38.40    5.30
  -5  11  -2   27.30    2.20
  -5  11  -2   25.30    3.10
  -6  11  -2  297.87   14.30
  -6  11  -2  309.17   13.30
  -7  11  -2   75.59    5.10
  -7  11  -2   88.59    4.40
  -8  11  -2    0.90    0.90
  -9  11  -2  165.98    7.60
 -10  11  -2    0.60    0.70
   5  10  -2   13.30    1.10
  -5 -10   2   13.80    1.60
   4  10  -2    4.00    0.80
  -4 -10   2    1.40    1.00
   3  10  -2   30.50    2.20
  -3 -10   2   30.90    2.90
   2  10  -2  265.87   11.40
  -2 -10   2  253.27   12.20
   1  10  -2   59.09    3.30
  -1 -10   2   57.09    4.20
   0  10  -2   15.00    1.50
   0 -10   2   15.00    2.20
  -1  10  -2    0.80    0.70
   1 -10   2    0.80    1.30
  -2  10  -2   20.50    1.70
  -2  10  -2   22.00    1.90
   2 -10   2   25.10    3.60
  -3  10  -2  118.19    5.30
   3 -10   2   88.99    7.10
  -4  10  -2  402.76   17.90
  -4  10  -2  378.66   16.70
  -5  10  -2   22.70    2.90
  -5  10  -2   22.00    2.00
  -6  10  -2  243.28   10.20
  -6  10  -2  206.08   11.10
  -7  10  -2   20.00    2.00
  -7  10  -2   21.20    2.70
  -8  10  -2  639.34   26.90
  -9  10  -2   34.10    2.40
 -10  10  -2  212.38    9.40
   6   9  -2    1.00    0.50
  -6  -9   2    1.10    0.70
   5   9  -2  129.19    5.80
  -5  -9   2  121.39    6.40
   4   9  -2    7.00    1.10
  -4  -9   2    7.00    1.60
   3   9  -2  101.59    4.90
  -3  -9   2   95.89    5.80
   2   9  -2   27.40    2.20
  -2  -9   2   28.20    2.90
   1   9  -2    6.40    1.10
  -1  -9   2    5.90    1.50
   0   9  -2    4.40    0.90
   0   9  -2    5.10    1.40
   0  -9   2    8.10    1.60
  -1   9  -2  293.77   12.80
  -1   9  -2  280.37   12.40
   1  -9   2  290.47   13.70
  -2   9  -2    1.10    0.70
  -2   9  -2    1.00    0.80
  -2   9  -2    0.50    0.60
  -2   9  -2   -0.40    1.10
  -3   9  -2  154.88    7.30
  -3   9  -2  156.68    8.00
  -3   9  -2  148.39    7.00
   3  -9   2  150.08    7.70
  -4   9  -2   16.20    1.60
  -4   9  -2   17.20    1.80
  -4   9  -2   16.70    2.50
   4  -9   2   19.90    2.20
  -5   9  -2    9.50    1.90
  -5   9  -2    5.60    1.10
  -5   9  -2    5.50    1.20
   5  -9   2    5.10    1.50
  -6   9  -2    2.60    0.60
  -6   9  -2    2.10    0.90
  -7   9  -2   73.49    4.00
  -7   9  -2   72.29    3.40
  -8   9  -2    6.10    1.20
  -8   9  -2    5.40    1.30
  -8   9  -2    4.70    0.70
  -9   9  -2  574.74   22.50
  -9   9  -2  518.75   23.10
  -9   9  -2  543.75   23.20
 -10   9  -2    0.80    0.50
 -10   9  -2    0.80    0.90
 -11   9  -2   82.29    4.20
   6   8  -2    1.70    0.70
  -6  -8   2    1.50    0.90
   5   8  -2   34.80    2.30
  -5  -8   2   32.30    2.90
   4   8  -2    4.70    1.00
  -4  -8   2    2.80    1.30
   3   8  -2    3.30    1.00
  -3  -8   2    3.40    1.30
   2   8  -2   68.89    3.70
  -2  -8   2   74.89    4.60
   1   8  -2  246.98   10.90
  -1  -8   2  254.47   11.70
   0   8  -2   51.89    3.10
   0   8  -2   53.59    2.80
  -1   8  -2   18.40    1.50
  -1   8  -2   20.30    1.70
  -1   8  -2   17.30    1.60
  -2   8  -2  648.04   27.30
  -2   8  -2  655.23   26.80
   2  -8   2  648.14   27.60
  -3   8  -2   42.60    2.20
  -3   8  -2   41.40    2.70
   3  -8   2   41.90    3.00
  -4   8  -2    4.20    1.00
  -4   8  -2    6.40    0.80
   4  -8   2    3.30    1.10
  -5   8  -2   44.80    2.30
  -5   8  -2   50.79    2.90
   5  -8   2   39.60    3.20
  -6   8  -2   33.30    2.70
  -6   8  -2   38.60    2.00
  -6   8  -2   29.80    2.40
  -6   8  -2   36.30    2.40
   6  -8   2   30.10    2.80
  -7   8  -2    2.00    0.60
  -7   8  -2    1.40    0.80
  -7   8  -2    2.50    1.00
  -7   8  -2    2.40    0.60
  -8   8  -2   67.09    3.80
  -8   8  -2   67.39    3.20
  -8   8  -2   65.79    3.80
  -9   8  -2    0.60    0.60
  -9   8  -2    2.40    1.00
 -10   8  -2  136.19    5.80
 -10   8  -2  131.39    6.60
 -11   8  -2   88.19    3.90
 -11   8  -2   89.09    4.60
 -12   8  -2  201.78    8.90
   6   7  -2   33.90    2.20
  -6  -7   2   34.20    2.90
   5   7  -2   67.59    3.50
  -5  -7   2   64.99    4.40
   4   7  -2  271.47   11.80
  -4  -7   2  271.27   12.60
   3   7  -2  194.88    8.60
  -3  -7   2  194.78    9.40
   2   7  -2  214.78    9.40
   1   7  -2  101.39    5.00
   1   7  -2   95.59    4.90
   1   7  -2  109.69    5.50
   0   7  -2   56.99    3.10
   0   7  -2   53.89    3.10
  -1   7  -2  158.68    7.00
  -1   7  -2  147.89    6.60
  -1   7  -2  156.08    7.00
   1  -7   2  152.68    7.20
  -2   7  -2    9.40    1.20
  -2   7  -2    8.70    1.40
  -2   7  -2    8.90    0.80
  -2   7  -2    8.80    1.00
   2  -7   2    8.20    1.30
  -3   7  -2   10.90    1.50
  -3   7  -2   11.20    0.90
  -3   7  -2   11.80    1.30
   3  -7   2   13.40    1.50
  -4   7  -2   13.40    1.40
  -4   7  -2   10.80    0.90
  -4   7  -2   10.50    1.50
   4  -7   2   10.90    1.50
  -5   7  -2  240.88    9.80
  -5   7  -2  239.48   10.30
  -5   7  -2  225.38   10.80
   5  -7   2  218.58   10.70
  -6   7  -2   19.30    1.80
  -6   7  -2   18.00    1.30
  -6   7  -2   18.30    2.20
   6  -7   2   20.60    2.20
  -7   7  -2   10.50    1.30
  -7   7  -2    7.60    0.90
  -7   7  -2    9.00    1.30
   7  -7   2    8.70    1.70
  -8   7  -2   33.40    2.50
  -8   7  -2   35.60    2.10
  -8   7  -2   36.20    2.50
  -8   7  -2   33.20    1.90
  -9   7  -2  301.77   13.10
  -9   7  -2  287.77   12.30
 -10   7  -2   29.50    2.50
 -10   7  -2   26.20    1.70
 -11   7  -2  116.99    5.70
 -11   7  -2  111.69    5.00
 -12   7  -2   42.60    2.60
 -12   7  -2   39.10    1.90
   6   6  -2   68.09    3.70
  -6  -6   2   76.19    4.40
   5   6  -2  189.08    8.70
  -5  -6   2  203.08    9.40
   4   6  -2  251.77   11.70
  -4  -6   2  292.57   12.50
   3   6  -2   17.50    1.40
   2   6  -2   88.39    4.40
   1   6  -2  121.09    5.60
   1   6  -2  122.39    5.50
   1   6  -2  108.79    5.30
   0   6  -2  496.65   20.20
   0   6  -2  482.25   19.90
   0   6  -2  476.45   20.20
   0   6  -2  479.75   20.70
   0  -6   2  474.15   20.30
  -1   6  -2   87.49    3.90
  -1   6  -2   88.69    4.60
  -1   6  -2   90.09    4.20
  -1   6  -2   87.89    4.20
   1  -6   2   87.99    4.40
  -2   6  -2   30.50    1.90
  -2   6  -2   31.30    1.80
  -2   6  -2   33.00    2.30
   2  -6   2   32.80    2.10
  -3   6  -2    5.00    0.80
  -3   6  -2    5.60    0.60
  -3   6  -2    5.10    1.00
   3  -6   2    4.80    1.00
  -4   6  -2  239.18    9.90
  -4   6  -2  216.28    9.40
  -4   6  -2  212.78   10.10
   4  -6   2  230.98   10.20
  -5   6  -2   27.90    1.60
  -5   6  -2   29.00    2.30
  -5   6  -2   35.20    2.10
   5  -6   2   33.70    2.50
  -6   6  -2  512.75   22.90
  -6   6  -2  542.05   21.90
  -6   6  -2  518.55   22.30
   6  -6   2  548.45   23.00
  -7   6  -2   10.10    1.00
  -7   6  -2    9.00    1.60
  -7   6  -2    9.00    1.30
   7  -6   2    8.40    1.50
  -8   6  -2   75.09    3.60
  -8   6  -2   76.49    4.10
  -8   6  -2   71.59    3.40
   8  -6   2   76.19    4.80
  -9   6  -2  164.58    7.10
  -9   6  -2  163.58    7.40
  -9   6  -2  171.08    7.90
 -10   6  -2  326.47   13.60
 -10   6  -2  327.07   14.40
 -11   6  -2  237.88   10.00
 -11   6  -2  238.38   10.80
 -12   6  -2    2.10    0.90
 -12   6  -2    3.00    0.50
   9   5  -2   50.99    2.60
   8   5  -2   -0.10    0.60
   7   5  -2  258.97   11.40
  -7  -5   2  269.47   11.80
   6   5  -2   12.30    1.30
  -6  -5   2   12.70    1.60
   5   5  -2  398.46   17.40
  -5  -5   2  430.86   18.10
  -5  -5   2  411.36   17.60
   4   5  -2    0.90    0.60
   4   5  -2    0.50    0.70
   3   5  -2  160.68    7.60
   3   5  -2  165.58    7.40
   2   5  -2  215.88    9.60
   2   5  -2  217.08    9.60
   2   5  -2  224.08    9.50
   1   5  -2  126.19    5.70
   1   5  -2  128.69    5.60
   1   5  -2  115.09    6.10
   1   5  -2  128.89    5.40
   0   5  -2    7.80    0.80
   0   5  -2    7.40    1.10
   0   5  -2    7.10    0.80
   0   5  -2    6.40    0.60
   0  -5   2    7.90    0.90
  -1   5  -2   50.39    2.60
  -1   5  -2   52.49    2.40
  -1   5  -2   55.39    3.00
  -1   5  -2   56.79    2.70
   1  -5   2   54.99    2.80
  -2   5  -2   64.09    3.50
  -2   5  -2   68.19    3.00
  -2   5  -2   69.79    3.10
  -2   5  -2   63.99    3.30
   2  -5   2   70.79    3.50
  -3   5  -2  675.93   26.90
  -3   5  -2  643.84   27.20
  -3   5  -2  674.43   27.50
   3  -5   2  633.94   27.40
  -4   5  -2  198.28    9.00
  -4   5  -2  202.18    9.30
  -4   5  -2  208.48    8.70
   4  -5   2  224.78    9.50
  -5   5  -2  548.15   23.00
  -5   5  -2  569.94   23.80
  -5   5  -2  599.14   23.40
   5  -5   2  526.95   23.80
  -6   5  -2    9.10    1.40
  -6   5  -2   10.10    0.80
   6  -5   2    8.60    1.40
  -7   5  -2   13.90    1.60
  -7   5  -2   17.30    1.20
  -7   5  -2   18.10    2.00
   7  -5   2   16.50    1.90
  -8   5  -2  332.87   15.40
  -8   5  -2  366.66   15.00
   8  -5   2  373.36   16.30
  -9   5  -2    5.30    0.70
  -9   5  -2    5.40    0.80
  -9   5  -2    5.20    1.20
 -10   5  -2   82.29    4.60
 -10   5  -2   85.29    3.90
 -11   5  -2    5.10    0.70
 -11   5  -2    4.00    1.10
 -12   5  -2  172.28    7.50
 -12   5  -2  187.38    8.20
  10   4  -2   53.69    2.70
   9   4  -2   71.29    3.60
  -9  -4   2   69.29    3.70
   8   4  -2   88.29    4.10
  -8  -4   2   73.49    4.20
   7   4  -2    3.00    0.90
  -7  -4   2    4.30    1.00
   6   4  -2  223.98    9.80
  -6  -4   2  223.78   10.00
  -5  -4   2   98.09    4.80
   4   4  -2  376.76   15.60
   4   4  -2  354.56   15.90
   3   4  -2   95.59    4.40
   3   4  -2   87.69    4.50
   2   4  -2  534.65   21.10
   2   4  -2  488.05   21.10
   2   4  -2  508.65   21.20
   2   4  -2  508.15   21.30
   2   4  -2  509.25   21.70
   1   4  -2   72.29    3.70
   1   4  -2   74.49    3.40
   1   4  -2   71.69    3.30
  -1  -4   2   69.89    3.40
   0   4  -2  762.92   32.30
   0   4  -2  783.12   32.30
   0   4  -2  766.22   32.20
   0   4  -2  836.42   32.70
   0  -4   2  790.02   32.40
  -1   4  -2   26.40    1.40
  -1   4  -2   28.30    1.70
  -1   4  -2   26.70    1.50
   1  -4   2   25.50    1.50
  -2   4  -2   75.39    3.30
  -2   4  -2   74.59    3.60
  -2   4  -2   73.09    3.40
   2  -4   2   72.19    3.60
  -3   4  -2   70.79    3.00
  -3   4  -2   70.19    3.50
  -3   4  -2   65.79    3.30
   3  -4   2   74.09    3.50
  -4   4  -2 2045.30   82.69
  -4   4  -2 1899.51   83.29
  -4   4  -2 2023.50   82.99
   4  -4   2 2179.48   83.39
  -5   4  -2    5.00    0.90
  -5   4  -2    6.90    0.60
  -5   4  -2    4.90    0.70
   5  -4   2    5.10    1.00
  -6   4  -2  389.66   17.00
  -6   4  -2  403.36   16.20
   6  -4   2  379.16   17.00
  -7   4  -2   29.60    2.40
  -7   4  -2   29.90    1.60
   7  -4   2   26.20    2.40
  -8   4  -2  135.39    5.90
  -8   4  -2  132.29    6.40
   8  -4   2  131.59    6.90
  -9   4  -2  170.78    7.40
  -9   4  -2  160.28    7.20
  -9   4  -2  176.78    8.00
 -10   4  -2   32.20    2.60
 -10   4  -2   34.30    1.90
 -11   4  -2  124.49    6.10
 -11   4  -2  123.09    5.40
 -12   4  -2   14.10    1.60
 -12   4  -2   12.80    0.90
  11   3  -2    8.20    0.80
  10   3  -2   14.20    1.30
 -10  -3   2   12.50    1.40
   9   3  -2  359.66   14.80
  -9  -3   2  335.57   15.00
   8   3  -2  111.69    5.40
  -8  -3   2  111.69    5.60
   7   3  -2  732.63   31.20
  -7  -3   2  771.02   31.40
  -6  -3   2    0.20    0.70
   5   3  -2  620.94   26.00
   5   3  -2  625.74   26.40
   4   3  -2  195.78    8.90
   4   3  -2  199.58    8.70
   3   3  -2 3637.74  158.08
   3   3  -2 3894.01  157.78
   3   3  -2 3783.72  157.88
   3   3  -2 4220.58  158.58
   2   3  -2    7.10    0.70
   2   3  -2    8.70    0.90
   2   3  -2    7.10    1.00
   2   3  -2    7.90    0.70
  -2  -3   2    7.60    0.70
  -2  -3   2    7.50    1.00
   1   3  -2  256.27   10.70
   1   3  -2  270.47   11.00
   1   3  -2  265.77   10.80
   1   3  -2  237.48   10.70
   1   3  -2  255.97   10.90
  -1  -3   2  249.97   10.70
  -1  -3   2  251.27   10.90
   0   3  -2    1.50    0.30
   0   3  -2    1.10    0.40
   0   3  -2    1.40    0.30
   0   3  -2    1.60    0.30
   0   3  -2    1.80    0.40
   0  -3   2    1.80    0.40
   0  -3   2    1.30    0.40
  -1   3  -2  741.63   31.60
  -1   3  -2  800.82   31.40
  -1   3  -2  806.82   31.60
  -1   3  -2  738.23   31.40
   1  -3   2  740.53   31.50
   1  -3   2  782.22   31.50
  -2   3  -2  369.26   14.80
  -2   3  -2  339.17   14.80
  -2   3  -2  350.56   14.60
  -2   3  -2  349.27   14.70
   2  -3   2  367.56   14.90
  -3   3  -2 1153.78   45.50
  -3   3  -2 1039.80   45.30
   3  -3   2 1133.79   45.20
   3  -3   2 1110.69   45.60
  -4   3  -2   78.59    3.60
  -4   3  -2   81.49    3.90
   4  -3   2   78.39    3.60
   4  -3   2   86.59    4.00
  -5   3  -2  349.37   15.60
  -5   3  -2  371.46   15.00
   5  -3   2  378.96   15.30
   5  -3   2  353.16   15.60
  -6   3  -2   95.09    4.90
  -6   3  -2   92.09    4.10
   6  -3   2   94.39    4.50
   6  -3   2   93.49    4.90
  -7   3  -2 1042.10   40.30
  -7   3  -2  930.41   41.20
   7  -3   2  975.00   41.20
  -8   3  -2   62.29    3.40
  -8   3  -2   62.99    3.00
   8  -3   2   53.69    3.80
  -9   3  -2  512.65   21.40
  -9   3  -2  516.05   22.10
  -9   3  -2  526.95   21.60
 -10   3  -2  292.37   12.20
 -10   3  -2  292.67   13.00
 -11   3  -2    9.30    1.40
 -11   3  -2    8.30    0.80
 -12   3  -2    5.60    0.50
 -12   3  -2    5.10    1.00
  11   2  -2    0.20    0.50
 -11  -2   2    0.30    0.60
  10   2  -2    1.30    0.80
 -10  -2   2    3.90    1.00
   9   2  -2    7.90    1.20
  -9  -2   2    6.80    1.30
   8   2  -2  160.58    7.10
  -8  -2   2  151.08    7.30
   7   2  -2    6.00    1.00
  -7  -2   2    5.10    1.10
  -7  -2   2    4.80    0.60
   6   2  -2   17.00    2.30
   5   2  -2  440.46   18.20
   5   2  -2  425.66   18.60
   4   2  -2  786.52   32.50
   4   2  -2  792.12   32.80
   3   2  -2    8.60    0.80
   3   2  -2    6.90    0.90
   3   2  -2    9.00    0.70
   3   2  -2    7.90    1.00
   3   2  -2    8.50    1.10
  -3  -2   2    8.50    1.10
  -3  -2   2    7.80    0.80
  -3  -2   2    8.60    0.90
   2   2  -2 2600.94  104.09
   2   2  -2 2475.35  103.29
   2   2  -2 2581.64  103.79
   2   2  -2 2681.03  104.19
   2   2  -2 2553.94  103.39
  -2  -2   2 2566.64  103.99
  -2  -2   2 2390.46  103.19
  -2  -2   2 2423.56  104.19
   1   2  -2 1587.74   62.69
   1   2  -2 1493.85   62.19
   1   2  -2 1512.15   61.99
   1   2  -2 1523.45   62.19
   1   2  -2 1532.05   62.49
  -1  -2   2 1510.55   62.09
  -1  -2   2 1535.85   62.39
  -1  -2   2 1497.75   62.19
   0   2  -2 1482.35   55.99
   0   2  -2 1335.37   55.39
   0   2  -2 1297.17   55.19
   0   2  -2 1302.27   55.09
   0   2  -2 1390.06   55.69
   0   2  -2 1368.46   55.29
   0  -2   2 1348.17   55.19
   0  -2   2 1410.36   55.99
   0  -2   2 1285.47   55.39
   0  -2   2 1340.47   55.19
  -1   2  -2  557.44   22.40
  -1   2  -2  512.15   22.30
  -1   2  -2  525.85   22.40
   1  -2   2  571.94   22.30
   1  -2   2  563.04   22.40
  -2   2  -2 6023.80  237.98
  -2   2  -2 5390.66  237.28
  -2   2  -2 5826.12  238.88
  -2   2  -2 5794.22  237.98
   2  -2   2 5850.81  236.98
   2  -2   2 6077.29  237.78
  -3   2  -2  384.46   15.90
  -3   2  -2  380.76   15.80
   3  -2   2  380.06   15.80
   3  -2   2  399.56   15.90
   3  -2   2  352.56   15.60
  -4   2  -2   18.20    1.30
  -4   2  -2   19.50    1.00
   4  -2   2   19.00    1.20
   4  -2   2   17.90    1.40
  -5   2  -2  168.18    7.90
  -5   2  -2  158.58    7.40
   5  -2   2  198.58    7.80
   5  -2   2  180.88    8.00
  -6   2  -2 1569.84   64.29
  -6   2  -2 1491.25   63.49
   6  -2   2 1560.24   64.09
   6  -2   2 1620.64   64.39
  -7   2  -2   70.69    3.30
  -7   2  -2   69.79    4.20
   7  -2   2   74.49    4.20
   7  -2   2   72.99    3.90
  -8   2  -2   77.39    3.80
  -8   2  -2   90.09    4.40
   8  -2   2   77.79    4.70
  -9   2  -2    1.80    0.90
  -9   2  -2    2.50    0.70
  -9   2  -2    1.10    0.50
   9  -2   2    1.70    0.80
 -10   2  -2   49.10    2.30
 -10   2  -2   44.40    3.10
  10  -2   2   42.80    2.60
 -11   2  -2   69.69    3.80
 -11   2  -2   65.29    3.00
  11  -2   2   64.09    3.40
 -12   2  -2    9.30    0.70
 -12   2  -2   11.80    1.40
  12  -2   2   10.30    1.00
  12   1  -2    0.10    0.40
  11   1  -2    3.80    0.80
 -11  -1   2    4.40    0.90
  10   1  -2    9.70    1.20
 -10  -1   2   10.30    1.40
   9   1  -2   72.19    3.70
  -9  -1   2   67.09    3.90
   8   1  -2  166.38    7.70
  -8  -1   2  186.68    8.10
  -8  -1   2  165.98    7.20
  -7  -1   2  191.28    8.70
   6   1  -2  681.83   28.80
   5   1  -2  100.49    5.00
   5   1  -2  102.99    4.70
   4   1  -2  289.77   12.60
   4   1  -2  292.17   12.30
   4   1  -2  285.87   12.90
  -4  -1   2  278.87   12.70
  -4  -1   2  315.37   12.70
   3   1  -2 1082.19   42.70
   3   1  -2 1030.90   42.60
   3   1  -2 1039.10   42.70
   3   1  -2 1077.19   42.90
  -3  -1   2 1019.80   43.00
  -3  -1   2 1021.40   43.00
   2   1  -2    6.80    0.70
   2   1  -2    8.80    0.60
   2   1  -2    8.80    0.90
   2   1  -2    8.10    0.60
  -2  -1   2    7.90    0.50
  -2  -1   2    8.30    0.80
  -2  -1   2    7.90    0.80
   1   1  -2 1498.65   60.29
   1   1  -2 1412.06   59.39
   1   1  -2 1431.96   59.29
   1   1  -2 1384.66   59.29
   1   1  -2 1417.96   59.79
   1   1  -2 1605.84   59.69
  -1  -1   2 1532.45   59.89
  -1  -1   2 1391.76   59.69
   0   1  -2   51.69    2.30
   0   1  -2   51.89    2.30
   0   1  -2   51.19    2.30
   0   1  -2   56.09    2.40
   0  -1   2   56.19    2.30
   0  -1   2   56.79    2.30
  -1   1  -2  592.04   25.10
  -1   1  -2  607.64   25.00
  -1   1  -2  639.24   25.10
  -1   1  -2  604.34   25.10
  -1   1  -2  606.94   25.20
   1  -1   2  644.74   25.10
  -2   1  -2  115.59    4.90
  -2   1  -2  116.99    4.80
  -2   1  -2  118.19    5.10
  -2   1  -2  114.89    4.90
   2  -1   2  111.79    4.70
   2  -1   2  109.29    4.90
   2  -1   2  119.99    4.90
  -3   1  -2  174.58    8.00
  -3   1  -2  188.98    8.40
  -3   1  -2  198.48    8.50
  -3   1  -2  191.18    8.40
   3  -1   2  195.38    8.00
   3  -1   2  202.78    8.00
   3  -1   2  195.68    8.30
   3  -1   2  222.28    8.30
  -4   1  -2   13.20    1.20
   4  -1   2   14.10    1.20
   4  -1   2   13.50    1.10
  -5   1  -2  271.37   11.60
  -5   1  -2  278.97   12.20
   5  -1   2  283.27   12.00
   5  -1   2  283.87   12.20
  -6   1  -2   74.29    3.50
  -6   1  -2   70.29    4.20
   6  -1   2   84.19    4.30
   6  -1   2   84.79    4.10
  -7   1  -2  828.02   31.20
  -7   1  -2  716.53   32.10
   7  -1   2  738.03   31.80
   7  -1   2  744.53   32.00
  -8   1  -2   30.70    2.30
  -8   1  -2   32.60    2.30
  -8   1  -2   33.40    1.90
   8  -1   2   30.00    2.00
  -9   1  -2   96.19    4.30
  -9   1  -2   92.29    5.00
   9  -1   2   97.49    4.70
 -10   1  -2    2.80    0.60
 -10   1  -2    4.40    1.20
  10  -1   2    5.00    1.00
 -11   1  -2  105.39    5.20
 -11   1  -2  107.89    4.50
  11  -1   2   97.49    4.90
 -12   1  -2   32.60    2.10
  12  -1   2   34.50    1.90
  12   0  -2    3.30    0.60
 -12   0   2    3.50    0.80
  11   0  -2   99.59    4.90
 -11   0   2  106.49    5.20
  10   0  -2  101.79    4.70
 -10   0   2   88.19    4.90
   9   0  -2   47.00    2.80
  -9   0   2   47.00    3.10
  -9   0   2   50.09    2.30
   8   0  -2   16.00    1.50
  -8   0   2   15.50    1.70
  -8   0   2   14.80    1.00
  -7   0   2   34.20    2.30
   6   0  -2   41.70    2.70
   5   0  -2   13.40    1.30
   5   0  -2   15.30    1.00
   4   0  -2   31.50    1.70
   4   0  -2   34.60    2.20
   4   0  -2   34.10    1.70
   4   0  -2   32.40    1.90
  -4   0   2   32.60    1.90
  -4   0   2   31.00    2.00
  -4   0   2   29.10    1.60
   3   0  -2  183.28    7.50
   3   0  -2  181.88    8.00
   3   0  -2  183.58    7.80
   3   0  -2  173.78    7.60
  -3   0   2  186.08    7.80
  -3   0   2  167.88    7.80
   2   0  -2   85.89    3.80
   2   0  -2   89.89    4.00
   2   0  -2   82.79    3.70
   2   0  -2   84.79    3.90
   2   0  -2   89.49    3.70
  -2   0   2   88.29    3.90
  -2   0   2   87.19    3.90
   1   0  -2    6.90    0.50
   1   0  -2    6.80    0.50
   1   0  -2    6.70    0.50
   1   0  -2    6.90    0.40
   1   0  -2    6.00    0.50
  -1   0   2    6.60    0.50
  -1   0   2    6.20    0.50
   0   0  -2  925.71   37.00
   0   0  -2  923.51   37.10
   0   0  -2  843.82   36.90
   0   0  -2  923.61   37.10
  -1   0  -2   56.99    2.60
  -1   0  -2   55.29    2.40
  -1   0  -2   56.59    2.40
  -1   0  -2   57.49    2.40
   1   0   2   56.89    2.50
  -2   0  -2  492.15   20.90
  -2   0  -2  507.75   20.90
  -2   0  -2  495.25   20.80
   2   0   2  521.05   20.80
   2   0   2  513.45   20.70
  -3   0  -2  130.29    5.50
  -3   0  -2  122.79    5.50
  -3   0  -2  103.59    5.40
   3   0   2  131.49    5.40
  -4   0  -2   68.99    2.90
  -4   0  -2   68.79    3.40
  -4   0  -2   67.89    3.40
   4   0   2   64.89    3.30
   4   0   2   59.89    2.90
  -5   0  -2   29.90    1.50
  -5   0  -2   28.00    2.00
  -5   0  -2   27.70    2.00
   5   0   2   28.70    1.90
  -6   0  -2  116.39    4.90
  -6   0  -2  108.09    5.70
   6   0   2  109.29    5.60
   6   0   2  112.29    5.60
  -7   0  -2   97.39    4.30
  -7   0  -2   93.09    4.70
   7   0   2   93.99    5.10
  -8   0  -2   32.40    1.80
  -8   0  -2   34.50    2.40
  -8   0  -2   31.10    1.90
   8   0   2   29.30    2.00
  -9   0  -2    8.90    0.90
  -9   0  -2    9.40    1.40
   9   0   2    9.90    1.30
 -10   0  -2  334.07   13.60
 -10   0  -2  307.47   14.30
  10   0   2  344.87   14.10
 -11   0  -2   -0.10    0.70
 -11   0  -2    0.30    0.40
  11   0   2    2.50    0.70
  12   0   2   15.10    1.20
  12  -1  -2   25.90    1.60
 -12   1   2   23.10    1.80
  11  -1  -2  191.48    8.10
 -11   1   2  170.98    8.30
  10  -1  -2   58.19    3.30
 -10   1   2   63.29    3.70
   9  -1  -2   25.70    1.90
  -9   1   2   23.50    1.40
  -9   1   2   27.50    2.20
   8  -1  -2   24.40    1.80
  -8   1   2   24.50    1.40
  -8   1   2   23.40    2.00
   7  -1  -2   36.70    2.60
   6  -1  -2   58.49    3.30
   5  -1  -2  821.32   35.90
   5  -1  -2  863.61   36.10
   5  -1  -2  884.81   35.90
  -5   1   2  916.11   36.30
   4  -1  -2  135.49    6.40
   4  -1  -2  136.99    5.80
   4  -1  -2  134.99    6.00
   4  -1  -2  128.99    6.10
  -4   1   2  141.39    6.30
  -4   1   2  142.99    6.20
   3  -1  -2  156.58    6.80
   3  -1  -2  150.58    6.60
   3  -1  -2  154.48    6.40
   3  -1  -2  135.09    6.50
  -3   1   2  155.98    6.60
  -3   1   2  173.68    6.70
  -3   1   2  136.19    6.40
   2  -1  -2  561.24   22.70
   2  -1  -2  542.25   22.50
   2  -1  -2  547.85   22.40
   2  -1  -2  556.74   22.50
  -2   1   2  566.14   22.60
  -2   1   2  524.55   22.60
  -2   1   2  540.35   22.40
   1  -1  -2  133.39    5.80
   1  -1  -2  137.29    5.80
   1  -1  -2  144.89    5.70
   1  -1  -2  129.79    5.80
   1  -1  -2  145.99    5.90
  -1   1   2  131.09    5.80
  -1   1   2  123.29    5.70
  -1   1   2  153.08    5.80
   0  -1  -2   12.70    0.70
   0  -1  -2   12.50    0.70
   0  -1  -2   12.10    0.70
   0  -1  -2   12.20    0.70
   0   1   2   12.10    0.60
   0   1   2   12.00    0.70
  -1  -1  -2  626.54   24.70
  -1  -1  -2  627.64   24.60
  -1  -1  -2  542.15   24.70
   1   1   2  566.24   24.60
   1   1   2  679.93   24.70
   1   1   2  566.44   24.40
  -2  -1  -2 1106.59   45.40
  -2  -1  -2 1218.98   45.50
  -2  -1  -2 1052.69   45.40
   2   1   2 1087.89   45.40
   2   1   2 1082.49   45.30
  -3  -1  -2   20.90    1.40
  -3  -1  -2   20.10    1.40
   3   1   2   19.00    1.30
  -4  -1  -2    3.90    0.80
  -4  -1  -2    4.80    0.50
  -4  -1  -2    5.50    0.90
   4   1   2    4.90    0.80
   4   1   2    4.60    0.60
  -5  -1  -2  663.63   27.80
  -5  -1  -2  665.63   28.50
  -5  -1  -2  656.23   28.60
   5   1   2  729.03   28.50
  -6  -1  -2   25.20    1.50
  -6  -1  -2   23.40    2.10
   6   1   2   26.50    2.10
  -7  -1  -2   23.50    1.90
  -7  -1  -2   26.50    1.60
  -8  -1  -2   87.99    4.20
  -8  -1  -2   64.99    3.90
  -8  -1  -2   66.99    3.30
   8   1   2   63.19    3.60
  -9  -1  -2  259.07   11.00
  -9  -1  -2  266.07   11.70
   9   1   2  266.07   11.50
 -10  -1  -2    6.10    1.10
 -10  -1  -2    6.10    0.70
  10   1   2    5.50    1.00
 -11  -1  -2  133.89    6.20
  11   1   2  139.39    6.10
  12  -2  -2   45.70    2.50
 -12   2   2   47.10    2.70
  11  -2  -2   41.50    2.50
 -11   2   2   44.40    2.90
  10  -2  -2   10.90    1.30
 -10   2   2   14.10    1.70
 -10   2   2   13.80    1.00
   9  -2  -2    7.20    1.10
  -9   2   2    9.60    1.40
  -9   2   2    7.90    0.70
   8  -2  -2    9.20    1.20
  -8   2   2    7.00    1.20
   7  -2  -2    7.10    1.20
   6  -2  -2   16.80    1.50
   6  -2  -2   17.70    1.50
   5  -2  -2   69.59    3.50
   5  -2  -2   74.49    3.60
  -5   2   2   67.19    3.20
  -5   2   2   68.99    3.70
   4  -2  -2   52.89    2.70
   4  -2  -2   55.49    2.50
   4  -2  -2   57.69    2.80
   4  -2  -2   54.29    3.00
  -4   2   2   52.79    2.90
  -4   2   2   56.59    2.60
  -4   2   2   51.69    2.80
   3  -2  -2    6.40    0.70
   3  -2  -2    6.50    0.80
   3  -2  -2    5.90    0.50
   3  -2  -2    6.00    0.70
  -3   2   2    5.30    0.60
  -3   2   2    4.80    0.70
  -3   2   2    4.90    0.70
   2  -2  -2  210.98    8.50
   2  -2  -2  198.08    8.60
  -2   2   2  210.68    8.70
  -2   2   2  212.18    8.70
  -2   2   2  185.28    8.50
   1  -2  -2  393.46   15.90
   1  -2  -2  399.36   15.80
   1  -2  -2  372.56   15.90
  -1   2   2  381.26   15.90
  -1   2   2  385.26   15.90
  -1   2   2  374.26   15.80
   0  -2  -2 1302.97   60.39
   0  -2  -2 1622.34   61.59
   0  -2  -2 1460.15   60.59
   0   2   2 1504.75   60.49
   0   2   2 1505.25   60.79
   0   2   2 1528.55   61.39
  -1  -2  -2  436.86   18.30
  -1  -2  -2  448.06   18.30
   1   2   2  434.16   18.20
   1   2   2  436.86   18.30
   1   2   2  446.36   18.00
  -2  -2  -2 2214.78   97.69
  -2  -2  -2 2431.86   98.09
   2   2   2 2371.76   97.69
   2   2   2 2493.05   97.49
   2   2   2 2481.35   98.59
  -3  -2  -2  116.39    4.90
  -3  -2  -2  107.19    5.30
  -3  -2  -2  110.69    5.40
   3   2   2  123.69    5.30
  -4  -2  -2  148.99    5.90
  -4  -2  -2  146.39    6.50
  -4  -2  -2  137.79    6.60
   4   2   2  131.99    6.40
   4   2   2  125.49    6.00
  -5  -2  -2  423.66   17.40
  -5  -2  -2  439.96   18.40
  -5  -2  -2  411.06   18.10
   5   2   2  410.86   18.10
  -6  -2  -2    6.20    0.80
  -7  -2  -2    4.20    0.90
  -7  -2  -2    3.90    1.00
  -7  -2  -2    4.10    0.60
  -8  -2  -2   62.19    4.00
  -8  -2  -2   61.79    3.50
  -8  -2  -2   62.39    2.90
   8   2   2   59.09    3.30
  -9  -2  -2    2.80    0.60
  -9  -2  -2    3.50    1.20
  -9  -2  -2    2.80    0.90
   9   2   2    2.50    0.90
 -10  -2  -2    2.80    0.50
  10   2   2    3.00    0.80
  11   2   2   11.60    1.20
  12  -3  -2   29.80    1.80
 -12   3   2   31.70    2.20
  11  -3  -2   89.49    4.30
 -11   3   2   85.29    4.60
  10  -3  -2    7.40    1.10
 -10   3   2    8.40    1.50
 -10   3   2    8.50    0.70
   9  -3  -2    3.50    0.80
  -9   3   2    4.20    0.60
  -9   3   2    4.40    1.10
  -8   3   2   88.99    4.50
   7  -3  -2  126.79    6.40
   7  -3  -2  131.19    6.30
   6  -3  -2    9.00    1.30
   6  -3  -2   11.00    1.20
   5  -3  -2  142.09    7.00
   5  -3  -2  149.49    6.80
  -5   3   2  155.48    7.20
  -5   3   2  164.28    6.70
   4  -3  -2  209.18    9.50
   4  -3  -2  245.08    9.80
   4  -3  -2  208.28    9.80
  -4   3   2  237.88    9.70
  -4   3   2  211.48    9.70
  -4   3   2  223.08    9.40
   3  -3  -2 4148.79  172.18
   3  -3  -2 4166.98  172.18
   3  -3  -2 4562.54  171.28
  -3   3   2 3770.12  170.38
  -3   3   2 4428.06  171.68
  -3   3   2 3999.20  171.68
   2  -3  -2  567.14   23.10
   2  -3  -2  510.55   23.30
   2  -3  -2  573.14   23.40
  -2   3   2  543.65   23.30
  -2   3   2  623.64   23.40
  -2   3   2  560.24   23.10
   1  -3  -2 1986.60   80.39
   1  -3  -2 1951.90   79.99
   1  -3  -2 2016.60   79.69
  -1   3   2 1907.11   80.19
  -1   3   2 1955.10   79.99
  -1   3   2 1902.91   80.79
   0  -3  -2  288.07   11.70
   0  -3  -2  258.97   11.70
   0   3   2  293.27   11.70
   0   3   2  265.67   11.70
   0   3   2  272.07   11.40
   0   3   2  278.27   11.50
  -1  -3  -2  494.55   19.80
  -1  -3  -2  486.65   19.80
   1   3   2  452.95   19.40
   1   3   2  479.05   19.80
   1   3   2  466.85   19.80
   1   3   2  462.85   19.60
  -2  -3  -2  145.59    6.50
  -2  -3  -2  151.88    6.70
   2   3   2  134.99    6.00
   2   3   2  142.19    6.60
   2   3   2  149.39    6.40
  -3  -3  -2  867.31   36.60
  -3  -3  -2  919.31   37.30
  -3  -3  -2  870.01   37.10
   3   3   2  897.11   36.80
   3   3   2  927.71   37.10
  -4  -3  -2   18.20    1.60
  -4  -3  -2   16.30    1.70
  -4  -3  -2   15.60    1.10
   4   3   2   17.30    1.60
   4   3   2   17.00    1.30
  -5  -3  -2    2.80    0.90
  -5  -3  -2    4.00    0.60
   5   3   2    3.50    0.80
   5   3   2    3.80    1.00
  -6  -3  -2    6.30    0.80
  -7  -3  -2  273.37   11.60
  -7  -3  -2  269.37   12.80
  -7  -3  -2  289.47   12.10
  -8  -3  -2    7.20    0.80
  -8  -3  -2    9.40    1.70
   8   3   2    7.90    1.20
  -9  -3  -2  145.89    6.20
  -9  -3  -2  138.79    7.30
   9   3   2  152.18    6.70
  10   3   2    3.20    0.80
  11   3   2   24.70    1.50
 -12   4   2   44.40    2.70
 -11   4   2   22.80    2.10
 -10   4   2   80.19    3.50
 -10   4   2   77.09    4.40
  -9   4   2   56.89    2.80
  -9   4   2   65.49    3.60
  -8   4   2  622.84   26.10
   7  -4  -2   56.89    3.50
   6  -4  -2  219.98   10.20
   6  -4  -2  246.38   10.60
  -6   4   2  235.18   10.10
   5  -4  -2 1100.99   46.20
   5  -4  -2 1066.49   46.40
  -5   4   2 1205.68   46.20
   4  -4  -2  363.26   16.50
   4  -4  -2  412.36   16.20
  -4   4   2  385.56   16.60
  -4   4   2  388.36   16.20
   3  -4  -2  705.33   29.90
   3  -4  -2  819.22   30.30
   3  -4  -2  698.23   30.30
  -3   4   2  674.43   30.00
  -3   4   2  750.22   30.30
  -3   4   2  726.33   30.20
   2  -4  -2    8.80    1.00
   2  -4  -2    8.80    1.00
   2  -4  -2    8.00    0.70
  -2   4   2    8.00    0.90
  -2   4   2    8.40    0.70
  -2   4   2    8.70    0.90
   1  -4  -2   69.39    3.30
   1  -4  -2   73.09    3.10
   1  -4  -2   64.89    3.30
  -1   4   2   67.59    3.30
  -1   4   2   52.79    3.00
  -1   4   2   67.99    3.00
  -1   4   2   67.99    3.30
   0  -4  -2    4.00    0.80
   0  -4  -2    3.90    0.70
   0   4   2    4.90    0.80
   0   4   2    3.90    0.50
   0   4   2    4.10    0.70
   0   4   2    3.30    0.50
  -1  -4  -2    3.60    0.70
  -1  -4  -2    4.20    0.80
   1   4   2    4.10    0.60
   1   4   2    4.90    0.60
   1   4   2    4.10    0.80
  -2  -4  -2  163.88    7.20
  -2  -4  -2  149.09    7.00
  -2  -4  -2  148.29    6.50
   2   4   2  153.88    6.90
   2   4   2  146.59    7.10
  -3  -4  -2  313.97   13.30
  -3  -4  -2  328.57   14.20
  -3  -4  -2  332.07   14.00
   3   4   2  315.97   13.80
   3   4   2  308.67   14.10
   3   4   2  323.07   13.60
  -4  -4  -2  131.99    6.00
  -4  -4  -2  141.59    6.70
   4   4   2  139.99    6.70
   4   4   2  136.79    6.30
   5   4   2   16.40    1.60
  -6  -4  -2   27.50    1.70
  -6  -4  -2   29.60    2.80
  -6  -4  -2   33.10    2.10
  -7  -4  -2    1.00    0.50
  -7  -4  -2   -0.20    1.10
   7   4   2    0.50    0.70
  -8  -4  -2   63.19    2.90
  -8  -4  -2   61.19    4.10
   8   4   2   62.19    3.40
  -9  -4  -2    7.70    1.40
   9   4   2    7.20    1.00
  10   4   2    2.80    0.60
 -12   5   2    2.50    0.90
 -11   5   2    3.60    1.10
 -10   5   2    0.80    0.90
 -10   5   2    1.20    0.50
  -9   5   2  459.45   19.50
  -9   5   2  490.45   20.30
   8  -5  -2   92.89    5.30
  -8   5   2   93.49    4.80
  -8   5   2   97.89    4.20
   7  -5  -2   23.00    2.20
   6  -5  -2  108.29    5.60
  -6   5   2  111.59    5.20
   5  -5  -2   77.19    4.00
  -5   5   2   64.39    3.50
   4  -5  -2   42.70    2.70
  -4   5   2   48.60    2.50
   3  -5  -2  174.08    7.40
   3  -5  -2  175.48    7.90
  -3   5   2  169.68    7.90
   2  -5  -2  105.59    5.00
   2  -5  -2  103.59    5.10
   2  -5  -2  106.09    4.60
  -2   5   2  100.99    5.00
  -2   5   2  104.49    4.70
  -2   5   2  101.99    5.00
   1  -5  -2  101.09    4.90
   1  -5  -2   97.39    4.70
  -1   5   2   95.99    4.70
  -1   5   2   93.69    4.40
  -1   5   2   99.09    4.40
   0  -5  -2  116.19    5.80
   0  -5  -2  120.39    5.90
   0   5   2  123.79    5.50
   0   5   2  125.39    5.50
   0   5   2  130.69    5.90
  -1  -5  -2   80.59    4.20
  -1  -5  -2   77.19    4.30
  -1  -5  -2   76.59    3.60
   1   5   2   83.59    3.70
   1   5   2   78.79    3.90
   1   5   2   85.19    4.30
  -2  -5  -2   86.99    4.50
  -2  -5  -2   88.99    3.90
   2   5   2   95.29    4.30
   2   5   2   85.19    4.40
   2   5   2   85.29    5.30
  -3  -5  -2   63.19    3.60
  -3  -5  -2   58.49    2.90
   3   5   2   61.69    3.30
   3   5   2   64.99    3.60
  -5  -5  -2  254.77   12.00
  -5  -5  -2  261.07   11.20
  -6  -5  -2    2.70    0.60
  -6  -5  -2    2.40    0.80
  -6  -5  -2    3.00    1.30
  -7  -5  -2   62.59    2.90
  -7  -5  -2   63.29    4.30
   7   5   2   65.79    3.40
  -8  -5  -2    7.80    0.70
  -8  -5  -2    8.20    1.50
   8   5   2    8.70    1.10
  -9  -5  -2   45.30    3.00
   9   5   2   48.00    2.50
 -12   6   2    9.60    1.20
 -11   6   2   29.10    2.30
 -10   6   2   25.40    1.40
 -10   6   2   24.90    2.20
  -9   6   2   10.80    0.90
  -9   6   2   10.50    1.50
   8  -6  -2  210.08   11.00
  -8   6   2  256.77    9.90
  -8   6   2  229.88   10.30
  -8   6   2  243.88   10.50
   7  -6  -2    5.70    1.30
   6  -6  -2  121.19    6.10
  -6   6   2  113.59    5.60
   5  -6  -2    1.50    0.80
  -5   6   2    1.60    0.70
   4  -6  -2  395.26   16.50
  -4   6   2  358.46   16.00
   3  -6  -2  101.49    5.30
  -3   6   2  107.59    4.90
   2  -6  -2   21.90    1.80
  -2   6   2   21.80    1.50
   1  -6  -2  167.38    7.70
  -1   6   2  164.88    7.30
   0  -6  -2  502.15   21.00
   0   6   2  483.55   20.50
  -1  -6  -2   42.90    2.80
   1   6   2   42.80    2.50
   1   6   2   40.10    2.30
  -2  -6  -2   27.30    2.20
   2   6   2   26.20    1.90
   2   6   2   22.80    2.50
   3   6   2  183.48    8.00
  -4  -6  -2   32.00    2.80
  -4  -6  -2   30.90    1.70
   4   6   2   31.70    2.00
  -5  -6  -2  171.58    7.00
  -5  -6  -2  162.48    7.50
  -5  -6  -2  158.48    8.30
   5   6   2  164.58    7.40
  -6  -6  -2    5.80    1.60
  -6  -6  -2    6.70    0.70
   6   6   2    8.30    1.10
  -7  -6  -2    5.60    1.40
   7   6   2    6.50    1.00
  -8  -6  -2    1.50    1.00
   8   6   2    1.40    0.60
   9   6   2    0.90    0.40
 -12   7   2   39.20    2.40
 -11   7   2   46.40    2.90
 -10   7   2    9.90    1.40
 -10   7   2   10.10    0.80
  -9   7   2   55.59    2.70
  -9   7   2   58.69    3.30
  -8   7   2   24.80    2.00
  -8   7   2   26.00    1.50
   7  -7  -2  127.39    7.00
  -7   7   2  135.49    6.40
  -7   7   2  139.89    5.70
  -7   7   2  123.19    6.10
   6  -7  -2   98.99    5.30
  -6   7   2   82.39    4.60
   5  -7  -2  587.94   27.40
  -5   7   2  696.73   27.00
   4  -7  -2   33.80    2.70
  -4   7   2   38.60    2.40
   3  -7  -2   77.99    4.50
  -3   7   2   84.19    4.10
   2  -7  -2    4.40    1.10
  -2   7   2    4.10    0.80
   1  -7  -2  706.13   28.80
  -1   7   2  652.83   28.20
   0  -7  -2  142.79    7.30
   0   7   2  150.48    6.80
   0   7   2  160.88    7.00
  -1  -7  -2    2.90    0.90
   1   7   2    2.80    1.10
   1   7   2    2.30    0.80
   2   7   2   27.70    1.80
  -3  -7  -2    6.10    0.70
  -3  -7  -2    6.90    1.50
   3   7   2    6.80    1.00
  -4  -7  -2  127.39    5.40
  -4  -7  -2  121.99    6.80
   4   7   2  124.59    5.80
  -5  -7  -2  430.66   17.70
  -5  -7  -2  435.96   19.20
   5   7   2  424.56   18.10
  -6  -7  -2    2.70    1.30
  -7  -7  -2    5.20    1.30
  -8  -7  -2   22.60    1.90
 -10   8   2   42.70    2.70
  -9   8   2    7.00    1.20
  -8   8   2  130.99    6.30
  -7   8   2    0.60    0.70
  -7   8   2    1.30    0.90
   6  -8  -2  165.98    8.20
  -6   8   2  154.38    7.20
  -6   8   2  151.88    7.50
   5  -8  -2   92.39    5.40
  -5   8   2   97.19    5.00
   4  -8  -2  243.88   11.40
  -4   8   2  237.98   10.80
   3  -8  -2   21.20    2.10
  -3   8   2   17.90    1.70
   2  -8  -2  450.55   20.00
  -2   8   2  443.86   19.40
  -2   8   2  477.15   19.50
   1  -8  -2    8.20    1.50
  -1   8   2    9.40    1.10
  -1   8   2   10.10    1.30
  -1   8   2   12.40    1.80
   0  -8  -2    6.40    1.40
   0   8   2    7.50    1.00
  -1  -8  -2   45.30    3.30
  -1  -8  -2   40.00    2.20
   1   8   2   45.20    2.50
  -2  -8  -2   30.40    2.80
  -2  -8  -2   25.50    1.50
   2   8   2   29.60    2.00
  -3  -8  -2    3.70    0.60
  -3  -8  -2    3.40    1.30
   3   8   2    5.10    1.00
  -4  -8  -2  255.17   12.10
   4   8   2  253.47   11.10
  -5  -8  -2   35.80    3.20
   5   8   2   35.90    2.30
  -6  -8  -2   10.70    1.70
  -7  -8  -2   85.99    4.50
 -10   9   2   21.10    1.90
  -9   9   2   17.10    1.90
  -8   9   2   26.00    2.10
  -7   9   2    6.20    1.20
  -6   9   2    1.40    0.80
   5  -9  -2    1.10    1.10
  -5   9   2    3.40    1.10
  -5   9   2    6.90    1.10
   4  -9  -2    8.20    1.60
  -4   9   2    9.10    1.20
  -4   9   2    9.60    1.40
   3  -9  -2  748.33   32.40
   3  -9  -2  800.62   32.70
  -3   9   2  727.23   31.40
  -3   9   2  748.63   31.70
   2  -9  -2   21.50    2.40
   2  -9  -2   16.40    2.10
  -2   9   2   16.70    1.80
  -2   9   2   17.40    1.40
   1  -9  -2   30.20    2.70
   1  -9  -2   34.40    2.80
  -1   9   2   34.50    2.10
  -1   9   2   36.00    2.40
   0  -9  -2    7.50    1.50
   0   9   2    5.50    1.00
  -1  -9  -2  190.58    9.50
   1   9   2  192.78    8.60
  -2  -9  -2    1.10    1.20
   2   9   2    2.60    0.90
  -3  -9  -2   10.00    1.90
   3   9   2    8.80    1.30
  -4  -9  -2    8.40    1.70
   4   9   2    7.30    1.10
  -5  -9  -2   36.60    3.00
   5   9   2   38.40    2.20
  -6  -9  -2   69.09    3.90
 -11  10   2    4.60    0.80
 -10  10   2  189.88    8.50
  -9  10   2   16.80    1.90
  -8  10   2   33.00    2.60
  -7  10   2   23.10    2.20
  -6  10   2   40.00    2.80
  -5  10   2  152.68    7.20
  -4  10   2  518.75   21.90
   3 -10  -2    0.30    1.20
  -3  10   2    0.50    0.70
   2 -10  -2  309.77   14.50
  -2  10   2  323.77   13.60
   1 -10  -2   12.90    2.00
  -1  10   2   13.20    1.40
   0 -10  -2    2.70    1.30
   0  10   2    4.50    1.00
  -1 -10  -2   77.69    5.00
   1  10   2   79.09    4.00
  -2 -10  -2   49.20    3.80
   2  10   2   47.30    2.90
  -3 -10  -2    9.70    1.70
   3  10   2    9.10    1.20
  -4 -10  -2    7.70    1.50
   4  10   2    9.00    1.10
  -5 -10  -2   10.50    1.60
   5  10   2    9.90    1.30
 -11  11   2   26.20    1.60
 -10  11   2   22.20    1.80
  -9  11   2  152.08    7.10
  -8  11   2    1.60    1.00
  -7  11   2   10.80    1.60
  -6  11   2   59.69    3.50
  -5  11   2   46.90    2.90
  -4  11   2   49.99    3.00
   3 -11  -2  424.16   18.90
   2 -11  -2   17.00    2.50
  -2  11   2   19.20    1.70
   1 -11  -2   26.80    2.90
  -1  11   2   28.60    2.00
   0 -11  -2  403.46   18.00
   0  11   2  397.06   17.00
  -1 -11  -2  269.47   12.50
   1  11   2  261.47   11.50
  -2 -11  -2    6.40    1.50
   2  11   2    5.20    1.00
  -3 -11  -2    5.20    1.20
   3  11   2    4.80    0.80
  -4 -11  -2   38.70    2.60
 -10  12   2   44.70    2.40
  -9  12   2   17.50    1.60
  -8  12   2   42.20    2.70
  -7  12   2  111.09    5.50
  -6  12   2    6.20    1.10
  -5  12   2    3.20    0.90
  -4  12   2  156.18    7.10
   3 -12  -2   42.70    3.30
   2 -12  -2  146.79    7.80
  -2  12   2  158.68    7.00
   1 -12  -2    6.30    1.50
  -1  12   2    7.80    1.10
   0 -12  -2  273.97   12.60
   0  12   2  276.17   11.80
  -1 -12  -2   46.00    3.20
   1  12   2   49.80    2.70
  -2 -12  -2    7.80    1.30
   2  12   2    8.50    1.00
  -3 -12  -2  142.19    6.60
  -9  13   2    2.30    0.60
  -8  13   2   45.90    2.60
  -7  13   2   70.29    3.60
  -6  13   2  130.39    6.00
  -5  13   2    2.20    0.80
   3 -13  -2    2.30    1.00
   2 -13  -2   10.20    1.50
  -2  13   2   11.60    1.20
   1 -13  -2  156.98    7.60
  -1  13   2  161.28    7.00
   0 -13  -2   12.60    1.60
   0  13   2   13.70    1.20
  -1 -13  -2   11.40    1.40
  -7  14   2    1.20    0.60
  -6  14   2    8.60    1.00
   2 -14   3    5.90    1.00
   3 -14   3   83.99    4.40
   4 -14   3  145.79    6.90
  -5  14  -3   46.70    2.40
   5 -14   3   44.30    2.80
  -6  14  -3   27.10    1.70
   6 -14   3   23.40    1.90
  -7  14  -3  129.09    5.80
  -1 -13   3   11.20    1.40
   0  13  -3    3.80    0.70
   0 -13   3    3.50    1.00
  -1  13  -3   18.60    1.40
   1 -13   3   19.30    2.10
   2 -13   3   67.99    4.20
   3 -13   3    1.30    1.10
  -4  13  -3   25.20    1.90
   4 -13   3   23.40    2.60
  -5  13  -3    1.30    0.80
   5 -13   3   -3.00    1.10
  -6  13  -3  218.78    9.40
   6 -13   3  205.68   10.00
  -7  13  -3    2.60    0.80
   7 -13   3    0.80    1.40
  -8  13  -3   25.30    1.80
  -9  13  -3    5.40    0.80
   2  12  -3    5.60    0.80
  -2 -12   3    5.90    1.10
   1  12  -3    4.40    0.80
  -1 -12   3    2.90    1.10
   0  12  -3    0.80    0.70
   0 -12   3    0.70    1.10
  -1  12  -3  189.18    8.50
   1 -12   3  194.48    9.50
   2 -12   3   28.20    3.10
  -3  12  -3   15.00    1.60
   3 -12   3   12.00    2.30
  -4  12  -3    7.80    1.30
   4 -12   3    9.40    2.40
  -5  12  -3  294.97   13.20
   5 -12   3  311.37   14.80
  -6  12  -3    3.60    1.10
  -7  12  -3  288.07   12.60
  -8  12  -3   14.30    1.50
  -9  12  -3   39.50    2.40
 -10  12  -3    4.20    0.80
  -4 -11   3   25.30    1.90
   3  11  -3    0.80    0.60
  -3 -11   3    0.00    0.80
   2  11  -3   69.39    3.70
  -2 -11   3   73.09    4.40
   1  11  -3   81.59    4.10
  -1 -11   3   79.69    5.00
   0  11  -3  251.57   11.00
   0 -11   3  250.87   12.00
  -1  11  -3   31.80    2.20
   1 -11   3   30.30    3.30
  -2  11  -3   41.80    2.70
   2 -11   3   43.10    4.10
  -3  11  -3   43.10    2.90
   3 -11   3   58.29    5.30
  -4  11  -3  215.48    9.40
   4 -11   3  193.18   11.30
  -5  11  -3   21.80    3.10
  -5  11  -3   26.50    2.20
  -6  11  -3  332.57   14.10
  -6  11  -3  315.07   15.10
  -7  11  -3   52.89    4.30
  -7  11  -3   57.29    3.40
  -8  11  -3  177.88    8.00
  -8  11  -3  166.98    8.70
  -9  11  -3   39.10    2.50
 -10  11  -3  116.19    5.40
   5  10  -3    2.80    0.60
  -5 -10   3    3.00    0.90
   4  10  -3   27.10    1.90
  -4 -10   3   26.40    2.40
   3  10  -3   12.40    1.40
  -3 -10   3   10.70    1.80
   2  10  -3    5.10    1.10
  -2 -10   3    4.70    1.50
   1  10  -3  329.07   14.10
  -1 -10   3  325.77   15.10
   0  10  -3   -0.40    0.70
   0 -10   3    0.20    1.20
  -1  10  -3    1.90    0.90
   1 -10   3    2.70    1.60
  -2  10  -3    9.80    1.30
  -2  10  -3   10.20    1.30
   2 -10   3    9.70    2.60
  -3  10  -3   12.60    2.20
  -3  10  -3   10.20    1.40
  -4  10  -3   64.99    3.70
  -4  10  -3   69.89    4.90
  -5  10  -3   56.59    3.30
  -5  10  -3   55.19    4.60
  -6  10  -3   49.00    3.00
  -6  10  -3   45.50    4.20
  -7  10  -3   69.89    5.10
  -7  10  -3   70.59    4.00
  -8  10  -3   40.50    2.80
  -8  10  -3   45.30    3.80
  -9  10  -3  719.23   30.00
   6   9  -3   82.89    4.00
   5   9  -3   17.10    1.50
  -5  -9   3   14.50    1.90
   4   9  -3    2.10    0.90
  -4  -9   3    1.10    1.10
   3   9  -3    0.50    0.80
  -3  -9   3    0.70    1.20
   2   9  -3  139.59    6.40
  -2  -9   3  131.99    7.30
   1   9  -3   81.49    4.20
  -1  -9   3   83.29    5.10
   0   9  -3  288.67   12.40
   0  -9   3  286.97   13.40
  -1   9  -3  116.29    5.90
  -1   9  -3  114.99    5.60
  -1   9  -3  119.19    5.50
   1  -9   3  119.79    7.20
  -2   9  -3  110.69    6.30
  -2   9  -3  108.49    5.20
  -2   9  -3  105.79    5.50
  -3   9  -3   20.90    1.70
  -3   9  -3   25.40    2.10
  -3   9  -3   20.20    2.70
  -3   9  -3   19.20    1.50
  -4   9  -3   45.90    2.80
  -4   9  -3   48.20    3.10
  -4   9  -3   48.70    2.50
  -4   9  -3   43.20    3.80
   4  -9   3   50.19    3.50
  -5   9  -3   20.30    2.90
  -5   9  -3   21.20    2.50
  -5   9  -3   21.40    1.50
  -5   9  -3   21.70    1.90
   5  -9   3   20.20    2.30
  -6   9  -3   15.20    2.20
  -6   9  -3   14.70    1.30
  -6   9  -3   13.70    1.10
  -6   9  -3   14.60    1.70
  -7   9  -3  119.79    5.90
  -7   9  -3  126.59    5.30
  -7   9  -3  120.09    6.70
  -7   9  -3  116.49    5.90
  -7   9  -3  117.19    5.50
  -8   9  -3   83.39    4.40
  -8   9  -3   75.89    4.30
  -8   9  -3   87.89    5.20
  -8   9  -3   75.99    3.70
  -9   9  -3    0.90    0.90
  -9   9  -3    1.10    0.60
  -9   9  -3    0.90    0.90
 -10   9  -3   52.99    3.20
 -10   9  -3   50.89    2.50
 -11   9  -3   28.60    1.50
 -11   9  -3   25.20    2.00
   6   8  -3   12.10    1.20
   5   8  -3  355.16   15.10
  -5  -8   3  351.16   15.80
   4   8  -3   22.80    1.90
  -4  -8   3   21.90    2.70
   3   8  -3   91.19    4.60
  -3  -8   3   89.49    5.40
   2   8  -3    3.90    1.00
  -2  -8   3    4.80    1.30
   1   8  -3    5.60    1.00
   0   8  -3   21.40    1.90
   0   8  -3   22.30    1.60
  -1   8  -3  133.99    5.80
  -1   8  -3  138.59    6.40
  -1   8  -3  126.59    5.90
  -1   8  -3  124.29    6.20
  -2   8  -3  135.89    6.60
  -2   8  -3  138.19    6.00
  -3   8  -3  206.88    8.50
  -3   8  -3  185.28    9.00
   3  -8   3  199.38    9.40
  -4   8  -3  279.27   13.30
  -4   8  -3  289.37   12.20
  -4   8  -3  295.47   12.80
   4  -8   3  288.67   13.10
  -5   8  -3   66.89    3.20
  -5   8  -3   64.49    3.60
  -5   8  -3   67.89    3.80
  -5   8  -3   63.09    5.70
   5  -8   3   74.49    4.40
  -6   8  -3   47.30    2.50
  -6   8  -3   49.10    3.00
  -6   8  -3   43.70    2.80
  -6   8  -3   49.10    2.90
   6  -8   3   45.70    3.40
  -7   8  -3   14.70    1.70
  -7   8  -3   16.70    1.30
  -7   8  -3   17.40    1.70
  -7   8  -3   15.60    1.30
  -8   8  -3  130.49    6.70
  -8   8  -3  138.29    6.60
  -8   8  -3  132.29    6.20
  -8   8  -3  131.09    6.00
  -8   8  -3  163.48    7.30
  -9   8  -3   12.50    1.70
  -9   8  -3   11.20    1.00
 -10   8  -3    4.40    1.20
 -10   8  -3    4.00    0.70
 -11   8  -3  100.99    4.30
 -11   8  -3   96.79    5.00
 -12   8  -3   50.29    2.90
 -12   8  -3   51.79    2.30
   6   7  -3   10.70    1.20
   5   7  -3   51.79    3.00
  -5  -7   3   52.19    3.70
   4   7  -3 1034.30   42.90
  -4  -7   3 1044.20   43.70
   3   7  -3    8.00    1.10
   2   7  -3    6.00    1.00
   1   7  -3  150.68    6.90
   1   7  -3  169.18    8.50
   1   7  -3  151.18    7.10
   0   7  -3  897.31   37.30
   0   7  -3  927.41   37.30
   0   7  -3  871.31   36.80
  -1   7  -3   25.50    1.80
  -1   7  -3   26.30    1.90
  -1   7  -3   25.40    1.50
  -1   7  -3   23.40    2.20
  -2   7  -3 1220.28   52.29
  -2   7  -3 1294.87   51.89
  -2   7  -3 1269.47   52.89
   2  -7   3 1300.57   52.59
  -3   7  -3    0.40    0.60
  -3   7  -3    0.60    0.70
  -3   7  -3    0.80    0.40
   3  -7   3    1.20    0.70
  -4   7  -3  218.48   10.30
  -4   7  -3  228.68    9.40
  -4   7  -3  218.88    9.90
   4  -7   3  219.28   10.20
  -5   7  -3    2.80    1.00
  -5   7  -3    2.10    0.80
  -5   7  -3    2.20    0.50
   5  -7   3    2.00    0.90
  -6   7  -3  204.48   10.10
  -6   7  -3  228.28    9.10
  -6   7  -3  216.08    9.60
  -6   7  -3  192.18    9.40
   6  -7   3  223.98   10.30
  -7   7  -3   39.80    2.60
  -7   7  -3   44.20    2.80
  -7   7  -3   44.30    2.30
   7  -7   3   38.00    3.20
  -8   7  -3   15.80    1.30
  -8   7  -3   19.50    1.90
  -8   7  -3   18.60    1.40
  -9   7  -3  124.09    5.90
  -9   7  -3  138.19    6.60
  -9   7  -3  134.09    5.80
 -10   7  -3   88.99    4.90
 -10   7  -3   91.59    4.10
 -11   7  -3   87.79    4.10
 -11   7  -3   94.89    4.90
 -12   7  -3   36.70    2.50
 -12   7  -3   39.90    1.80
   6   6  -3    5.80    1.00
   5   6  -3  451.35   19.40
  -5  -6   3  469.75   20.10
   4   6  -3  100.89    5.60
  -4  -6   3  145.29    6.30
   3   6  -3   22.70    1.60
   2   6  -3    2.20    0.70
   2   6  -3    2.10    0.80
   1   6  -3   30.00    2.00
   1   6  -3   33.20    1.70
   1   6  -3   29.10    2.00
   0   6  -3    2.40    0.80
   0   6  -3    3.20    0.70
   0   6  -3    4.10    0.80
  -1   6  -3  460.15   19.00
  -1   6  -3  454.25   18.60
  -1   6  -3  453.15   19.40
  -1   6  -3  453.55   18.90
   1  -6   3  439.56   19.10
  -2   6  -3    7.00    0.60
  -2   6  -3    9.00    1.20
  -2   6  -3    7.40    0.90
  -2   6  -3    6.50    0.80
   2  -6   3    8.50    1.10
  -3   6  -3  792.52   33.40
  -3   6  -3  785.62   34.10
  -3   6  -3  831.62   33.80
   3  -6   3  856.91   34.10
  -4   6  -3  225.68    9.70
  -4   6  -3  225.78   10.50
  -4   6  -3  255.97   10.20
   4  -6   3  223.98   10.50
  -5   6  -3  124.19    5.30
  -5   6  -3  117.19    6.10
  -5   6  -3  132.29    5.80
   5  -6   3  118.29    6.20
  -6   6  -3   74.69    3.50
  -6   6  -3   74.09    4.30
   6  -6   3   75.59    4.50
  -7   6  -3   93.29    4.40
  -7   6  -3   82.89    5.70
  -7   6  -3   84.59    4.00
   7  -6   3   80.69    5.00
  -8   6  -3    3.00    0.70
  -8   6  -3    1.70    0.60
  -8   6  -3    2.80    1.00
  -9   6  -3    4.80    1.20
  -9   6  -3    2.60    0.70
  -9   6  -3    4.70    0.70
 -10   6  -3   75.89    3.40
 -10   6  -3   68.49    4.20
 -11   6  -3   51.79    3.30
 -11   6  -3   53.49    2.60
 -12   6  -3   41.30    2.70
 -12   6  -3   40.90    2.00
   9   5  -3    1.70    0.60
   8   5  -3    5.80    0.90
  -8  -5   3    7.90    1.10
   7   5  -3   66.09    3.50
  -7  -5   3   66.19    3.70
   6   5  -3  211.18    9.50
  -6  -5   3  223.48    9.80
   5   5  -3   73.19    3.70
  -5  -5   3   74.99    3.90
   4   5  -3  324.67   13.60
  -4  -5   3  315.47   13.70
   3   5  -3   36.10    2.30
   2   5  -3  228.08    9.70
   2   5  -3  228.18   10.00
   2   5  -3  230.08    9.90
   1   5  -3    2.00    0.60
   1   5  -3    1.30    0.40
   1   5  -3    3.30    0.90
   1   5  -3    1.80    0.60
   0   5  -3  373.46   16.00
   0   5  -3  398.76   16.40
   0   5  -3  373.96   16.00
   0   5  -3  387.36   15.70
   0  -5   3  375.36   16.00
  -1   5  -3  114.49    5.20
  -1   5  -3  119.29    5.00
  -1   5  -3  115.09    5.30
  -1   5  -3  117.79    5.60
   1  -5   3  119.19    5.40
  -2   5  -3  658.73   27.00
  -2   5  -3  701.43   27.60
  -2   5  -3  637.44   27.40
  -2   5  -3  640.34   27.20
   2  -5   3  668.93   27.50
  -3   5  -3  135.29    6.10
  -3   5  -3  134.99    6.30
  -3   5  -3  132.19    5.80
   3  -5   3  149.88    6.50
  -4   5  -3 2014.40   79.79
  -4   5  -3 1797.42   79.39
  -4   5  -3 2050.69   79.09
   4  -5   3 1919.61   79.79
  -5   5  -3   23.10    1.60
  -5   5  -3   22.90    1.30
  -5   5  -3   24.60    1.90
   5  -5   3   23.40    2.00
  -6   5  -3   66.49    3.80
  -6   5  -3   63.89    3.00
   6  -5   3   62.09    3.80
  -7   5  -3   18.40    1.70
  -7   5  -3   20.60    1.30
  -7   5  -3   20.20    2.10
   7  -5   3   17.80    2.00
  -8   5  -3  471.45   20.00
  -8   5  -3  489.15   19.70
  -8   5  -3  466.25   19.10
   8  -5   3  413.96   20.20
  -9   5  -3   99.99    4.80
  -9   5  -3  104.89    5.40
  -9   5  -3  106.19    4.60
 -10   5  -3  151.38    6.60
 -10   5  -3  153.88    7.40
 -11   5  -3   10.90    0.90
 -11   5  -3    9.90    1.50
 -12   5  -3    2.20    0.90
 -12   5  -3    3.20    0.50
  10   4  -3    3.60    0.70
   9   4  -3  101.99    4.60
  -9  -4   3   92.69    4.70
   8   4  -3   41.90    2.50
  -8  -4   3   37.70    2.60
   7   4  -3   12.70    1.30
  -7  -4   3   13.00    1.50
   6   4  -3    0.10    0.60
  -6  -4   3    0.60    0.80
   5   4  -3  409.56   17.80
  -5  -4   3  439.96   18.10
   4   4  -3  419.96   17.40
   4   4  -3  396.96   17.60
   3   4  -3   66.29    3.20
   3   4  -3   59.39    3.40
   3   4  -3   64.99    3.30
   3   4  -3   64.89    3.00
   2   4  -3   14.60    1.20
   2   4  -3   15.20    1.50
   2   4  -3   13.90    1.20
   2   4  -3   15.90    1.20
   2   4  -3   15.60    1.00
   1   4  -3  657.13   28.20
   1   4  -3  702.23   28.50
   1   4  -3  711.53   28.50
   1   4  -3  678.53   28.50
   1   4  -3  705.03   28.90
   0   4  -3  174.28    7.30
   0   4  -3  170.28    7.80
   0   4  -3  180.18    7.50
   0   4  -3  171.88    7.50
   0  -4   3  173.98    7.50
  -1   4  -3   10.00    0.80
  -1   4  -3    9.60    0.90
  -1   4  -3   10.40    1.00
   1  -4   3    9.40    0.90
  -2   4  -3  506.55   21.70
  -2   4  -3  533.05   21.80
  -2   4  -3  534.95   21.50
   2  -4   3  519.75   21.80
  -3   4  -3  288.67   11.90
  -3   4  -3  282.47   12.00
   3  -4   3  272.27   12.10
  -4   4  -3   34.20    1.70
  -4   4  -3   40.60    2.30
  -4   4  -3   35.50    2.00
   4  -4   3   43.30    2.40
  -5   4  -3  942.11   40.80
  -5   4  -3  951.70   40.20
  -5   4  -3 1083.19   40.50
   5  -4   3  968.00   41.00
  -6   4  -3   32.20    1.70
  -6   4  -3   32.20    2.40
   6  -4   3   34.60    2.50
  -7   4  -3   25.00    1.50
  -7   4  -3   23.10    2.20
   7  -4   3   22.60    2.20
  -8   4  -3  130.79    5.80
  -8   4  -3  138.79    6.40
   8  -4   3  123.29    6.80
  -9   4  -3  225.18    9.60
  -9   4  -3  235.08   10.40
  -9   4  -3  223.48    9.80
 -10   4  -3    2.90    0.60
 -10   4  -3    3.90    1.20
 -11   4  -3   29.60    2.50
 -11   4  -3   31.10    1.70
 -12   4  -3   39.50    2.60
 -12   4  -3   43.00    2.00
  11   3  -3    6.00    0.70
  10   3  -3   30.30    2.00
 -10  -3   3   32.70    2.10
   9   3  -3   29.40    2.00
  -9  -3   3   24.20    2.10
   8   3  -3  138.19    6.50
  -8  -3   3  144.49    6.80
   7   3  -3  267.67   11.70
  -7  -3   3  272.07   11.90
   6   3  -3  210.98   10.20
  -6  -3   3  213.28    9.50
   5   3  -3  226.78   10.10
   5   3  -3  235.28   10.60
   4   3  -3  164.08    7.50
   4   3  -3  173.08    7.80
   3   3  -3  152.88    7.20
   3   3  -3  146.79    6.60
   3   3  -3  143.79    6.60
   3   3  -3  151.68    6.80
  -3  -3   3  154.68    7.00
   2   3  -3  346.27   14.50
   2   3  -3  343.47   14.80
   2   3  -3  358.06   14.40
   2   3  -3  346.27   14.40
  -2  -3   3  327.97   14.60
   1   3  -3  394.76   17.50
   1   3  -3  408.66   17.50
   1   3  -3  432.06   17.80
   1   3  -3  442.66   17.50
  -1  -3   3  423.66   17.40
  -1  -3   3  433.96   17.70
   0   3  -3  127.09    6.00
   0   3  -3  131.19    5.70
   0   3  -3  130.89    5.60
   0   3  -3  134.19    5.90
   0   3  -3  135.79    5.70
   0  -3   3  128.59    5.60
   0  -3   3  136.79    5.80
  -1   3  -3   59.39    2.90
  -1   3  -3   61.49    2.90
  -1   3  -3   65.69    2.80
  -1   3  -3   60.59    2.80
   1  -3   3   58.69    2.80
   1  -3   3   60.69    2.80
  -2   3  -3  110.59    4.70
  -2   3  -3  105.59    4.60
  -2   3  -3  101.29    4.40
  -2   3  -3  102.89    4.70
   2  -3   3  106.49    4.80
   2  -3   3  105.69    4.60
  -3   3  -3   73.89    3.20
  -3   3  -3   85.79    3.50
  -3   3  -3   76.89    3.60
   3  -3   3   78.89    3.80
   3  -3   3   77.09    3.40
  -4   3  -3 1116.79   45.60
  -4   3  -3 1045.10   45.20
   4  -3   3 1212.38   45.90
   4  -3   3 1072.69   45.40
  -5   3  -3    0.70    0.50
  -5   3  -3    0.90    0.30
   5  -3   3    1.00    0.40
   5  -3   3    1.70    0.70
  -6   3  -3   13.80    1.50
  -6   3  -3   12.10    0.90
   6  -3   3   12.40    1.50
  -7   3  -3   83.49    3.70
  -7   3  -3   80.59    4.60
   7  -3   3   77.79    4.60
  -8   3  -3   26.00    2.10
  -8   3  -3   21.80    1.60
   8  -3   3   27.30    2.50
  -9   3  -3   18.10    1.40
  -9   3  -3   16.00    1.20
  -9   3  -3   15.00    1.90
 -10   3  -3    5.40    1.30
 -10   3  -3    5.70    0.70
 -11   3  -3   14.50    1.70
 -11   3  -3   14.20    1.20
 -12   3  -3   42.60    2.00
 -12   3  -3   44.90    2.70
  11   2  -3   14.90    1.30
 -11  -2   3   15.30    1.40
  10   2  -3    1.20    0.70
 -10  -2   3    0.50    0.80
   9   2  -3   35.00    2.30
  -9  -2   3   34.10    2.60
   8   2  -3  107.19    4.90
  -8  -2   3   93.99    5.10
   7   2  -3    4.30    0.90
  -7  -2   3    9.30    1.30
  -6  -2   3  241.98   10.70
   5   2  -3    4.50    0.80
   5   2  -3    3.80    0.90
   4   2  -3  712.93   29.00
   4   2  -3  737.63   28.90
   4   2  -3  656.33   29.30
   3   2  -3 1450.55   58.99
   3   2  -3 1468.55   59.49
   3   2  -3 1430.16   58.99
   3   2  -3 1471.25   59.19
  -3  -2   3 1405.76   59.29
   2   2  -3    0.80    0.30
   2   2  -3    3.70    0.70
   2   2  -3    1.40    0.40
   2   2  -3    1.00    0.30
   2   2  -3    1.10    0.40
  -2  -2   3    3.50    0.60
  -2  -2   3    1.30    0.50
   1   2  -3    7.70    0.80
   1   2  -3    7.40    0.70
   1   2  -3    6.70    0.60
  -1  -2   3    7.40    0.70
  -1  -2   3    6.80    0.70
   0   2  -3 1167.38   49.60
   0   2  -3 1185.48   49.90
   0   2  -3 1251.07   49.40
   0   2  -3 1269.07   49.50
   0   2  -3 1177.08   49.50
   0  -2   3 1251.77   50.09
   0  -2   3 1236.28   49.60
   0  -2   3 1168.68   49.40
  -1   2  -3  107.89    4.80
  -1   2  -3  117.79    4.90
  -1   2  -3  119.39    4.80
  -1   2  -3  110.19    4.80
  -1   2  -3  110.59    4.70
   1  -2   3  108.29    4.90
   1  -2   3  119.99    4.70
   1  -2   3  113.89    4.70
  -2   2  -3  114.09    5.10
  -2   2  -3  119.19    5.10
  -2   2  -3  123.49    5.00
  -2   2  -3  115.89    4.90
   2  -2   3  121.99    5.00
   2  -2   3  123.39    5.30
   2  -2   3  110.39    4.90
  -3   2  -3  856.01   32.70
  -3   2  -3  813.92   32.50
  -3   2  -3  727.83   32.70
   3  -2   3  770.52   32.60
   3  -2   3  779.72   32.70
   3  -2   3  835.32   32.90
  -4   2  -3  279.67   11.70
  -4   2  -3  261.27   12.00
   4  -2   3  281.87   12.30
   4  -2   3  310.97   12.00
  -5   2  -3   54.19    2.60
  -5   2  -3   63.89    3.30
   5  -2   3   56.39    3.30
   5  -2   3   63.39    3.10
  -6   2  -3  270.67   11.00
  -6   2  -3  259.97   11.70
   6  -2   3  233.38   11.40
   6  -2   3  290.77   11.90
  -7   2  -3  660.03   29.10
  -7   2  -3  710.53   28.20
   7  -2   3  677.63   29.20
   7  -2   3  696.03   28.90
  -8   2  -3   34.20    1.90
  -8   2  -3   34.80    2.40
   8  -2   3   30.60    2.70
  -9   2  -3   18.10    1.40
  -9   2  -3   17.30    1.90
  -9   2  -3   17.20    1.30
   9  -2   3   17.00    1.60
 -10   2  -3   24.20    2.20
 -10   2  -3   22.90    1.50
  10  -2   3   19.90    1.70
 -11   2  -3   45.30    2.30
 -11   2  -3   43.90    2.90
  11  -2   3   49.40    2.60
 -12   2  -3   57.89    3.10
 -12   2  -3   55.69    2.50
  11   1  -3   78.29    3.90
 -11  -1   3   79.39    4.00
  10   1  -3   54.29    3.10
 -10  -1   3   60.19    3.40
   9   1  -3   32.60    2.30
  -9  -1   3   34.00    2.60
   8   1  -3   17.30    1.70
  -8  -1   3   21.10    2.00
   7   1  -3   14.00    1.40
  -7  -1   3   11.50    1.50
   6   1  -3  219.88   10.10
   5   1  -3  280.07   11.70
   5   1  -3  248.28   11.20
   4   1  -3  735.83   31.70
   4   1  -3  811.92   31.40
   4   1  -3  801.52   31.10
  -4  -1   3  734.73   31.40
  -4  -1   3  694.73   31.00
   3   1  -3  503.25   20.40
   3   1  -3  479.65   20.20
   3   1  -3  486.45   20.20
  -3  -1   3  496.55   20.50
  -3  -1   3  480.85   20.50
   2   1  -3   33.70    1.60
   2   1  -3   29.60    1.70
   2   1  -3   30.00    1.60
   2   1  -3   33.90    1.70
   2   1  -3   31.60    1.80
  -2  -1   3   29.70    1.70
   1   1  -3  547.25   22.50
   1   1  -3  521.95   22.50
   1   1  -3  545.45   22.40
   1   1  -3  528.25   22.40
   1   1  -3  565.74   22.40
  -1  -1   3  544.15   22.40
  -1  -1   3  570.84   22.40
   0   1  -3  721.73   28.20
   0   1  -3  691.73   28.20
   0   1  -3  685.93   28.20
   0   1  -3  650.73   28.30
   0   1  -3  701.43   28.20
  -1   1  -3   60.29    2.60
  -1   1  -3   59.89    2.70
  -2   1  -3  173.78    7.40
  -2   1  -3  177.68    7.70
  -2   1  -3  177.98    7.40
  -2   1  -3  190.78    7.40
   2  -1   3  169.68    7.50
  -3   1  -3   93.29    4.10
  -3   1  -3   98.29    4.40
  -3   1  -3   90.99    4.40
  -3   1  -3  107.29    4.60
   3  -1   3  102.89    4.30
   3  -1   3   94.39    4.30
  -4   1  -3  106.59    5.10
  -4   1  -3  109.79    5.00
   4  -1   3  104.19    4.90
  -5   1  -3   98.99    4.80
  -5   1  -3   86.59    4.10
   5  -1   3  103.19    4.60
   5  -1   3   94.59    4.80
  -6   1  -3  270.97   11.60
  -6   1  -3  291.97   12.40
   6  -1   3  264.67   12.10
   6  -1   3  282.17   12.40
  -7   1  -3   85.09    4.80
  -7   1  -3   91.69    3.90
   7  -1   3   78.89    4.60
   7  -1   3   78.09    4.50
  -8   1  -3   68.89    3.80
  -8   1  -3   68.99    3.30
  -8   1  -3   65.19    3.30
   8  -1   3   69.89    3.40
   8  -1   3   65.89    4.20
  -9   1  -3   79.79    4.30
  -9   1  -3   98.79    4.70
  -9   1  -3   75.89    3.80
  -9   1  -3   70.39    3.60
   9  -1   3   68.69    3.90
 -10   1  -3   95.69    4.90
 -10   1  -3   87.09    4.10
  10  -1   3   90.39    4.50
 -11   1  -3   16.00    1.10
 -11   1  -3   16.80    1.70
  11  -1   3   14.70    1.40
 -12   1  -3  154.38    7.00
  12  -1   3  162.38    6.90
  12   0  -3    4.20    0.70
 -12   0   3    3.90    0.80
  11   0  -3   79.69    3.90
 -11   0   3   78.39    4.10
  10   0  -3   16.90    1.70
 -10   0   3   19.50    2.00
   9   0  -3   41.00    2.50
  -9   0   3   38.00    2.80
   8   0  -3   11.10    1.30
  -8   0   3    8.40    0.70
  -8   0   3   13.30    1.50
  -7   0   3   20.00    1.60
   6   0  -3   19.50    1.80
   5   0  -3   97.59    4.50
   5   0  -3  102.19    4.90
   4   0  -3   58.49    3.30
   4   0  -3   52.19    2.90
   4   0  -3   57.49    2.70
  -4   0   3   58.19    2.70
  -4   0   3   59.09    3.10
   3   0  -3   62.39    3.00
   3   0  -3   59.29    2.70
   3   0  -3   57.59    2.70
   3   0  -3   60.89    3.20
  -3   0   3   59.79    3.00
  -3   0   3   57.19    2.70
  -3   0   3   57.89    2.90
   2   0  -3  598.54   24.40
   2   0  -3  579.24   24.60
   2   0  -3  596.14   24.70
   2   0  -3  616.54   24.60
   2   0  -3  641.04   24.80
  -2   0   3  578.04   24.70
  -2   0   3  586.74   24.70
   1   0  -3    5.70    0.50
   1   0  -3    4.70    0.50
   1   0  -3    5.30    0.50
   1   0  -3    5.70    0.50
   1   0  -3    4.60    0.50
   1   0  -3    5.00    0.40
  -1   0   3    5.90    0.40
   0   0  -3  558.44   22.60
   0   0  -3  536.05   22.60
   0   0  -3  540.65   22.60
   0   0  -3  571.24   22.50
  -1   0  -3 1441.46   58.29
  -1   0  -3 1435.66   58.59
  -1   0  -3 1425.16   59.09
  -1   0  -3 1375.96   58.49
   1   0   3 1489.25   58.99
  -2   0  -3 1112.89   50.79
  -2   0  -3 1180.58   50.49
  -2   0  -3 1348.97   51.19
   2   0   3 1332.27   50.89
  -3   0  -3    2.30    0.60
  -3   0  -3    2.50    0.50
  -3   0  -3    3.10    0.60
   3   0   3    2.90    0.50
   3   0   3    3.80    0.60
  -4   0  -3  289.57   12.20
  -4   0  -3  301.47   12.80
  -4   0  -3  309.17   12.90
   4   0   3  296.27   12.30
   4   0   3  289.87   12.70
  -5   0  -3  870.01   36.80
  -5   0  -3  921.01   36.80
  -5   0  -3  884.41   36.10
   5   0   3  856.61   36.60
  -6   0  -3   75.49    3.50
  -6   0  -3   80.39    4.40
   6   0   3   73.59    4.20
   6   0   3   77.79    4.20
  -7   0  -3   93.39    4.10
  -7   0  -3   82.39    5.00
  -7   0  -3   90.89    4.50
   7   0   3   83.99    4.90
  -8   0  -3   20.70    1.40
  -8   0  -3   24.30    1.60
  -8   0  -3   19.50    1.90
   8   0   3   24.70    1.80
  -9   0  -3  182.98    8.90
  -9   0  -3  178.38    8.40
  -9   0  -3  190.18    7.70
   9   0   3  171.38    8.10
 -10   0  -3   61.79    2.90
 -10   0  -3   58.59    3.50
  10   0   3   63.29    3.40
 -11   0  -3   47.50    2.80
 -11   0  -3   48.10    2.20
  11   0   3   44.10    2.60
  12   0   3    2.70    0.60
  12  -1  -3   52.59    2.80
 -12   1   3   57.19    3.00
  11  -1  -3   35.90    2.20
 -11   1   3   31.00    2.40
  10  -1  -3  372.36   16.10
 -10   1   3  383.46   16.40
   9  -1  -3   38.60    2.50
  -9   1   3   44.60    2.90
   8  -1  -3   33.20    2.20
  -8   1   3   36.00    1.80
  -8   1   3   35.30    2.50
   7  -1  -3   68.29    4.30
  -7   1   3   92.19    4.30
   6  -1  -3  299.07   13.10
   5  -1  -3  179.68    7.90
   5  -1  -3  188.88    8.30
   4  -1  -3  118.49    5.10
   4  -1  -3  120.29    5.40
   4  -1  -3  118.79    5.70
   4  -1  -3  111.19    5.20
  -4   1   3  113.39    5.40
  -4   1   3  112.79    5.40
  -4   1   3  123.59    5.10
   3  -1  -3   30.10    1.60
   3  -1  -3   26.90    1.60
   3  -1  -3   30.10    1.90
   3  -1  -3   30.90    1.50
  -3   1   3   30.10    1.70
  -3   1   3   31.80    1.70
  -3   1   3   27.10    1.50
   2  -1  -3 1176.58   47.70
   2  -1  -3 1155.28   47.50
  -2   1   3 1154.38   47.60
  -2   1   3 1183.88   47.90
  -2   1   3 1155.18   47.50
   1  -1  -3    7.80    0.60
   1  -1  -3    8.70    0.60
   1  -1  -3    8.80    0.60
   1  -1  -3    9.00    0.70
   1  -1  -3    9.20    0.70
  -1   1   3    8.80    0.60
  -1   1   3    8.40    0.60
  -1   1   3   10.20    0.60
   0  -1  -3   80.59    3.30
   0  -1  -3   61.29    3.10
   0  -1  -3   76.89    3.20
   0   1   3   75.49    3.10
  -1  -1  -3 1250.77   48.80
  -1  -1  -3 1212.98   48.50
  -1  -1  -3 1166.18   48.50
   1   1   3 1160.88   48.40
   1   1   3 1145.49   48.30
  -2  -1  -3 2619.84  105.39
  -2  -1  -3 2552.84  104.89
  -2  -1  -3 2386.06  103.89
   2   1   3 2666.13  105.49
  -3  -1  -3  328.87   15.00
  -3  -1  -3  375.26   15.00
   3   1   3  357.36   14.90
  -4  -1  -3  717.03   29.60
  -4  -1  -3  752.92   29.60
  -4  -1  -3  707.93   29.00
   4   1   3  699.53   29.40
   4   1   3  666.83   29.10
  -5  -1  -3  118.99    6.10
  -5  -1  -3  121.09    6.10
  -5  -1  -3  137.39    5.40
   5   1   3  116.49    5.90
  -6  -1  -3   36.50    1.90
  -6  -1  -3   37.00    2.70
  -6  -1  -3   33.50    2.50
   6   1   3   30.60    2.40
  -7  -1  -3   14.50    1.50
  -7  -1  -3   14.00    1.40
  -7  -1  -3   15.10    1.20
  -8  -1  -3   85.89    4.10
  -8  -1  -3   91.89    5.10
  -8  -1  -3   82.89    3.90
  -8  -1  -3   85.29    4.50
   8   1   3   86.59    4.30
  -9  -1  -3  197.98    9.90
  -9  -1  -3  207.98    8.70
  -9  -1  -3  201.98    9.30
   9   1   3  214.58    9.20
 -10  -1  -3    9.20    1.30
 -10  -1  -3   10.00    1.80
 -10  -1  -3    9.70    0.80
  10   1   3    8.70    1.20
 -11  -1  -3    5.60    0.50
  11   1   3    4.70    0.80
  12  -2  -3   12.60    1.20
 -12   2   3   11.00    1.30
  11  -2  -3  105.99    5.00
 -11   2   3  104.09    5.30
  10  -2  -3   59.49    3.30
 -10   2   3   62.09    3.70
   9  -2  -3  108.89    5.10
  -9   2   3  103.49    5.40
  -9   2   3  107.99    4.60
   8  -2  -3  225.28    9.30
  -8   2   3  201.58    9.60
   7  -2  -3   70.09    4.00
   6  -2  -3    9.30    1.20
   5  -2  -3  610.44   26.00
   5  -2  -3  642.74   26.10
  -5   2   3  623.24   25.80
   4  -2  -3    5.30    0.60
   4  -2  -3    5.20    0.80
   4  -2  -3    5.10    0.70
  -4   2   3    5.30    0.80
  -4   2   3    4.60    0.80
  -4   2   3    5.00    0.60
   3  -2  -3  354.76   14.20
   3  -2  -3  339.27   14.30
   3  -2  -3  343.07   14.60
   3  -2  -3  360.56   14.40
  -3   2   3  339.77   14.40
  -3   2   3  325.67   14.20
  -3   2   3  328.67   14.40
   2  -2  -3  213.98    8.10
   2  -2  -3  199.88    8.20
   2  -2  -3  176.68    7.90
   2  -2  -3  177.88    8.10
  -2   2   3  194.68    8.10
  -2   2   3  186.08    8.00
  -2   2   3  178.88    8.10
   1  -2  -3 2459.85  104.79
   1  -2  -3 2422.06  103.89
   1  -2  -3 2453.65  103.99
   1  -2  -3 2537.35  103.99
  -1   2   3 2673.23  104.49
  -1   2   3 2617.04  103.89
  -1   2   3 2577.64  103.89
   0  -2  -3   18.60    1.20
   0  -2  -3   18.40    1.10
   0  -2  -3   16.30    1.10
   0  -2  -3   18.70    1.10
   0   2   3   18.60    1.10
   0   2   3   18.50    1.00
   0   2   3   17.60    1.00
  -1  -2  -3 2142.59   85.39
  -1  -2  -3 2141.09   84.79
  -1  -2  -3 2070.39   84.29
   1   2   3 1914.61   84.69
   1   2   3 2073.39   84.29
  -2  -2  -3   43.80    2.40
  -2  -2  -3   50.69    2.60
   2   2   3   48.80    2.40
   2   2   3   45.40    2.00
  -3  -2  -3  490.35   19.60
  -3  -2  -3  496.65   19.60
  -3  -2  -3  430.46   19.00
   3   2   3  439.76   19.40
  -4  -2  -3  442.86   17.70
  -4  -2  -3  427.56   18.30
  -4  -2  -3  425.46   18.40
   4   2   3  424.96   17.90
   4   2   3  424.46   18.20
  -5  -2  -3  178.68    8.00
  -5  -2  -3  183.58    8.80
  -5  -2  -3  194.08    8.90
   5   2   3  198.88    8.80
  -6  -2  -3    3.20    1.00
  -6  -2  -3    4.10    0.60
  -6  -2  -3    4.20    1.10
  -7  -2  -3   65.79    3.60
  -7  -2  -3   64.29    3.20
  -7  -2  -3   69.09    3.30
  -7  -2  -3   75.19    4.30
  -8  -2  -3   84.39    5.30
  -8  -2  -3   92.99    4.10
   8   2   3   96.79    4.60
  -9  -2  -3  150.98    8.00
  -9  -2  -3  166.38    6.90
   9   2   3  163.98    7.40
 -10  -2  -3   22.00    1.20
 -10  -2  -3   18.40    2.00
  10   2   3   22.30    1.70
  11   2   3   19.40    1.40
  12  -3  -3  170.08    7.40
 -12   3   3  169.68    7.70
  11  -3  -3  140.29    6.70
 -11   3   3  159.58    7.20
  10  -3  -3    9.60    1.20
 -10   3   3   11.30    1.60
   9  -3  -3    5.50    1.00
  -9   3   3    6.80    1.20
  -9   3   3    7.30    0.70
  -8   3   3  465.15   19.80
   7  -3  -3  236.68   10.70
   6  -3  -3   34.70    2.30
   6  -3  -3   36.40    2.30
  -6   3   3   32.70    2.00
   5  -3  -3    5.30    0.80
   5  -3  -3    4.90    0.90
  -5   3   3    6.30    0.80
   4  -3  -3    6.00    1.00
   4  -3  -3    4.30    0.70
   4  -3  -3    7.00    0.90
  -4   3   3    5.40    0.80
  -4   3   3    5.30    0.90
  -4   3   3    5.70    0.70
   3  -3  -3  230.68   10.40
   3  -3  -3  241.58   10.60
   3  -3  -3  248.28   10.70
  -3   3   3  258.57   10.60
  -3   3   3  257.47   10.60
  -3   3   3  238.08   10.40
   2  -3  -3  238.28   10.90
   2  -3  -3  249.68   10.80
   2  -3  -3  267.87   11.10
  -2   3   3  258.17   10.90
  -2   3   3  252.57   10.80
  -2   3   3  272.77   10.90
   1  -3  -3   80.09    3.60
   1  -3  -3   78.69    3.80
   1  -3  -3   82.59    3.80
  -1   3   3   79.29    3.60
  -1   3   3   84.69    3.80
  -1   3   3   77.09    3.70
   0  -3  -3  363.06   14.80
   0  -3  -3  352.46   14.80
   0   3   3  341.87   14.70
   0   3   3  350.86   14.70
   0   3   3  354.96   14.60
   0   3   3  336.37   14.40
  -1  -3  -3  202.58    8.90
  -1  -3  -3  202.08    8.90
   1   3   3  188.18    8.50
   1   3   3  220.98    8.90
   1   3   3  206.08    8.80
  -2  -3  -3   30.10    1.90
  -2  -3  -3   28.90    1.90
  -2  -3  -3   25.90    1.40
   2   3   3   30.90    1.90
   2   3   3   30.40    1.80
  -3  -3  -3   25.20    1.90
  -3  -3  -3   31.30    2.10
  -3  -3  -3   26.30    1.40
   3   3   3   24.40    1.80
  -4  -3  -3    8.70    1.30
  -4  -3  -3    8.80    0.80
  -4  -3  -3    9.10    1.40
   4   3   3    8.60    1.20
   4   3   3    8.80    1.00
  -5  -3  -3    3.70    0.60
  -5  -3  -3    3.50    1.10
  -5  -3  -3    3.40    0.90
   5   3   3    3.80    0.90
  -6  -3  -3   51.29    3.20
  -6  -3  -3   40.70    2.30
  -6  -3  -3   43.40    2.60
  -7  -3  -3   52.99    2.50
  -7  -3  -3   49.99    3.80
  -7  -3  -3   49.10    3.00
  -8  -3  -3  124.69    6.70
  -8  -3  -3  120.69    5.30
   8   3   3  120.89    5.80
  -9  -3  -3    2.90    0.60
  -9  -3  -3    3.00    1.20
   9   3   3    3.00    0.90
 -10  -3  -3    2.30    1.00
  10   3   3    2.90    0.70
  11   3   3   55.59    2.70
 -12   4   3   16.10    1.60
  11  -4  -3   40.70    2.50
 -11   4   3   49.10    3.00
  10  -4  -3   17.40    1.60
 -10   4   3   19.30    2.00
   9  -4  -3  129.69    6.20
  -9   4   3  138.89    6.60
  -9   4   3  140.89    5.80
  -8   4   3   35.70    2.40
   7  -4  -3    3.20    1.00
   7  -4  -3    4.90    1.00
   6  -4  -3   21.30    1.70
   6  -4  -3   17.20    1.70
  -6   4   3   21.80    1.50
   5  -4  -3    3.20    0.70
   5  -4  -3    3.10    0.80
  -5   4   3    5.90    0.80
   4  -4  -3  696.63   25.60
   4  -4  -3  613.14   25.70
   4  -4  -3  569.34   25.20
  -4   4   3  564.64   25.40
  -4   4   3  602.04   25.20
   3  -4  -3  561.94   21.90
   3  -4  -3  506.75   22.10
   3  -4  -3  531.15   22.20
  -3   4   3  517.85   21.90
  -3   4   3  512.95   22.10
  -3   4   3  531.35   22.10
   2  -4  -3   96.29    4.50
   2  -4  -3   89.09    4.10
   2  -4  -3   91.59    4.40
  -2   4   3   92.39    4.10
  -2   4   3   84.89    4.30
  -2   4   3   89.09    4.30
   1  -4  -3   26.10    1.60
   1  -4  -3   27.00    1.80
  -1   4   3   27.10    1.50
  -1   4   3   27.60    1.70
  -1   4   3   26.50    1.70
   0  -4  -3   31.30    2.00
   0  -4  -3   34.30    2.10
   0   4   3   31.30    2.00
   0   4   3   32.90    1.70
   0   4   3   32.40    1.80
  -1  -4  -3  653.33   26.90
  -1  -4  -3  641.44   26.30
  -1  -4  -3  619.34   26.80
   1   4   3  646.04   26.30
   1   4   3  624.74   26.90
   1   4   3  664.93   26.60
  -2  -4  -3  271.27   12.20
  -2  -4  -3  266.67   12.10
  -2  -4  -3  280.97   11.50
   2   4   3  292.57   12.00
   2   4   3  269.07   12.20
  -3  -4  -3  872.91   35.50
  -3  -4  -3  815.72   35.60
  -3  -4  -3  823.52   34.70
   3   4   3  846.82   35.60
   3   4   3  862.31   35.10
   3   4   3  873.21   35.40
  -4  -4  -3   37.20    1.90
  -4  -4  -3   34.60    2.70
  -4  -4  -3   35.70    2.60
   4   4   3   34.90    2.20
   4   4   3   38.30    2.60
   4   4   3   35.80    2.70
  -5  -4  -3   48.80    2.50
  -6  -4  -3   27.00    2.70
  -6  -4  -3   27.80    1.60
  -6  -4  -3   26.00    2.00
  -7  -4  -3  193.18    8.30
  -7  -4  -3  195.28    8.80
  -7  -4  -3  200.38    9.70
  -8  -4  -3   10.90    1.80
  -8  -4  -3   10.30    0.90
   8   4   3   10.80    1.30
  -9  -4  -3    7.10    1.40
  -9  -4  -3    8.50    0.70
   9   4   3    8.90    1.10
  10   4   3   14.40    1.20
 -12   5   3  113.49    5.40
 -11   5   3    1.10    0.90
 -10   5   3  130.99    6.40
  -9   5   3   44.90    2.70
  -9   5   3   36.90    1.90
  -8   5   3  131.59    5.60
  -8   5   3  128.79    6.20
   7  -5  -3   70.79    4.10
   6  -5  -3   15.70    1.70
  -6   5   3   17.40    1.40
   5  -5  -3  230.38   10.70
  -5   5   3  247.88   10.40
   4  -5  -3   10.60    1.00
   4  -5  -3   12.80    1.40
  -4   5   3   11.00    1.10
   3  -5  -3  132.69    6.30
   3  -5  -3  132.69    5.80
   3  -5  -3  123.99    6.20
  -3   5   3  133.49    6.20
  -3   5   3  130.89    5.90
   2  -5  -3  623.04   25.00
   2  -5  -3  596.54   25.30
   2  -5  -3  583.74   25.40
  -2   5   3  593.54   25.30
  -2   5   3  617.34   25.00
   1  -5  -3    1.80    0.60
   1  -5  -3    2.10    0.40
   1  -5  -3    2.70    0.70
  -1   5   3    2.10    0.70
  -1   5   3    2.00    0.50
  -1   5   3    2.70    0.50
   0  -5  -3  281.27   12.30
   0  -5  -3  292.37   12.30
   0  -5  -3  268.97   11.60
   0   5   3  282.47   11.90
   0   5   3  273.97   11.80
   0   5   3  278.37   12.30
  -1  -5  -3  683.23   29.20
  -1  -5  -3  714.43   28.40
  -1  -5  -3  702.33   29.10
   1   5   3  668.53   29.20
   1   5   3  717.53   28.50
   1   5   3  671.63   28.80
  -2  -5  -3  108.19    5.80
  -2  -5  -3  125.99    5.80
  -2  -5  -3  115.49    5.10
   2   5   3  116.89    5.60
   2   5   3  112.89    5.90
  -3  -5  -3    3.70    0.60
  -3  -5  -3    2.90    0.90
   3   5   3    3.80    0.80
   3   5   3    3.70    0.90
  -4  -5  -3   19.10    1.30
  -4  -5  -3   18.90    2.20
   4   5   3   16.10    1.40
  -5  -5  -3  422.96   17.70
  -5  -5  -3  416.26   18.50
  -5  -5  -3  410.06   17.20
  -6  -5  -3  155.58    6.60
  -6  -5  -3  152.78    7.10
  -6  -5  -3  150.38    7.90
  -7  -5  -3   55.79    2.60
  -7  -5  -3   57.19    4.00
   7   5   3   51.39    3.00
  -8  -5  -3   43.20    2.00
  -8  -5  -3   41.90    3.20
   8   5   3   42.70    2.50
  -9  -5  -3    1.20    0.80
   9   5   3    1.50    0.60
 -12   6   3   46.80    2.70
 -11   6   3    7.30    1.20
 -10   6   3    2.00    1.00
  -9   6   3  124.29    6.20
  -9   6   3  133.59    5.50
   8  -6  -3   37.10    3.00
  -8   6   3   32.40    2.20
  -8   6   3   39.40    1.80
   7  -6  -3  197.38    9.50
  -7   6   3  195.78    8.90
   6  -6  -3  183.48    8.50
  -6   6   3  164.68    7.90
   5  -6  -3 1828.42   72.19
  -5   6   3 1670.83   71.69
   4  -6  -3   25.00    2.10
  -4   6   3   25.30    1.80
   3  -6  -3   35.10    2.40
  -3   6   3   27.70    1.90
   2  -6  -3  377.66   16.40
  -2   6   3  379.96   16.00
   1  -6  -3   76.29    3.60
   1  -6  -3   83.99    4.40
  -1   6   3   83.89    3.90
   0  -6  -3    1.20    0.70
   0  -6  -3    1.50    0.40
   0   6   3    1.40    0.50
   0   6   3    1.60    0.60
  -1  -6  -3   35.40    1.90
  -1  -6  -3   36.10    2.50
   1   6   3   35.40    2.30
  -2  -6  -3  134.69    6.70
  -2  -6  -3  131.59    5.90
   2   6   3  130.69    6.40
   2   6   3  142.69    6.40
  -3  -6  -3  289.37   13.00
   3   6   3  281.67   12.10
  -4  -6  -3    6.40    1.40
  -4  -6  -3    6.30    0.70
  -4  -6  -3    8.00    1.10
   4   6   3    6.30    0.90
  -5  -6  -3  422.26   17.90
  -5  -6  -3  421.96   18.80
  -5  -6  -3  418.46   17.40
  -6  -6  -3   13.10    2.00
  -6  -6  -3   17.40    1.20
  -7  -6  -3    2.30    1.20
  -7  -6  -3    2.70    0.50
   7   6   3    2.20    0.80
  -8  -6  -3   41.00    3.00
   8   6   3   42.00    2.40
  -9  -6  -3  179.48    8.60
   9   6   3  183.58    7.70
  -9   7   3  192.88    8.70
  -8   7   3   73.39    3.30
   7  -7  -3  281.57   12.70
  -7   7   3  285.17   11.90
  -7   7   3  249.78   12.00
  -7   7   3  270.27   11.30
   6  -7  -3 1025.90   45.30
  -6   7   3 1133.79   44.80
   5  -7  -3  251.97   11.50
  -5   7   3  240.68   10.90
   4  -7  -3   48.80    3.40
  -4   7   3   54.09    3.00
   3  -7  -3 1148.49   45.70
  -3   7   3 1038.80   45.10
   2  -7  -3   14.00    1.70
  -2   7   3   14.60    1.40
   1  -7  -3    2.90    1.00
  -1   7   3    3.30    0.80
   0  -7  -3   44.90    3.00
   0   7   3   42.40    2.50
  -1  -7  -3    5.70    1.20
   1   7   3    3.90    0.70
  -2  -7  -3   44.20    3.10
  -2  -7  -3   41.60    3.30
   2   7   3   42.00    2.40
  -3  -7  -3  245.78   10.40
  -3  -7  -3  256.47   11.80
   3   7   3  239.68   10.70
  -4  -7  -3   21.40    1.40
   4   7   3   17.50    1.60
  -5  -7  -3    9.80    0.90
  -5  -7  -3    9.10    1.80
  -5  -7  -3    8.90    1.30
  -6  -7  -3   20.40    1.20
  -6  -7  -3   17.90    2.50
   6   7   3   18.90    1.60
  -7  -7  -3   14.00    2.00
   7   7   3   13.60    1.30
  -8  -7  -3   47.50    2.90
   8   7   3   45.70    2.60
 -10   8   3    7.30    1.10
  -9   8   3    5.50    1.10
  -8   8   3  159.08    7.40
  -7   8   3  708.93   29.70
   6  -8  -3   22.70    2.50
  -6   8   3   22.10    2.00
  -6   8   3   19.50    1.80
   5  -8  -3  672.53   28.40
  -5   8   3  638.44   27.70
   4  -8  -3  471.65   20.20
  -4   8   3  441.06   19.50
   3  -8  -3  190.38    9.40
  -3   8   3  196.48    8.80
   2  -8  -3    7.30    1.50
  -2   8   3    8.00    1.20
   1  -8  -3  172.48    8.70
  -1   8   3  182.78    7.80
  -1   8   3  176.78    8.10
   0  -8  -3   68.29    4.20
   0   8   3   58.39    3.20
  -1  -8  -3    3.50    1.20
  -1  -8  -3    1.60    1.00
  -1  -8  -3    1.40    0.50
   1   8   3    3.70    0.80
  -2  -8  -3   95.89    5.60
  -2  -8  -3   99.29    4.30
   2   8   3   93.59    4.70
  -3  -8  -3  108.09    4.60
  -3  -8  -3  104.19    6.00
   3   8   3  103.79    5.10
  -4  -8  -3   23.00    2.80
  -4  -8  -3   27.30    1.50
   4   8   3   24.70    1.90
  -5  -8  -3   97.39    5.50
   5   8   3   89.49    4.50
  -6  -8  -3    9.20    1.60
  -7  -8  -3   31.20    2.30
 -10   9   3   42.80    2.70
  -9   9   3    5.80    1.20
  -8   9   3   59.19    3.50
  -7   9   3    2.00    0.90
  -6   9   3  408.26   17.50
  -5   9   3   43.60    2.70
   4  -9  -3  800.62   35.50
  -4   9   3  855.01   34.90
  -4   9   3  840.22   34.50
   3  -9  -3  632.54   27.70
  -3   9   3  642.24   26.60
  -3   9   3  636.84   27.00
  -3   9   3  645.94   26.70
   2  -9  -3  341.17   16.20
   2  -9  -3  362.16   14.80
   2  -9  -3  340.67   16.00
  -2   9   3  372.26   15.20
  -2   9   3  377.56   15.70
   1  -9  -3   86.99    5.00
   1  -9  -3   82.39    5.10
   1  -9  -3   92.59    3.80
  -1   9   3   80.29    4.50
  -1   9   3   84.99    4.20
   0  -9  -3   46.40    3.50
   0  -9  -3   44.80    2.20
   0   9   3   45.20    2.60
  -1  -9  -3  193.38    9.50
  -1  -9  -3  185.08    8.00
   1   9   3  193.98    8.50
  -2  -9  -3  425.16   19.20
  -2  -9  -3  420.66   17.60
   2   9   3  443.96   18.20
  -3  -9  -3    2.10    1.30
   3   9   3    1.80    0.80
  -4  -9  -3  265.87   12.40
   4   9   3  264.67   11.50
  -5  -9  -3   35.80    2.90
   5   9   3   32.90    2.10
  -6  -9  -3   13.20    1.70
 -11  10   3    8.20    1.00
 -10  10   3   25.90    2.10
  -9  10   3  156.68    7.40
  -8  10   3    0.20    0.90
  -7  10   3   30.10    2.40
  -6  10   3    0.80    0.90
  -5  10   3  640.14   26.90
  -4  10   3   36.40    2.40
  -3  10   3  758.22   31.40
   2 -10  -3   36.90    3.10
  -2  10   3   35.20    2.30
   1 -10  -3   54.09    4.00
  -1  10   3   57.29    3.10
   0 -10  -3   17.50    2.50
   0  10   3   18.90    1.70
  -1 -10  -3   31.00    3.00
   1  10   3   27.60    2.10
  -2 -10  -3    0.60    1.10
   2  10   3    0.50    0.80
  -3 -10  -3   19.10    2.50
   3  10   3   20.90    1.70
  -4 -10  -3   17.30    2.10
   4  10   3   14.50    1.40
  -5 -10  -3   12.40    1.60
 -11  11   3   26.00    1.60
 -10  11   3   71.09    3.70
  -9  11   3    3.80    1.10
  -8  11   3   44.90    3.00
  -7  11   3    6.60    1.30
  -6  11   3   37.90    2.70
  -5  11   3   49.00    3.00
  -4  11   3  535.15   22.60
  -3  11   3    1.50    0.80
   2 -11  -3   61.09    4.30
  -2  11   3   67.49    3.50
   1 -11  -3  334.97   15.20
  -1  11   3  330.57   14.30
   0 -11  -3  133.39    7.20
   0  11   3  140.29    6.40
  -1 -11  -3   52.59    3.80
   1  11   3   56.69    3.10
  -2 -11  -3  162.38    8.20
   2  11   3  170.18    7.40
  -3 -11  -3   18.60    2.10
   3  11   3   20.10    1.50
  -4 -11  -3   38.80    2.60
 -10  12   3    3.10    0.70
  -9  12   3   12.10    1.30
  -8  12   3   41.10    2.60
  -7  12   3    8.90    1.30
  -6  12   3    2.10    0.90
  -5  12   3  197.38    8.80
   2 -12  -3  149.79    7.80
  -2  12   3  161.58    7.10
   1 -12  -3   86.49    5.00
  -1  12   3   85.29    4.20
   0 -12  -3   81.19    4.90
   0  12   3   89.29    4.20
  -1 -12  -3    2.60    1.10
   1  12   3    3.20    0.80
  -2 -12  -3   43.50    2.90
   2  12   3   44.50    2.40
  -9  13   3    0.70    0.50
  -8  13   3   15.90    1.40
  -7  13   3    3.80    0.80
  -6  13   3   70.69    3.60
  -5  13   3   76.19    3.80
   2 -13  -3  130.19    6.50
  -2  13   3  133.89    5.90
   1 -13  -3    0.90    0.80
  -1  13   3    0.60    0.60
   0 -13  -3   31.20    2.30
   0  13   3   33.10    1.90
   2 -14   4  112.49    5.50
   3 -14   4   23.50    2.00
   4 -14   4  140.09    6.70
  -5  14  -4    6.50    0.80
   5 -14   4    6.10    1.10
  -6  14  -4    5.50    0.80
   6 -14   4    3.70    0.90
  -7  14  -4   67.39    3.40
   0 -13   4   17.60    1.80
   1 -13   4  142.69    7.00
   2 -13   4   65.29    4.00
  -3  13  -4   13.50    1.30
   3 -13   4    9.00    1.60
  -4  13  -4   64.49    3.30
   4 -13   4   59.29    4.10
  -5  13  -4  231.28   10.10
   5 -13   4  224.88   10.70
  -6  13  -4   94.69    4.60
   6 -13   4   89.29    5.40
  -7  13  -4  114.69    5.30
   7 -13   4  105.99    6.00
  -8  13  -4   26.20    1.80
   8 -13   4   24.00    3.30
  -9  13  -4    9.10    1.00
   2  12  -4    1.80    0.60
  -2 -12   4    1.20    0.80
   1  12  -4    5.10    0.90
  -1 -12   4    4.70    1.20
   0  12  -4   53.29    2.90
   0 -12   4   52.29    3.70
  -1  12  -4   24.00    1.80
   1 -12   4   21.30    2.60
   2 -12   4   18.40    2.40
  -3  12  -4   31.30    2.20
   3 -12   4   24.80    3.40
  -4  12  -4   12.50    1.50
   4 -12   4   12.40    2.70
  -5  12  -4   42.30    2.90
   5 -12   4   53.79    5.60
  -6  12  -4  405.56   16.50
   6 -12   4  358.86   18.00
  -7  12  -4   23.10    2.70
  -7  12  -4   26.00    2.10
  -8  12  -4   15.40    1.60
  -8  12  -4   11.10    1.70
  -9  12  -4    2.70    0.80
 -10  12  -4  118.19    5.50
   3  11  -4    2.80    0.70
  -3 -11   4    2.50    1.00
   2  11  -4   37.00    2.40
  -2 -11   4   41.20    3.10
   1  11  -4  112.99    5.40
  -1 -11   4  112.09    6.20
   0  11  -4   60.29    3.30
   0 -11   4   58.69    4.20
  -1  11  -4   13.60    1.40
   1 -11   4   11.80    2.20
  -2  11  -4    2.40    1.00
   2 -11   4    2.80    1.90
  -3  11  -4    5.50    1.20
   3 -11   4    6.90    2.80
  -4  11  -4  273.37   12.10
  -4  11  -4  274.27   13.30
  -5  11  -4   12.30    1.60
  -5  11  -4   14.50    2.50
  -6  11  -4    2.40    1.10
  -6  11  -4    2.00    1.70
  -7  11  -4  212.08   10.40
  -7  11  -4  201.68    9.40
  -8  11  -4   -0.80    1.30
  -8  11  -4    0.50    0.90
  -9  11  -4   23.90    3.20
  -9  11  -4   28.10    2.10
 -10  11  -4   17.50    1.50
   5  10  -4   11.40    1.20
   4  10  -4   24.80    1.70
  -4 -10   4   21.70    2.10
   3  10  -4   34.60    2.20
  -3 -10   4   30.20    2.80
   2  10  -4  115.49    5.40
  -2 -10   4  109.99    6.20
   1  10  -4   98.29    4.90
  -1 -10   4   95.69    5.70
   0  10  -4   11.00    1.40
   0 -10   4   14.00    2.20
  -1  10  -4  293.87   13.20
  -1  10  -4  302.27   13.10
   1 -10   4  316.67   14.40
  -2  10  -4   54.19    3.10
   2 -10   4   44.20    5.10
  -3  10  -4  146.49    6.90
  -3  10  -4  146.09    8.10
  -4  10  -4  161.68    7.70
  -4  10  -4  168.88    8.90
  -5  10  -4   49.20    2.70
  -5  10  -4   48.20    3.00
  -5  10  -4   46.80    4.40
  -6  10  -4   63.39    3.60
  -6  10  -4   58.89    4.70
  -6  10  -4   62.39    3.60
  -7  10  -4   -0.10    1.40
  -7  10  -4    1.20    0.90
  -8  10  -4  132.29    6.40
  -8  10  -4  135.49    5.90
  -8  10  -4  132.59    6.50
  -8  10  -4  134.89    7.40
  -9  10  -4   49.50    3.00
  -9  10  -4   47.90    3.00
  -9  10  -4   47.30    3.70
 -10  10  -4   46.20    2.80
 -11  10  -4    6.00    0.90
   5   9  -4   12.60    1.30
   4   9  -4    1.80    0.90
  -4  -9   4    2.10    1.10
   3   9  -4   12.50    1.50
  -3  -9   4   11.40    1.90
   2   9  -4  128.49    6.10
  -2  -9   4  126.89    6.90
   1   9  -4  327.27   14.20
  -1  -9   4  330.47   15.10
   0   9  -4   13.30    1.40
   0  -9   4   12.80    2.00
  -1   9  -4  219.58    9.60
  -1   9  -4  225.88    9.50
   1  -9   4  196.48   11.10
  -2   9  -4    1.60    1.40
  -2   9  -4    2.30    0.90
  -2   9  -4    1.90    0.90
  -3   9  -4  248.68   10.60
  -3   9  -4  249.48   11.30
  -3   9  -4  246.68   12.00
  -3   9  -4  248.18   10.90
  -4   9  -4   24.90    2.00
  -4   9  -4   27.70    2.30
  -4   9  -4   28.70    1.80
  -4   9  -4   26.40    3.10
  -5   9  -4   48.10    2.50
  -5   9  -4   46.90    2.90
  -5   9  -4   46.10    2.90
  -5   9  -4   45.10    2.40
  -5   9  -4   47.50    3.80
  -6   9  -4   79.89    3.70
  -6   9  -4   72.99    4.00
  -6   9  -4   72.89    4.00
  -6   9  -4   67.09    3.40
  -6   9  -4   79.59    5.00
  -7   9  -4    4.90    0.80
  -7   9  -4    4.60    0.70
  -7   9  -4    4.40    1.10
  -7   9  -4    5.70    1.20
  -7   9  -4    6.00    1.80
  -8   9  -4   42.90    2.30
  -8   9  -4   44.50    3.00
  -8   9  -4   43.20    2.40
  -8   9  -4   45.90    3.90
  -8   9  -4   42.80    2.80
  -9   9  -4   76.69    3.40
  -9   9  -4   73.09    4.10
  -9   9  -4   73.69    4.70
  -9   9  -4   63.09    3.80
 -10   9  -4    3.90    1.10
 -10   9  -4    3.50    0.60
 -11   9  -4    5.60    0.60
 -11   9  -4    4.80    1.00
   6   8  -4   67.39    3.40
   5   8  -4   32.00    2.20
   4   8  -4   58.79    3.40
  -4  -8   4   61.09    4.10
   3   8  -4    0.40    0.90
  -3  -8   4    2.20    1.20
   2   8  -4  419.56   17.20
  -2  -8   4  391.26   18.00
   1   8  -4   39.20    2.50
   1   8  -4   38.70    2.70
  -1  -8   4   49.20    3.20
   0   8  -4  191.48    8.70
   0   8  -4  186.38    8.30
   0   8  -4  190.88    8.10
   0  -8   4  173.48    9.50
  -1   8  -4   85.39    4.70
  -1   8  -4   94.09    4.20
  -1   8  -4   93.79    4.40
  -2   8  -4  233.58   11.70
  -2   8  -4  222.78   10.20
  -2   8  -4  221.28    9.60
  -3   8  -4   43.60    3.20
  -3   8  -4   42.10    2.80
  -3   8  -4   48.00    2.30
   3  -8   4   41.50    3.00
  -4   8  -4  168.58    8.70
  -4   8  -4  171.48    8.00
  -4   8  -4  186.58    7.70
  -4   8  -4  183.78    8.30
   4  -8   4  176.58    8.60
  -5   8  -4    5.80    1.10
  -5   8  -4   14.60    1.90
  -5   8  -4    5.00    1.10
  -5   8  -4    4.60    1.00
  -5   8  -4    7.60    0.90
   5  -8   4    7.10    1.50
  -6   8  -4   22.20    1.90
  -6   8  -4   20.10    1.90
  -6   8  -4   22.30    1.90
  -6   8  -4   24.70    2.60
  -6   8  -4   23.50    1.50
   6  -8   4   20.40    2.40
  -7   8  -4    4.60    0.80
  -7   8  -4    5.50    1.60
  -7   8  -4    6.20    1.10
  -7   8  -4    4.70    0.70
  -7   8  -4    5.80    1.20
  -8   8  -4   81.39    3.90
  -8   8  -4   80.09    4.40
  -8   8  -4   85.79    4.30
  -8   8  -4   73.99    3.70
  -8   8  -4   76.89    5.00
  -9   8  -4   97.99    5.10
  -9   8  -4   94.69    5.60
  -9   8  -4   88.29    4.40
  -9   8  -4   93.19    4.20
 -10   8  -4   42.50    2.90
 -10   8  -4   41.80    2.20
 -11   8  -4   88.69    4.50
 -11   8  -4   83.89    3.80
 -12   8  -4  154.18    7.10
 -12   8  -4  159.58    6.60
   6   7  -4    9.60    1.20
   5   7  -4   62.89    3.40
   4   7  -4   24.60    2.20
  -4  -7   4   43.50    2.80
   3   7  -4  183.68    8.40
   3   7  -4  176.48    8.90
  -3  -7   4  201.08    9.00
   1   7  -4   97.59    4.70
   1   7  -4  102.69    4.60
   1   7  -4   96.19    4.90
   0   7  -4  401.46   18.00
   0   7  -4  426.56   17.50
   0   7  -4  436.96   18.00
  -1   7  -4 1156.48   45.50
  -1   7  -4 1069.79   46.50
  -1   7  -4 1055.79   45.90
  -1   7  -4 1170.88   46.10
  -2   7  -4    7.30    1.10
  -2   7  -4    5.80    0.70
  -2   7  -4    6.40    1.30
   2  -7   4    6.10    1.10
  -3   7  -4  136.79    5.80
  -3   7  -4  133.29    6.30
  -3   7  -4  125.79    6.60
   3  -7   4  135.29    6.50
  -4   7  -4   38.20    2.80
  -4   7  -4   41.10    2.60
  -4   7  -4   40.90    2.10
   4  -7   4   40.60    2.80
  -5   7  -4  376.96   15.00
  -5   7  -4  377.36   15.60
  -5   7  -4  340.77   15.90
   5  -7   4  338.97   15.90
  -6   7  -4  156.58    7.60
  -6   7  -4  148.49    7.30
  -6   7  -4  170.88    6.90
   6  -7   4  157.28    8.00
  -7   7  -4  337.17   14.20
  -7   7  -4  329.87   13.70
  -7   7  -4  312.87   14.00
  -7   7  -4  319.97   14.70
   7  -7   4  324.37   15.00
  -8   7  -4   69.29    4.10
  -8   7  -4   47.00    3.10
  -8   7  -4   56.79    3.00
  -8   7  -4   60.69    3.60
  -9   7  -4   20.80    1.60
  -9   7  -4   24.80    2.60
  -9   7  -4   26.60    2.30
  -9   7  -4   24.10    1.60
 -10   7  -4   25.90    1.60
 -10   7  -4   25.20    2.30
 -11   7  -4    8.50    1.40
 -11   7  -4   10.30    0.90
 -12   7  -4   21.30    1.70
 -12   7  -4   19.20    1.20
  -7  -6   4    0.70    0.70
   6   6  -4  118.09    5.50
  -6  -6   4  114.49    5.70
   5   6  -4   46.50    2.70
  -5  -6   4   48.20    2.90
   4   6  -4  115.39    5.20
  -4  -6   4  105.49    5.30
   3   6  -4   50.19    3.00
   3   6  -4   49.90    2.70
   2   6  -4  251.07   10.60
   2   6  -4  245.08   10.90
   2   6  -4  252.87   11.10
   1   6  -4  146.69    6.70
   1   6  -4  139.59    7.30
   1   6  -4  150.48    6.80
   0   6  -4  674.43   28.70
   0   6  -4  695.63   27.80
   0   6  -4  655.53   28.20
   0   6  -4  681.63   28.20
  -1   6  -4  404.46   17.50
  -1   6  -4  396.96   17.10
  -1   6  -4  405.16   16.70
  -1   6  -4  407.56   17.00
  -2   6  -4  254.87   11.60
  -2   6  -4  273.47   11.30
  -2   6  -4  292.67   12.10
  -2   6  -4  267.87   11.80
   2  -6   4  272.77   11.90
  -3   6  -4   44.90    2.70
  -3   6  -4   39.20    2.40
  -3   6  -4   42.30    2.00
   3  -6   4   43.30    2.70
  -4   6  -4   55.09    2.60
  -4   6  -4   54.59    3.00
  -4   6  -4   57.59    3.30
   4  -6   4   56.89    3.40
  -5   6  -4   32.60    2.10
  -5   6  -4   31.60    2.40
  -5   6  -4   32.80    1.70
   5  -6   4   31.60    2.50
  -6   6  -4 1406.56   54.69
  -6   6  -4 1270.57   55.49
   6  -6   4 1336.97   55.79
  -7   6  -4   49.80    2.50
  -7   6  -4   46.00    2.90
   7  -6   4   46.30    3.50
  -8   6  -4   10.70    1.60
  -8   6  -4   10.90    1.10
  -9   6  -4    1.90    0.70
  -9   6  -4    1.80    0.60
  -9   6  -4    3.20    1.20
  -9   6  -4    2.10    1.10
 -10   6  -4   22.90    1.50
 -10   6  -4   17.90    1.50
 -10   6  -4   21.30    2.20
 -11   6  -4    4.50    1.20
 -11   6  -4    6.20    0.70
 -12   6  -4   71.09    3.20
 -12   6  -4   75.89    3.90
   9   5  -4   28.70    1.80
  -9  -5   4   29.60    1.90
   8   5  -4   19.20    1.60
  -8  -5   4   18.60    1.70
   7   5  -4  322.27   13.80
  -7  -5   4  322.07   14.00
   6   5  -4    7.10    1.10
  -6  -5   4    5.80    1.20
   5   5  -4  108.39    5.10
  -5  -5   4  105.29    5.30
   4   5  -4  149.19    6.70
  -4  -5   4  150.58    6.90
   3   5  -4    3.50    0.80
   2   5  -4    8.80    1.40
   2   5  -4    0.90    0.60
   2   5  -4    0.70    0.40
   2   5  -4    2.10    0.60
   1   5  -4  362.16   16.60
   1   5  -4  389.66   15.80
   1   5  -4  395.76   16.20
   1   5  -4  382.36   16.20
   0   5  -4  431.36   19.00
   0   5  -4  440.96   19.00
   0   5  -4  473.25   19.40
   0   5  -4  472.75   18.70
  -1   5  -4  145.89    6.50
  -1   5  -4  140.29    6.70
  -1   5  -4  144.89    6.20
  -1   5  -4  144.89    6.40
   1  -5   4  154.18    6.60
  -2   5  -4   15.10    1.20
  -2   5  -4   13.70    1.00
  -2   5  -4   14.50    1.30
  -2   5  -4   20.30    0.90
   2  -5   4   15.70    1.30
  -3   5  -4  453.15   18.70
  -3   5  -4  443.36   19.20
  -3   5  -4  471.95   19.10
   3  -5   4  452.65   19.30
  -4   5  -4   13.40    1.10
  -4   5  -4   11.10    0.70
  -4   5  -4   11.90    1.20
   4  -5   4   11.10    1.30
  -5   5  -4  103.79    4.70
  -5   5  -4   95.79    4.30
  -5   5  -4   94.89    5.00
   5  -5   4  107.09    5.20
  -6   5  -4   34.60    1.80
  -6   5  -4   37.60    2.60
   6  -5   4   36.50    2.70
  -7   5  -4    2.90    0.60
  -7   5  -4    3.30    1.00
  -7   5  -4    4.10    1.10
   7  -5   4    4.00    1.20
  -8   5  -4   42.70    2.20
  -8   5  -4   37.00    2.70
   8  -5   4   37.90    3.20
  -9   5  -4   56.19    3.50
  -9   5  -4   54.39    2.80
  -9   5  -4   51.99    2.90
  -9   5  -4   68.59    3.90
 -10   5  -4   18.40    1.50
 -10   5  -4   17.10    1.40
 -10   5  -4   22.70    2.20
 -11   5  -4   16.70    1.30
 -11   5  -4   17.00    2.00
 -12   5  -4    5.20    0.60
 -12   5  -4    5.00    1.10
  10   4  -4   16.60    1.20
   9   4  -4    1.50    0.70
  -9  -4   4    0.40    0.70
   8   4  -4   30.20    2.10
  -8  -4   4   30.60    2.30
   7   4  -4  343.27   15.10
  -7  -4   4  367.96   15.40
   6   4  -4  737.53   31.80
  -6  -4   4  798.32   32.10
   5   4  -4   50.39    2.70
  -5  -4   4   48.90    2.90
   4   4  -4   45.60    3.00
   4   4  -4   47.80    2.80
   3   4  -4   64.99    4.10
   3   4  -4   60.59    3.40
   3   4  -4   64.39    3.20
   3   4  -4   57.49    3.20
   3   4  -4   60.79    2.90
   2   4  -4   27.90    1.80
   2   4  -4   29.20    1.80
   2   4  -4   28.90    1.80
   2   4  -4   28.00    2.10
   1   4  -4   82.99    4.10
   1   4  -4   77.99    3.70
   1   4  -4   77.29    3.70
   1   4  -4   78.59    3.70
   1   4  -4   74.49    3.40
   0   4  -4  357.26   14.10
   0   4  -4  322.47   13.80
   0   4  -4  351.06   14.30
   0   4  -4  340.87   14.10
   0  -4   4  306.47   13.90
  -1   4  -4   87.09    4.00
  -1   4  -4   87.19    4.20
  -1   4  -4   89.49    4.10
   1  -4   4   87.99    4.00
  -2   4  -4  303.37   12.60
  -2   4  -4  290.27   12.80
  -2   4  -4  311.77   12.90
   2  -4   4  308.47   12.90
  -3   4  -4  443.26   18.30
  -3   4  -4  425.26   18.60
  -3   4  -4  467.85   18.80
   3  -4   4  456.55   18.90
  -4   4  -4  251.67   10.30
  -4   4  -4  227.78   10.00
  -4   4  -4  253.47   10.60
   4  -4   4  239.78   10.70
  -5   4  -4   16.00    0.90
  -5   4  -4   16.80    1.50
   5  -4   4   15.40    1.60
  -6   4  -4   46.50    2.90
  -6   4  -4   43.00    2.20
   6  -4   4   44.50    3.00
  -7   4  -4   19.60    2.00
  -7   4  -4   17.60    1.70
  -7   4  -4   20.80    1.30
   7  -4   4   18.50    2.10
  -8   4  -4  333.27   14.50
  -8   4  -4  337.57   13.90
  -8   4  -4  343.07   14.90
   8  -4   4  312.37   15.10
  -9   4  -4  382.56   17.00
  -9   4  -4  403.46   17.50
  -9   4  -4  371.06   16.30
  -9   4  -4  411.66   16.50
 -10   4  -4    5.60    1.30
 -10   4  -4    5.40    0.70
 -10   4  -4    4.40    0.80
 -10   4  -4    6.50    1.50
 -11   4  -4    0.40    0.90
 -11   4  -4    1.30    0.50
 -12   4  -4   70.69    3.10
 -12   4  -4   69.89    3.70
  10   3  -4    0.40    0.60
 -10  -3   4    0.50    0.70
   9   3  -4  195.78    8.70
  -9  -3   4  196.88    8.90
   8   3  -4  338.17   14.50
  -8  -3   4  336.87   14.70
   7   3  -4  237.08   10.50
  -7  -3   4  244.18   10.80
   6   3  -4   36.80    2.20
  -6  -3   4   36.50    2.40
   5   3  -4  148.39    6.70
   5   3  -4  137.99    7.00
   4   3  -4    2.30    0.50
   4   3  -4    2.20    0.70
   4   3  -4    2.40    0.80
   3   3  -4   33.70    2.60
   3   3  -4   42.20    2.40
   3   3  -4   43.80    2.00
   3   3  -4   41.40    2.20
   3   3  -4   39.60    2.20
  -3  -3   4   37.50    2.40
   2   3  -4  537.55   21.60
   2   3  -4  525.75   21.70
   2   3  -4  507.55   21.60
   2   3  -4  522.85   22.00
  -2  -3   4  511.65   21.90
   1   3  -4   12.50    1.00
   1   3  -4   11.80    1.10
   1   3  -4   11.50    0.90
  -1  -3   4   12.30    1.00
   0   3  -4   45.80    2.20
   0   3  -4   43.10    2.10
   0   3  -4   49.30    2.40
   0   3  -4   42.00    2.20
   0  -3   4   42.20    2.10
   0  -3   4   46.90    2.30
  -1   3  -4  398.96   17.40
  -1   3  -4  427.16   17.30
  -1   3  -4  397.26   17.10
  -1   3  -4  412.26   17.30
  -1   3  -4  458.95   17.40
   1  -3   4  399.26   17.30
   1  -3   4  448.06   17.30
   1  -3   4  405.06   17.30
  -2   3  -4  942.21   38.20
  -2   3  -4  933.51   38.20
  -2   3  -4  950.80   38.10
  -2   3  -4  852.21   38.20
   2  -3   4  927.01   38.00
   2  -3   4  992.60   38.40
   2  -3   4  940.11   38.20
  -3   3  -4  619.14   25.50
  -3   3  -4  642.34   25.60
   3  -3   4  610.34   25.80
   3  -3   4  603.94   25.30
  -4   3  -4   18.70    1.40
  -4   3  -4   18.50    1.00
   4  -3   4   21.60    1.20
   4  -3   4   21.50    1.60
  -5   3  -4   98.59    4.50
  -5   3  -4  110.39    5.10
   5  -3   4  111.69    5.40
  -6   3  -4   76.49    4.10
  -6   3  -4   76.59    3.40
   6  -3   4   72.39    4.20
  -7   3  -4  114.49    4.80
  -7   3  -4  103.09    5.60
  -7   3  -4  108.09    5.40
   7  -3   4  104.39    5.70
  -8   3  -4    1.80    0.60
  -8   3  -4    2.50    0.90
   8  -3   4    2.00    1.10
  -9   3  -4  172.98    8.00
  -9   3  -4  179.88    8.10
  -9   3  -4  192.48    8.80
  -9   3  -4  208.18    9.20
 -10   3  -4    6.70    1.30
 -10   3  -4    6.10    0.80
 -10   3  -4    7.60    1.50
 -10   3  -4    3.90    0.80
 -11   3  -4    2.80    0.60
 -12   3  -4    8.50    0.70
 -12   3  -4    8.00    1.20
  11   2  -4   23.20    1.50
 -11  -2   4   22.50    1.60
  10   2  -4   15.10    1.60
 -10  -2   4   18.70    1.80
   9   2  -4   -0.20    0.80
  -9  -2   4    1.50    1.00
   8   2  -4   33.30    2.30
  -8  -2   4   37.60    2.60
   7   2  -4    0.80    0.70
  -7  -2   4    0.70    0.80
  -6  -2   4    3.20    0.90
   5   2  -4  574.94   25.60
   5   2  -4  636.44   25.30
   4   2  -4  234.88   10.90
   4   2  -4  240.48   10.20
   4   2  -4  229.88   10.20
   4   2  -4  244.68   10.60
  -4  -2   4  237.58   10.60
   3   2  -4   56.39    2.80
   3   2  -4   58.79    3.00
   3   2  -4   55.59    3.20
   3   2  -4   55.29    2.80
   3   2  -4   60.39    2.60
  -3  -2   4   58.59    3.10
   2   2  -4   91.69    4.20
   2   2  -4   92.09    4.50
   2   2  -4   93.99    4.40
   2   2  -4   97.59    4.30
  -2  -2   4   95.09    4.40
   1   2  -4  725.13   29.30
   1   2  -4  752.62   29.50
   1   2  -4  706.03   29.30
   1   2  -4  697.73   29.40
   1   2  -4  736.33   29.30
  -1  -2   4  665.83   29.30
   0   2  -4   67.09    2.90
   0   2  -4   67.39    3.00
   0   2  -4   61.29    3.00
   0   2  -4   54.39    2.90
   0   2  -4   68.89    2.90
   0  -2   4   66.29    2.90
   0  -2   4   65.09    2.80
   0  -2   4   69.79    2.90
  -1   2  -4  129.99    5.20
  -1   2  -4  125.69    5.10
  -1   2  -4  116.89    5.10
  -1   2  -4  111.09    5.10
  -1   2  -4  122.49    5.20
   1  -2   4  121.39    5.30
  -2   2  -4 1593.14   68.29
  -2   2  -4 1769.72   68.59
  -2   2  -4 1597.54   68.09
  -2   2  -4 1708.63   68.19
   2  -2   4 1663.23   68.39
   2  -2   4 1718.03   68.39
  -3   2  -4   58.59    3.00
  -3   2  -4   62.89    2.90
  -3   2  -4   60.99    2.90
   3  -2   4   64.09    2.90
   3  -2   4   64.89    3.20
   3  -2   4   70.89    3.00
  -4   2  -4  207.18    8.50
   4  -2   4  207.48    8.80
   4  -2   4  173.58    8.40
  -5   2  -4  259.97   10.80
  -5   2  -4  254.57   10.20
   5  -2   4  220.98   10.50
   5  -2   4  243.88   11.00
  -6   2  -4  361.76   15.90
  -6   2  -4  410.86   16.70
   6  -2   4  373.76   16.80
   6  -2   4  391.56   16.50
  -7   2  -4    1.30    0.90
  -7   2  -4    1.70    0.80
  -7   2  -4    2.40    0.50
   7  -2   4    1.00    0.80
  -8   2  -4  131.79    6.60
  -8   2  -4  155.18    6.20
   8  -2   4  127.09    7.10
  -9   2  -4   22.40    1.50
  -9   2  -4   25.00    2.20
  -9   2  -4   31.70    2.80
  -9   2  -4   20.20    1.60
   9  -2   4   22.70    1.80
 -10   2  -4   62.99    3.60
 -10   2  -4   58.19    4.00
 -10   2  -4   60.39    2.90
  10  -2   4   54.99    3.10
 -11   2  -4  216.68    9.90
 -11   2  -4  221.98    9.20
 -12   2  -4   76.69    3.30
 -12   2  -4   75.89    3.80
  11   1  -4    1.90    0.70
 -11  -1   4    1.80    0.80
  10   1  -4  128.49    5.90
 -10  -1   4  123.69    6.10
   9   1  -4   38.60    2.50
  -9  -1   4   36.30    2.60
   8   1  -4   62.79    3.40
  -8  -1   4   64.79    3.70
   7   1  -4   11.40    1.30
  -7  -1   4   11.70    1.40
   6   1  -4    4.10    1.10
   5   1  -4  133.09    6.50
   5   1  -4  137.89    6.10
   4   1  -4   79.79    3.70
   4   1  -4   64.29    3.20
   4   1  -4   69.69    3.90
   4   1  -4   71.09    3.40
  -4  -1   4   69.49    3.70
  -4  -1   4   67.89    3.30
   3   1  -4  106.69    4.70
   3   1  -4   98.09    4.80
   3   1  -4  109.69    4.70
  -3  -1   4  102.99    4.90
   2   1  -4  178.88    7.50
   2   1  -4  170.98    7.60
   2   1  -4  170.08    7.60
   2   1  -4  181.58    7.80
  -2  -1   4  171.28    7.60
  -2  -1   4  188.08    7.70
   1   1  -4 1974.40   79.59
   1   1  -4 1732.43   80.29
   1   1  -4 2021.50   80.79
   1   1  -4 1965.90   80.29
   1   1  -4 2017.40   79.89
  -1  -1   4 2030.20   80.49
   0   1  -4  577.44   23.00
   0   1  -4  551.54   22.90
   0   1  -4  589.34   23.00
   0   1  -4  541.15   22.90
   0   1  -4  567.44   23.00
   0   1  -4  542.05   22.90
  -1   1  -4   16.80    1.10
  -1   1  -4   20.80    1.10
  -1   1  -4   18.00    1.00
  -1   1  -4   19.50    1.00
  -2   1  -4  500.25   20.60
  -2   1  -4  538.75   20.60
  -2   1  -4  506.45   21.00
  -2   1  -4  479.15   20.70
   2  -1   4  496.95   20.70
  -3   1  -4   93.79    4.00
  -3   1  -4   90.49    4.30
  -3   1  -4   86.99    3.80
  -3   1  -4   87.49    4.00
   3  -1   4   83.29    3.90
   3  -1   4   94.59    4.10
  -4   1  -4  211.48    9.30
  -4   1  -4  219.28    9.50
   4  -1   4  211.38    9.20
  -5   1  -4   33.60    2.20
  -5   1  -4   35.00    1.70
   5  -1   4   36.20    2.20
   5  -1   4   35.70    2.40
  -6   1  -4  117.59    5.60
  -6   1  -4  103.49    4.80
   6  -1   4  110.89    5.40
   6  -1   4  109.29    5.60
  -7   1  -4  525.65   20.60
  -7   1  -4  495.55   21.00
  -7   1  -4  493.05   21.60
   7  -1   4  519.45   21.70
   7  -1   4  450.95   21.30
  -8   1  -4   14.10    1.60
  -8   1  -4   12.40    1.10
   8  -1   4   12.30    1.90
   8  -1   4   12.50    1.30
  -9   1  -4    9.20    1.00
  -9   1  -4    9.70    1.80
  -9   1  -4    8.70    1.40
  -9   1  -4    9.30    0.90
   9  -1   4    7.40    1.10
 -10   1  -4    2.00    0.60
 -10   1  -4    1.90    1.00
 -10   1  -4    1.00    1.10
  10  -1   4    1.80    0.80
 -11   1  -4   74.29    3.90
 -11   1  -4   71.59    3.30
  11  -1   4   71.49    3.60
 -12   1  -4    6.30    0.50
  12  -1   4    7.10    0.80
  12   0  -4   34.90    1.90
  11   0  -4   30.60    2.10
 -11   0   4   33.00    2.20
  10   0  -4  172.08    8.00
 -10   0   4  182.68    8.30
   9   0  -4   12.70    1.40
  -9   0   4   14.70    1.70
   8   0  -4   31.70    2.10
  -8   0   4   27.90    2.30
  -7   0   4   29.50    2.10
   6   0  -4   16.50    1.70
   5   0  -4   44.70    2.60
   5   0  -4   38.40    2.20
   4   0  -4  111.09    5.40
   4   0  -4  114.79    5.10
   4   0  -4  119.39    5.70
   4   0  -4  110.49    5.00
  -4   0   4  110.39    5.40
  -4   0   4  124.39    5.10
   3   0  -4   49.40    2.40
   3   0  -4   51.29    2.60
   3   0  -4   43.80    2.70
  -3   0   4   52.49    3.10
  -3   0   4   47.40    2.50
  -3   0   4   48.70    2.40
   2   0  -4  126.99    5.80
   2   0  -4  125.29    5.50
   2   0  -4  137.59    6.00
   2   0  -4  136.59    5.70
   2   0  -4  147.09    5.90
  -2   0   4  126.79    5.80
  -2   0   4  134.49    5.80
   1   0  -4  423.06   16.60
   1   0  -4  407.26   16.50
   1   0  -4  395.36   16.60
   1   0  -4  389.66   16.50
   1   0  -4  390.46   16.60
   1   0  -4  382.76   16.40
  -1   0   4  414.76   16.40
   0   0  -4   21.30    1.20
   0   0  -4   18.90    1.10
   0   0  -4   21.70    1.10
   0   0  -4   19.50    0.90
  -1   0  -4 1063.29   45.60
  -1   0  -4 1147.99   45.60
  -1   0  -4 1152.88   45.80
  -1   0  -4 1113.49   45.70
  -2   0  -4 1238.58   50.79
  -2   0  -4 1180.28   50.49
  -2   0  -4 1232.08   50.39
  -2   0  -4 1255.47   50.49
   2   0   4 1292.37   50.59
  -3   0  -4    6.60    0.70
  -3   0  -4    6.00    0.80
   3   0   4    6.20    0.70
  -4   0  -4   60.79    3.40
  -4   0  -4   61.39    2.70
  -4   0  -4   68.59    3.30
   4   0   4   59.09    3.20
  -5   0  -4  172.88    8.00
  -5   0  -4  174.08    8.10
  -5   0  -4  175.68    7.30
   5   0   4  170.28    7.90
  -6   0  -4  270.37   11.20
  -6   0  -4  269.17   12.10
   6   0   4  267.57   12.00
   6   0   4  263.57   12.10
  -7   0  -4   55.29    3.20
  -7   0  -4   55.59    3.90
  -7   0  -4   58.79    2.80
   7   0   4   51.89    3.60
  -8   0  -4   59.99    2.90
  -8   0  -4   56.29    2.80
  -8   0  -4   58.59    3.90
  -8   0  -4   53.49    3.30
  -8   0  -4   58.19    3.20
  -9   0  -4   57.39    4.10
  -9   0  -4   58.09    3.00
  -9   0  -4   56.09    2.80
  -9   0  -4   58.89    3.50
   9   0   4   57.69    3.20
 -10   0  -4  244.18   11.40
 -10   0  -4  266.97   10.80
 -10   0  -4  258.77   12.00
  10   0   4  260.87   11.20
 -11   0  -4   17.00    1.10
 -11   0  -4   17.70    1.60
  11   0   4   15.90    1.40
  12   0   4  193.18    8.20
  12  -1  -4   16.40    1.30
 -12   1   4   15.50    1.50
  11  -1  -4  114.59    5.20
 -11   1   4  104.09    5.30
  10  -1  -4    5.50    1.10
 -10   1   4    5.60    1.20
   9  -1  -4   67.19    3.70
  -9   1   4   79.69    4.20
   8  -1  -4  348.57   15.70
  -8   1   4  394.36   16.10
  -7   1   4   43.60    2.60
   6  -1  -4   52.09    3.10
   5  -1  -4  609.44   25.20
   5  -1  -4  604.74   25.60
   5  -1  -4  591.64   25.00
  -5   1   4  581.44   26.90
  -5   1   4  656.53   25.20
   4  -1  -4  195.58    9.30
   4  -1  -4  215.58    9.10
   4  -1  -4  220.58    9.60
   4  -1  -4  222.48    9.10
  -4   1   4  195.98    9.00
  -4   1   4  226.38    9.40
   3  -1  -4  223.88    9.00
   3  -1  -4  204.48    9.10
   3  -1  -4  223.98    8.90
   3  -1  -4  218.18    9.30
  -3   1   4  187.38    9.10
  -3   1   4  208.38    9.00
  -3   1   4  214.78    9.20
   2  -1  -4  133.09    6.00
   2  -1  -4  138.79    5.80
   2  -1  -4  136.59    5.80
   2  -1  -4  129.49    5.90
  -2   1   4  137.39    5.80
  -2   1   4  141.19    5.90
  -2   1   4  128.19    5.80
   1  -1  -4 5034.90  199.08
   1  -1  -4 4490.95  198.48
   1  -1  -4 4988.30  198.78
   1  -1  -4 4825.42  199.08
   1  -1  -4 5004.00  198.78
  -1   1   4 4684.23  198.78
  -1   1   4 5030.70  198.58
   0  -1  -4    2.80    0.50
   0  -1  -4    3.60    0.60
   0  -1  -4    3.70    0.40
   0  -1  -4    5.20    0.40
   0   1   4    3.30    0.40
  -1  -1  -4  648.94   26.40
  -1  -1  -4  640.64   26.20
  -1  -1  -4  647.64   26.20
  -1  -1  -4  637.04   26.30
   1   1   4  616.34   26.30
   1   1   4  645.84   26.10
  -2  -1  -4  323.87   13.60
  -2  -1  -4  326.87   13.50
  -2  -1  -4  323.87   13.70
   2   1   4  318.47   13.20
  -3  -1  -4   38.70    2.20
   3   1   4   39.40    2.20
  -4  -1  -4  524.65   21.30
  -4  -1  -4  550.74   21.90
  -4  -1  -4  481.45   21.90
   4   1   4  516.15   21.80
  -5  -1  -4  284.57   13.00
  -5  -1  -4  293.57   13.10
  -5  -1  -4  309.97   12.30
   5   1   4  286.57   12.90
  -6  -1  -4   41.90    3.00
  -6  -1  -4   45.00    3.00
  -6  -1  -4   45.40    2.20
   6   1   4   39.40    2.80
  -7  -1  -4   15.30    1.30
  -7  -1  -4   14.30    1.50
  -7  -1  -4   25.80    2.00
   7   1   4   14.30    1.90
  -8  -1  -4   15.70    1.80
  -8  -1  -4   16.20    1.70
  -8  -1  -4   16.60    1.30
  -8  -1  -4   15.60    1.30
  -8  -1  -4   15.30    2.30
  -9  -1  -4  193.38    8.40
  -9  -1  -4  194.98    9.70
   9   1   4  209.78    8.90
 -10  -1  -4   32.50    2.70
 -10  -1  -4   31.80    1.80
  10   1   4   34.90    2.20
 -11  -1  -4   36.80    1.80
  11   1   4   38.40    2.20
  12  -2  -4  134.59    6.10
 -12   2   4  142.29    6.40
  11  -2  -4   34.70    2.20
 -11   2   4   33.70    2.50
  10  -2  -4   89.49    4.50
 -10   2   4   89.39    4.80
   9  -2  -4    7.00    1.10
  -9   2   4    8.50    1.40
   8  -2  -4    2.80    0.80
  -8   2   4    4.40    1.00
   7  -2  -4    5.70    1.20
   6  -2  -4  148.99    7.00
   5  -2  -4  171.58    7.80
   5  -2  -4  173.48    7.70
   5  -2  -4  201.28   10.30
   5  -2  -4  183.18    8.20
  -5   2   4  177.38    7.90
  -5   2   4  200.88    8.80
   4  -2  -4    2.40    0.60
   4  -2  -4    2.20    0.70
   4  -2  -4    3.00    0.50
   4  -2  -4    2.80    0.60
  -4   2   4    5.40    0.70
  -4   2   4    2.70    0.70
   3  -2  -4  503.35   18.50
   3  -2  -4  415.06   18.40
   3  -2  -4  417.56   18.20
   3  -2  -4  432.16   18.60
  -3   2   4  478.25   18.50
  -3   2   4  420.56   18.30
  -3   2   4  424.06   18.50
   2  -2  -4 3369.96  135.49
   2  -2  -4 3796.42  135.89
   2  -2  -4 3100.29  135.69
   2  -2  -4 3168.98  135.49
  -2   2   4 3429.36  135.59
  -2   2   4 3025.00  134.99
  -2   2   4 3248.97  135.59
   1  -2  -4  738.83   33.20
   1  -2  -4  820.62   33.20
   1  -2  -4  810.22   33.10
   1  -2  -4  823.42   33.10
  -1   2   4  859.01   33.10
  -1   2   4  791.02   33.00
   0  -2  -4   31.00    1.70
   0  -2  -4   29.90    1.60
   0  -2  -4   33.60    1.80
   0  -2  -4   27.90    1.70
   0   2   4   30.10    1.50
   0   2   4   38.30    1.70
  -1  -2  -4  580.44   22.10
  -1  -2  -4  516.35   22.10
  -1  -2  -4  502.95   22.20
   1   2   4  528.55   21.80
   1   2   4  536.05   22.10
  -2  -2  -4  580.24   26.00
  -2  -2  -4  620.64   25.90
   2   2   4  619.64   25.50
   2   2   4  678.73   25.90
  -3  -2  -4  152.68    6.60
  -3  -2  -4  151.28    7.10
   3   2   4  171.38    7.20
  -4  -2  -4  753.92   31.90
  -4  -2  -4  757.12   32.60
  -4  -2  -4  818.12   32.70
   4   2   4  795.22   32.60
  -5  -2  -4    7.20    1.30
  -5  -2  -4    8.00    1.40
  -5  -2  -4    7.70    0.80
   5   2   4    8.50    1.30
  -6  -2  -4   69.09    4.50
  -6  -2  -4   80.59    3.60
  -6  -2  -4   77.79    4.50
  -7  -2  -4    5.50    1.50
  -7  -2  -4    4.30    0.70
  -7  -2  -4    5.20    1.00
  -7  -2  -4    4.90    0.80
  -8  -2  -4  210.18    9.50
  -8  -2  -4  206.78   10.30
  -8  -2  -4  219.28    9.00
  -9  -2  -4  167.58    8.60
  -9  -2  -4  178.38    7.40
   9   2   4  174.78    7.90
 -10  -2  -4   13.50    1.90
 -10  -2  -4   15.10    1.00
  10   2   4   14.80    1.50
  11   2   4    8.40    0.90
  12  -3  -4   34.60    2.10
 -12   3   4   38.40    2.40
  11  -3  -4   84.39    4.20
 -11   3   4   88.89    4.60
  10  -3  -4   66.09    3.50
 -10   3   4   65.59    3.80
   9  -3  -4   15.60    1.60
  -9   3   4   13.40    1.60
   8  -3  -4   58.19    3.30
  -8   3   4   70.69    3.60
   7  -3  -4  356.26   15.60
   6  -3  -4   74.29    4.10
  -6   3   4   81.79    3.80
   5  -3  -4  212.28    9.10
   5  -3  -4  188.08    9.00
  -5   3   4  214.98    8.90
   4  -3  -4    2.50    0.60
   4  -3  -4    2.70    0.80
   4  -3  -4    2.20    0.60
  -4   3   4    2.10    0.50
  -4   3   4    2.30    0.70
   3  -3  -4   66.39    3.50
   3  -3  -4   67.89    3.30
   3  -3  -4   69.09    3.20
  -3   3   4   62.59    3.30
  -3   3   4   61.59    3.10
   2  -3  -4  378.96   17.10
   2  -3  -4  422.66   17.20
   2  -3  -4  400.66   16.90
  -2   3   4  426.66   17.10
  -2   3   4  415.66   16.90
  -2   3   4  392.26   17.00
   1  -3  -4  282.87   11.80
   1  -3  -4  287.87   11.80
   1  -3  -4  298.47   11.70
  -1   3   4  258.17   11.70
  -1   3   4  279.87   11.60
  -1   3   4  252.77   11.60
   0  -3  -4   46.80    2.40
   0  -3  -4   47.20    2.50
   0  -3  -4   46.10    2.50
   0   3   4   43.60    2.30
   0   3   4   51.19    2.50
   0   3   4   44.90    2.20
  -1  -3  -4  176.38    7.20
  -1  -3  -4  166.48    7.10
   1   3   4  144.39    6.70
   1   3   4  160.48    7.00
   1   3   4  147.19    6.90
  -2  -3  -4    6.10    0.50
  -2  -3  -4    6.70    1.00
  -2  -3  -4    6.60    1.00
   2   3   4    7.20    0.90
  -3  -3  -4   45.20    2.80
  -3  -3  -4   47.90    2.80
  -3  -3  -4   43.50    2.20
   3   3   4   48.60    2.70
  -4  -3  -4  160.38    6.80
  -4  -3  -4  172.78    7.70
  -4  -3  -4  155.08    7.60
   4   3   4  150.78    7.00
   4   3   4  156.98    7.50
  -5  -3  -4   61.79    3.90
  -5  -3  -4   71.39    3.20
  -5  -3  -4   65.09    4.00
   5   3   4   67.59    3.90
  -6  -3  -4   23.50    2.80
  -6  -3  -4   24.60    1.60
  -6  -3  -4   21.50    1.80
  -6  -3  -4   23.80    2.50
  -7  -3  -4  273.17   11.60
  -7  -3  -4  275.27   12.00
  -7  -3  -4  264.17   11.50
  -7  -3  -4  282.07   12.80
  -8  -3  -4   27.90    2.90
  -8  -3  -4   25.70    1.60
   8   3   4   28.00    2.10
  -9  -3  -4   17.30    2.20
  -9  -3  -4   18.10    1.20
   9   3   4   18.90    1.70
 -10  -3  -4   71.59    3.10
 -10  -3  -4   69.39    4.00
  10   3   4   71.59    3.50
  11   3   4   55.09    3.00
 -12   4   4   63.99    3.40
  11  -4  -4    5.70    0.90
 -11   4   4    5.70    1.20
  10  -4  -4  405.06   18.10
 -10   4   4  453.45   18.50
   9  -4  -4  213.28    9.50
  -9   4   4  221.88    9.80
   8  -4  -4  483.25   20.10
  -8   4   4  475.45   20.30
   7  -4  -4    6.00    1.10
   6  -4  -4   50.59    3.20
   6  -4  -4   59.69    3.20
  -6   4   4   58.69    3.00
   5  -4  -4   44.40    2.60
   5  -4  -4   40.00    2.40
  -5   4   4   41.60    2.40
   4  -4  -4   99.69    4.60
   4  -4  -4  104.69    5.20
   4  -4  -4  105.99    5.00
   4  -4  -4  109.09    5.40
  -4   4   4  106.29    4.90
  -4   4   4  113.59    5.20
   3  -4  -4   41.90    2.20
   3  -4  -4   43.40    2.60
   3  -4  -4   39.80    2.50
  -3   4   4   41.10    2.20
  -3   4   4   42.40    2.50
   2  -4  -4  365.36   15.40
   2  -4  -4  361.26   15.40
   2  -4  -4  361.66   15.20
  -2   4   4  354.46   15.40
  -2   4   4  363.46   15.10
   1  -4  -4  259.87   10.60
   1  -4  -4  234.28   10.30
   1  -4  -4  237.78   10.50
  -1   4   4  243.38   10.20
  -1   4   4  228.28   10.40
   0  -4  -4   14.80    0.90
   0  -4  -4   15.60    1.40
   0  -4  -4   15.40    1.30
   0   4   4   16.80    1.20
   0   4   4   14.70    1.00
   0   4   4   15.20    1.30
  -1  -4  -4   67.59    3.60
  -1  -4  -4   64.89    3.00
  -1  -4  -4   67.29    3.60
   1   4   4   64.29    3.00
   1   4   4   66.99    3.40
   1   4   4   69.69    3.60
  -2  -4  -4 1065.99   43.80
  -2  -4  -4 1053.79   43.80
  -2  -4  -4 1070.29   43.10
   2   4   4 1051.59   43.60
   2   4   4 1035.90   43.80
  -3  -4  -4    4.70    1.00
  -3  -4  -4    5.30    1.10
  -3  -4  -4    5.40    0.60
   3   4   4    6.60    1.10
   3   4   4    5.80    1.20
  -4  -4  -4  490.05   20.20
  -4  -4  -4  478.85   20.30
  -4  -4  -4  490.75   19.30
   4   4   4  467.15   20.00
   4   4   4  422.06   20.20
   4   4   4  444.96   19.60
  -5  -4  -4    3.50    1.10
  -5  -4  -4    4.70    0.70
  -5  -4  -4    4.80    1.60
  -6  -4  -4  442.96   19.20
  -6  -4  -4  418.36   17.80
  -6  -4  -4  430.56   18.00
  -6  -4  -4  431.16   18.30
  -7  -4  -4   18.70    1.80
  -7  -4  -4   18.50    2.60
  -7  -4  -4   20.00    1.40
  -8  -4  -4   54.69    3.90
  -8  -4  -4   57.39    2.70
   8   4   4   54.99    3.10
  -9  -4  -4   13.90    1.90
  -9  -4  -4   12.20    0.90
   9   4   4   14.30    1.40
 -10  -4  -4    3.10    0.80
  10   4   4    3.60    0.70
 -12   5   4   30.40    2.00
 -11   5   4   43.40    2.80
 -10   5   4   99.29    5.10
  -9   5   4  479.65   20.40
  -8   5   4   61.69    3.40
  -8   5   4   72.89    3.20
  -8   5   4   65.99    3.60
   7  -5  -4  407.76   17.70
  -7   5   4  395.46   17.60
   6  -5  -4    5.80    1.20
  -6   5   4    6.20    1.00
   5  -5  -4  196.08    9.10
   5  -5  -4  237.78    9.60
  -5   5   4  186.98    9.00
   4  -5  -4   19.60    1.80
   4  -5  -4   17.10    1.40
   4  -5  -4   19.60    1.50
  -4   5   4   21.50    1.50
   3  -5  -4  187.88    8.60
   3  -5  -4  222.48    9.10
   3  -5  -4  187.08    9.00
   3  -5  -4  186.78    8.30
  -3   5   4  186.28    8.60
  -3   5   4  210.28    9.00
   2  -5  -4  147.49    6.50
   2  -5  -4  132.29    6.10
   2  -5  -4  132.69    6.50
   2  -5  -4  139.99    5.80
  -2   5   4  135.09    6.10
  -2   5   4  129.09    6.40
   1  -5  -4  120.99    5.60
   1  -5  -4  107.49    4.80
   1  -5  -4  107.79    5.50
  -1   5   4  111.39    5.40
  -1   5   4  115.99    5.20
  -1   5   4  111.89    5.10
   0  -5  -4  176.38    7.40
   0  -5  -4  172.08    8.10
   0  -5  -4  176.98    8.10
   0   5   4  177.28    7.60
   0   5   4  175.48    8.10
   0   5   4  177.38    7.80
  -1  -5  -4 1586.74   69.19
  -1  -5  -4 1575.74   69.09
  -1  -5  -4 1743.43   68.39
   1   5   4 1728.23   69.29
   1   5   4 1701.23   68.59
   1   5   4 1743.93   68.89
  -2  -5  -4  241.08   10.00
  -2  -5  -4  232.88   10.90
  -2  -5  -4  242.98   10.80
   2   5   4  220.28   10.80
   2   5   4  250.97   10.60
  -3  -5  -4    2.30    0.90
  -3  -5  -4    2.40    0.90
  -3  -5  -4    2.80    0.60
   3   5   4    2.00    0.70
   3   5   4    1.80    0.80
   3   5   4    3.80    1.20
  -4  -5  -4    5.40    0.80
  -4  -5  -4    5.10    1.20
   4   5   4    6.30    0.80
  -5  -5  -4    6.70    1.10
  -5  -5  -4    6.20    0.80
  -5  -5  -4    5.70    1.40
  -5  -5  -4    6.50    1.20
  -6  -5  -4    1.20    0.60
  -6  -5  -4    0.50    0.80
  -6  -5  -4   -0.30    1.10
  -7  -5  -4  214.08   10.50
  -7  -5  -4  221.68    9.20
  -8  -5  -4   89.99    3.90
  -8  -5  -4   87.39    5.10
   8   5   4   85.19    4.30
  -9  -5  -4    5.10    1.10
   9   5   4    3.90    0.70
 -12   6   4    6.30    0.90
 -11   6   4   17.20    1.70
 -10   6   4  236.08   10.50
  -9   6   4  206.88    9.20
  -8   6   4  162.48    7.40
   7  -6  -4  417.16   18.50
  -7   6   4  419.76   18.00
   6  -6  -4  669.53   28.30
  -6   6   4  656.93   27.80
   5  -6  -4   64.59    3.90
  -5   6   4   61.29    3.40
   4  -6  -4   36.60    2.60
  -4   6   4   31.20    2.10
   3  -6  -4  574.34   23.80
  -3   6   4  538.55   23.20
   2  -6  -4   78.19    4.50
   2  -6  -4   72.29    3.50
   2  -6  -4   76.39    4.20
  -2   6   4   78.79    4.20
  -2   6   4   83.39    3.90
   1  -6  -4   26.00    2.00
   1  -6  -4   21.60    2.00
  -1   6   4   24.90    1.60
  -1   6   4   20.30    1.50
  -1   6   4   19.60    1.80
   0  -6  -4  259.27   12.40
   0  -6  -4  276.27   12.30
   0  -6  -4  282.17   11.50
   0   6   4  268.67   11.90
   0   6   4  271.87   11.70
   0   6   4  287.17   12.40
  -1  -6  -4   20.10    1.30
  -1  -6  -4   19.80    1.90
   1   6   4   21.40    1.70
   1   6   4   19.70    2.80
  -2  -6  -4   41.50    3.10
  -2  -6  -4   50.09    2.30
   2   6   4   41.30    2.80
  -3  -6  -4   21.40    2.20
  -3  -6  -4   21.60    1.50
   3   6   4   22.00    1.50
  -4  -6  -4   74.79    4.80
  -4  -6  -4   73.99    3.90
  -4  -6  -4   79.39    3.60
   4   6   4   79.49    3.80
  -5  -6  -4   49.30    3.80
  -5  -6  -4   49.30    2.80
  -5  -6  -4   46.50    2.40
  -6  -6  -4  303.27   12.10
  -6  -6  -4  283.57   12.60
  -6  -6  -4  281.37   13.50
  -7  -6  -4   49.40    3.60
  -7  -6  -4   51.99    2.40
   7   6   4   49.60    2.80
  -8  -6  -4    1.60    1.00
   8   6   4    1.20    0.60
   9   6   4    2.40    0.60
 -10   7   4   37.40    2.40
  -9   7   4   89.09    4.60
  -8   7   4  211.28    9.40
   7  -7  -4  236.38   11.10
  -7   7   4  224.78   10.40
  -7   7   4  224.48   10.10
   6  -7  -4  133.49    6.70
  -6   7   4  114.79    6.00
   5  -7  -4  528.65   23.80
  -5   7   4  568.74   23.30
   4  -7  -4    2.50    1.00
  -4   7   4    2.20    0.80
   3  -7  -4    2.70    1.00
  -3   7   4    2.20    0.70
   2  -7  -4   54.69    3.50
  -2   7   4   54.09    3.00
   1  -7  -4  302.17   13.60
  -1   7   4  302.67   13.00
   0  -7  -4  279.47   12.80
   0   7   4  282.87   12.10
  -1  -7  -4   45.00    3.20
   1   7   4   44.30    2.40
  -2  -7  -4    2.90    1.10
  -2  -7  -4    6.40    1.50
   2   7   4    3.10    0.80
  -3  -7  -4  404.96   18.60
  -3  -7  -4  413.66   17.30
   3   7   4  435.46   17.60
  -4  -7  -4  151.08    7.90
  -4  -7  -4  158.38    6.50
   4   7   4  139.39    6.80
  -5  -7  -4   28.60    2.10
  -5  -7  -4   33.20    1.80
  -5  -7  -4   33.20    3.10
   5   7   4   31.40    2.10
  -6  -7  -4   54.89    2.60
  -6  -7  -4   54.09    3.90
   6   7   4   56.69    3.00
  -7  -7  -4    1.60    1.00
   7   7   4    2.00    0.60
  -8  -7  -4    5.80    1.00
   8   7   4    5.30    0.60
 -10   8   4   90.99    4.50
  -9   8   4   32.30    2.40
  -8   8   4  360.86   15.60
   6  -8  -4  670.33   29.80
  -6   8   4  684.33   29.20
  -6   8   4  717.33   28.90
   5  -8  -4  155.28    7.70
  -5   8   4  138.39    7.00
  -5   8   4  148.19    6.80
   4  -8  -4  152.58    8.10
  -4   8   4  167.88    7.60
   3  -8  -4  175.48    8.90
  -3   8   4  189.08    8.40
   2  -8  -4  229.08   11.00
  -2   8   4  237.68   10.50
  -2   8   4  236.48   10.10
   1  -8  -4   18.90    2.20
  -1   8   4   18.60    1.70
  -1   8   4   19.20    1.40
   0  -8  -4   55.69    3.90
   0  -8  -4   59.19    4.20
   0   8   4   58.49    3.00
  -1  -8  -4    9.30    1.70
  -1  -8  -4    6.40    1.50
  -1  -8  -4    6.80    0.80
   1   8   4    6.20    1.00
  -2  -8  -4   23.30    2.70
  -2  -8  -4   26.20    1.50
   2   8   4   26.60    1.90
  -3  -8  -4   47.20    3.70
  -3  -8  -4   47.10    2.40
   3   8   4   47.20    2.70
  -4  -8  -4  144.99    6.20
  -4  -8  -4  148.09    7.70
   4   8   4  139.69    6.60
  -5  -8  -4   -0.20    1.10
  -5  -8  -4    1.20    0.40
   5   8   4    2.10    0.70
  -6  -8  -4    2.00    1.10
  -7  -8  -4   32.30    2.30
 -11   9   4   54.79    3.00
 -10   9   4    1.80    0.80
  -9   9   4    3.20    1.00
  -8   9   4   27.20    2.30
  -7   9   4  604.34   25.50
  -6   9   4  282.57   12.40
  -5   9   4   27.80    2.10
   4  -9  -4   45.40    2.10
   4  -9  -4   44.10    3.80
  -4   9   4   42.30    2.60
  -4   9   4   45.80    3.20
   3  -9  -4  210.78    8.80
   3  -9  -4  221.88   10.40
  -3   9   4  206.08    9.70
  -3   9   4  212.38    9.20
  -3   9   4  203.28    9.30
   2  -9  -4   91.89    5.60
   2  -9  -4   96.49    4.20
  -2   9   4   94.89    4.90
  -2   9   4   96.49    4.60
   1  -9  -4    5.40    0.70
   1  -9  -4    5.30    1.40
  -1   9   4    5.20    1.00
   0  -9  -4   46.60    2.30
   0  -9  -4   44.00    3.50
   0   9   4   45.10    2.60
  -1  -9  -4    8.30    1.70
  -1  -9  -4    8.40    0.80
   1   9   4    8.00    1.20
  -2  -9  -4  232.88   11.10
  -2  -9  -4  219.88    9.50
   2   9   4  231.98   10.00
  -3  -9  -4  384.76   17.00
  -3  -9  -4  368.66   15.40
   3   9   4  372.56   15.90
  -4  -9  -4    0.00    1.00
   4   9   4    0.70    0.70
  -5  -9  -4   20.70    2.30
   5   9   4   23.50    1.60
  -6  -9  -4   52.99    3.20
 -11  10   4    3.50    0.80
 -10  10   4    2.70    0.90
  -9  10   4   72.49    4.00
  -8  10   4   17.00    1.90
  -7  10   4    2.60    1.00
  -6  10   4  153.48    7.20
  -5  10   4  943.91   39.20
  -4  10   4  222.28    9.90
  -3  10   4   98.09    4.70
  -2  10   4   32.40    2.20
   1 -10  -4  109.59    6.20
  -1  10   4  110.49    5.30
   0 -10  -4   18.00    2.40
   0  10   4   14.50    1.50
  -1 -10  -4    0.60    1.20
   1  10   4    3.00    0.90
  -2 -10  -4   58.29    4.20
   2  10   4   62.89    3.30
  -3 -10  -4   65.69    4.30
   3  10   4   69.19    3.50
  -4 -10  -4    1.40    1.00
   4  10   4    1.80    0.70
  -5 -10  -4  108.39    5.40
 -11  11   4    2.70    0.60
 -10  11   4  103.29    4.90
  -9  11   4  171.08    7.80
  -8  11   4   62.79    3.70
  -7  11   4   13.80    1.70
  -6  11   4    5.50    1.20
  -5  11   4  391.26   16.80
  -4  11   4  289.47   12.60
  -3  11   4   20.00    1.70
   2 -11  -4    9.10    1.70
  -2  11   4    9.50    1.20
   1 -11  -4    7.50    1.60
  -1  11   4    7.20    1.10
   0 -11  -4  328.57   15.30
   0  11   4  343.97   14.40
  -1 -11  -4  151.78    7.70
   1  11   4  149.19    6.80
  -2 -11  -4   16.80    2.20
   2  11   4   15.20    1.50
  -3 -11  -4    0.90    0.90
   3  11   4    1.20    0.60
  -4 -11  -4    5.70    1.00
 -10  12   4   30.50    1.80
  -9  12   4   28.00    2.00
  -8  12   4    2.30    0.90
  -7  12   4    4.00    1.00
  -6  12   4   50.59    3.00
  -5  12   4    8.20    1.20
  -3  12   4    0.70    0.70
  -2  12   4    3.90    0.90
   1 -12  -4   55.79    3.70
  -1  12   4   54.99    3.00
   0 -12  -4   20.10    2.20
   0  12   4   20.00    1.60
  -1 -12  -4    0.00    0.80
   1  12   4    1.10    0.60
  -2 -12  -4    1.10    0.80
   2  12   4    1.30    0.60
  -9  13   4    3.90    0.70
  -8  13   4   13.10    1.20
  -7  13   4   97.09    4.60
  -6  13   4   52.39    2.80
  -2  13   4   20.10    1.50
   1 -13  -4   32.60    2.40
  -1  13   4   33.00    1.90
   0 -13  -4    9.20    1.30
   0  13   4   11.00    1.00
   3 -14   5   51.59    3.00
   4 -14   5  127.19    6.10
  -5  14  -5   43.40    2.70
   5 -14   5   38.10    2.50
  -6  14  -5    6.00    0.90
   0 -13   5   63.59    3.60
   1 -13   5  172.78    8.20
   2 -13   5   85.99    4.80
  -3  13  -5   -0.40    0.60
   3 -13   5   -1.30    0.90
  -4  13  -5    8.90    1.10
   4 -13   5    4.80    1.50
  -5  13  -5   71.69    3.70
   5 -13   5   66.99    4.50
  -6  13  -5  132.59    6.30
   6 -13   5  140.49    7.20
  -7  13  -5   14.30    1.40
   7 -13   5   13.20    2.20
  -8  13  -5   34.70    2.10
   8 -13   5   29.50    2.90
   2  12  -5    1.30    0.60
  -2 -12   5    1.30    0.70
   1  12  -5    9.20    1.00
  -1 -12   5   10.20    1.50
   0  12  -5   29.50    2.00
   0 -12   5   33.80    2.80
  -1  12  -5   91.39    4.50
   1 -12   5   99.79    5.50
  -2  12  -5   91.09    4.60
   2 -12   5   93.69    5.50
  -3  12  -5   16.00    1.70
   3 -12   5   14.00    2.40
  -4  12  -5  253.27   11.50
   4 -12   5  269.57   13.00
  -5  12  -5   22.00    2.10
   5 -12   5   38.20    5.10
  -6  12  -5    2.60    1.00
  -6  12  -5    1.50    1.50
  -7  12  -5   43.70    3.60
  -7  12  -5   49.50    2.90
  -8  12  -5   -1.50    1.00
  -8  12  -5    2.30    0.80
  -9  12  -5    0.30    1.00
  -9  12  -5    2.30    0.70
   3  11  -5    0.90    0.60
  -3 -11   5    3.00    0.90
   2  11  -5    8.50    1.10
  -2 -11   5    7.90    1.40
   1  11  -5   10.10    1.20
  -1 -11   5    8.90    1.70
   0  11  -5  110.99    5.40
   0 -11   5  112.19    6.20
  -1  11  -5    0.40    0.80
   1 -11   5   -0.10    1.30
  -2  11  -5   62.39    3.60
   2 -11   5   69.89    5.10
  -3  11  -5  105.79    5.40
   3 -11   5  109.69    7.70
  -4  11  -5    3.40    1.10
  -4  11  -5    1.20    1.70
  -5  11  -5   50.69    3.10
  -5  11  -5   43.30    4.10
  -6  11  -5    6.10    2.00
  -6  11  -5    4.40    1.20
  -7  11  -5   76.39    4.20
  -7  11  -5   74.29    5.20
  -8  11  -5   12.50    1.50
  -8  11  -5   11.60    2.10
  -9  11  -5   40.30    3.40
  -9  11  -5   42.80    2.60
   4  10  -5   81.69    3.90
  -4 -10   5   76.89    4.30
   3  10  -5  141.69    6.30
  -3 -10   5  129.19    6.80
   2  10  -5   21.90    1.90
  -2 -10   5   21.40    2.60
   1  10  -5  435.36   18.60
  -1 -10   5  440.16   19.50
   0  10  -5   49.30    3.10
   0 -10   5   58.19    4.10
  -1  10  -5   15.90    1.60
  -1  10  -5   13.50    1.60
   1 -10   5   12.40    2.40
  -2  10  -5   22.90    2.00
   2 -10   5   17.30    3.40
  -3  10  -5    6.50    1.90
  -3  10  -5    4.70    1.10
  -4  10  -5  506.25   21.40
  -4  10  -5  523.55   21.80
  -4  10  -5  507.75   22.90
  -5  10  -5    4.50    1.90
  -5  10  -5    3.50    0.80
  -5  10  -5    7.30    1.30
  -6  10  -5    4.70    1.10
  -6  10  -5    5.50    0.80
  -6  10  -5    4.90    1.80
  -6  10  -5    3.90    1.10
  -7  10  -5   55.99    3.50
  -7  10  -5   61.99    4.60
  -7  10  -5   59.89    3.10
  -7  10  -5   56.89    3.50
  -8  10  -5   31.60    2.50
  -8  10  -5   31.40    3.30
  -8  10  -5   32.70    2.40
  -8  10  -5   31.20    1.90
  -9  10  -5  177.38    8.30
  -9  10  -5  181.68    7.80
  -9  10  -5  192.18    9.20
  -9  10  -5  179.58    8.40
 -10  10  -5    2.10    0.80
 -11  10  -5    7.60    1.00
   5   9  -5    1.00    0.70
   4   9  -5    8.20    1.20
  -4  -9   5   13.80    1.80
   3   9  -5   28.20    2.10
  -3  -9   5   25.50    2.70
   2   9  -5  608.14   25.20
  -2  -9   5  593.84   26.00
   1   9  -5   18.90    1.80
  -1  -9   5   23.70    2.60
   0   9  -5   27.20    2.10
   0  -9   5   30.40    3.20
  -1   9  -5   35.50    2.00
  -1   9  -5   35.40    2.30
  -1   9  -5   35.70    2.30
   1  -9   5   21.00    3.50
  -2   9  -5  407.26   18.10
  -2   9  -5  390.16   17.00
  -3   9  -5   41.60    2.20
  -3   9  -5   38.40    2.50
  -3   9  -5   33.40    2.50
  -3   9  -5   39.00    3.70
  -4   9  -5  298.97   12.70
  -4   9  -5  296.97   13.20
  -4   9  -5  306.47   14.20
  -5   9  -5   34.00    2.00
  -5   9  -5   34.70    3.30
  -5   9  -5   33.60    2.40
  -5   9  -5   34.90    2.40
  -6   9  -5  335.57   14.90
  -6   9  -5  324.47   13.90
  -6   9  -5  316.67   14.00
  -6   9  -5  321.47   13.50
  -6   9  -5  294.47   13.30
  -7   9  -5    6.20    1.20
  -7   9  -5    7.30    1.90
  -7   9  -5    7.90    0.80
  -7   9  -5    7.50    1.00
  -7   9  -5    6.40    1.20
  -8   9  -5    5.70    0.90
  -8   9  -5    6.50    1.30
  -8   9  -5    5.50    1.70
  -8   9  -5    5.20    1.10
  -8   9  -5    4.90    0.80
  -9   9  -5    1.50    1.00
  -9   9  -5    0.00    0.50
  -9   9  -5    0.10    1.10
  -9   9  -5    2.10    0.60
 -10   9  -5   36.00    2.00
 -10   9  -5   41.10    2.70
 -10   9  -5   37.20    3.00
 -11   9  -5    3.40    0.90
 -11   9  -5    1.90    0.50
   6   8  -5   21.10    1.60
   5   8  -5   21.70    1.80
   4   8  -5   54.09    3.20
  -4  -8   5   60.99    4.20
   3   8  -5  313.97   13.50
  -3  -8   5  308.47   14.20
   2   8  -5   23.10    2.30
   2   8  -5   23.00    2.00
  -2  -8   5   29.10    2.70
   1   8  -5  204.08    9.90
   1   8  -5  230.88    9.60
   1   8  -5  201.28    9.80
  -1  -8   5  231.18   10.40
   0   8  -5   19.10    2.00
   0   8  -5   19.10    1.90
   0   8  -5   18.20    1.70
   0   8  -5   19.00    1.40
   0   8  -5   22.60    1.70
   0  -8   5   13.30    2.70
  -1   8  -5   96.29    5.10
  -1   8  -5  103.89    5.20
  -1   8  -5   98.19    6.80
  -1   8  -5  103.09    4.80
  -2   8  -5   17.70    2.10
  -2   8  -5   16.90    1.70
  -2   8  -5   19.80    1.40
  -2   8  -5   17.50    1.80
  -3   8  -5   91.59    4.20
  -3   8  -5   92.09    4.80
  -3   8  -5   97.69    6.30
  -3   8  -5   87.59    4.60
  -4   8  -5    0.40    0.50
  -4   8  -5    0.50    0.90
  -4   8  -5    0.10    0.70
  -4   8  -5    0.60    0.70
  -4   8  -5    0.70    0.70
   4  -8   5    0.20    0.80
  -5   8  -5  538.05   24.10
  -5   8  -5  558.34   23.30
  -5   8  -5  543.05   23.20
  -5   8  -5  530.85   23.60
  -5   8  -5  560.74   22.90
   5  -8   5  583.44   24.10
  -6   8  -5  221.38    9.10
  -6   8  -5  210.68    9.40
  -6   8  -5  211.48   10.30
  -6   8  -5  213.08    9.60
  -6   8  -5  207.48   10.60
   6  -8   5  196.08   10.20
  -7   8  -5   73.39    3.60
  -7   8  -5   73.29    4.90
  -7   8  -5   70.39    4.10
  -7   8  -5   79.39    4.00
  -8   8  -5    1.60    1.00
  -8   8  -5    1.50    1.30
  -8   8  -5    2.40    1.00
  -8   8  -5    1.40    0.60
  -8   8  -5    3.30    0.70
  -9   8  -5   47.40    3.20
  -9   8  -5   47.90    2.40
  -9   8  -5   45.70    3.70
  -9   8  -5   44.00    2.50
 -10   8  -5   19.00    1.40
 -10   8  -5   17.80    2.40
 -10   8  -5   18.80    2.00
 -11   8  -5   82.09    4.30
 -11   8  -5   81.59    3.70
 -12   8  -5   22.90    1.20
 -12   8  -5   23.10    1.70
   6   7  -5   26.60    1.90
  -6  -7   5   22.30    2.60
   5   7  -5   15.40    1.50
  -5  -7   5   13.90    1.70
   4   7  -5  279.67   11.90
  -4  -7   5  266.07   12.00
   3   7  -5  129.89    7.00
   3   7  -5  135.69    6.60
  -3  -7   5  164.38    7.20
   1   7  -5    4.30    0.90
   1   7  -5    3.40    1.10
   1   7  -5    6.90    1.20
   1   7  -5    5.20    0.80
   0   7  -5  131.19    6.40
   0   7  -5  129.79    6.30
   0   7  -5  129.29    6.90
   0   7  -5  143.29    5.90
  -1   7  -5  237.28   10.40
  -1   7  -5  238.28   10.00
  -1   7  -5  239.18   10.60
  -1   7  -5  230.68   10.90
  -2   7  -5   34.50    1.80
  -2   7  -5   31.70    2.20
  -2   7  -5   30.00    2.50
  -3   7  -5  153.18    7.60
  -3   7  -5  165.48    6.70
  -3   7  -5  153.98    7.30
   3  -7   5  148.59    7.40
  -4   7  -5   59.49    3.80
  -4   7  -5   66.09    3.60
  -4   7  -5   65.39    3.00
   4  -7   5   65.09    3.90
  -5   7  -5   29.80    2.20
  -5   7  -5   26.30    2.00
  -5   7  -5   28.60    1.60
  -5   7  -5   29.50    2.40
   5  -7   5   25.60    2.40
  -6   7  -5  519.65   22.60
  -6   7  -5  535.35   23.30
  -6   7  -5  556.84   22.10
   6  -7   5  524.65   23.30
  -7   7  -5   18.40    1.80
  -7   7  -5   14.60    1.60
  -7   7  -5   15.90    2.20
  -7   7  -5   17.30    1.30
   7  -7   5   20.60    3.80
  -8   7  -5  117.19    5.30
  -8   7  -5  113.89    5.90
  -8   7  -5  121.39    6.60
  -9   7  -5   44.70    3.10
  -9   7  -5   38.70    2.30
  -9   7  -5   42.60    3.50
  -9   7  -5   37.80    2.20
 -10   7  -5   78.79    4.30
 -10   7  -5   71.39    3.40
 -10   7  -5   67.19    3.50
 -10   7  -5   72.69    4.60
 -11   7  -5    7.70    0.80
 -11   7  -5    6.90    1.30
 -12   7  -5   50.29    2.20
 -12   7  -5   44.80    2.80
  -8  -6   5   16.60    1.40
  -7  -6   5    6.80    1.10
   6   6  -5    0.90    0.70
  -6  -6   5    2.00    0.90
   5   6  -5   22.60    1.90
  -5  -6   5   22.90    2.00
   4   6  -5   86.19    4.30
  -4  -6   5   87.09    4.50
   3   6  -5    6.10    1.10
   3   6  -5    5.50    1.00
   2   6  -5    1.80    0.70
   2   6  -5    1.60    0.50
   2   6  -5    0.70    0.60
   1   6  -5    7.40    1.10
   1   6  -5    6.00    1.20
   1   6  -5    6.70    0.80
   1   6  -5    8.00    1.20
   0   6  -5   47.60    2.30
   0   6  -5   45.30    3.00
   0   6  -5   43.10    2.60
   0   6  -5   49.90    2.80
  -1   6  -5 1628.04   68.99
  -1   6  -5 1710.13   69.49
  -1   6  -5 1669.93   68.59
  -1   6  -5 1733.43   69.09
  -2   6  -5   91.39    4.50
  -2   6  -5   91.39    4.10
  -2   6  -5  101.49    4.80
   2  -6   5   87.49    4.50
  -3   6  -5   12.90    1.30
  -3   6  -5   12.60    0.90
  -3   6  -5   10.80    1.30
   3  -6   5   13.30    1.40
  -4   6  -5  308.97   14.80
  -4   6  -5  336.17   14.10
  -4   6  -5  359.46   14.60
   4  -6   5  357.06   15.00
  -5   6  -5    9.20    1.40
  -5   6  -5   10.10    0.90
  -5   6  -5    9.70    1.20
   5  -6   5   16.30    1.80
  -6   6  -5  145.59    5.90
  -6   6  -5  135.29    6.40
  -6   6  -5  130.29    6.80
   6  -6   5  130.39    7.00
  -7   6  -5  612.24   25.60
  -7   6  -5  598.14   26.10
  -7   6  -5  638.14   25.00
   7  -6   5  571.54   26.20
  -8   6  -5  120.29    6.50
  -8   6  -5  107.49    5.20
  -8   6  -5  125.09    5.90
  -9   6  -5   12.40    1.70
  -9   6  -5   10.50    1.10
 -10   6  -5   87.69    4.10
 -10   6  -5   98.69    5.00
 -10   6  -5   85.59    5.30
 -10   6  -5   88.99    4.20
 -11   6  -5  247.78   10.50
 -11   6  -5  251.87   11.20
 -12   6  -5   36.90    1.90
 -12   6  -5   39.80    2.50
  -9  -5   5   59.79    3.10
   8   5  -5   52.89    2.90
  -8  -5   5   54.49    3.10
  -7  -5   5    1.10    0.90
   6   5  -5   34.10    2.20
  -6  -5   5   31.80    2.40
   5   5  -5   31.50    2.10
  -5  -5   5   30.30    2.30
   4   5  -5    7.30    1.20
   4   5  -5    4.20    0.90
   3   5  -5    4.30    0.70
   3   5  -5    2.60    0.80
   2   5  -5   58.59    3.20
   2   5  -5   59.69    3.70
   2   5  -5   55.79    3.20
   2   5  -5   62.69    2.90
   1   5  -5  144.39    6.30
   1   5  -5  140.19    6.30
   1   5  -5  130.19    5.90
   1   5  -5  136.79    6.70
   0   5  -5  337.87   14.50
   0   5  -5  338.07   14.30
   0   5  -5  321.87   14.20
   0   5  -5  339.37   13.80
  -1   5  -5   19.20    1.40
  -1   5  -5   17.30    1.20
  -1   5  -5   16.70    0.90
  -1   5  -5   14.70    1.40
   1  -5   5   16.70    1.40
  -2   5  -5    3.50    0.60
  -2   5  -5    3.90    0.40
  -2   5  -5    3.40    0.70
  -2   5  -5    4.30    0.80
   2  -5   5    3.70    0.70
  -3   5  -5  327.67   13.50
  -3   5  -5  327.87   13.70
  -3   5  -5  304.77   13.10
   3  -5   5  309.67   13.70
  -4   5  -5   34.00    2.20
  -4   5  -5   37.40    1.80
  -4   5  -5   39.40    2.40
   4  -5   5   38.80    2.50
  -5   5  -5   44.00    2.70
  -5   5  -5   40.70    2.00
  -5   5  -5   41.40    2.40
   5  -5   5   40.00    2.80
  -6   5  -5   57.39    2.70
  -6   5  -5   55.09    3.50
   6  -5   5   61.09    3.80
  -7   5  -5   13.50    1.50
  -7   5  -5   10.00    1.00
   7  -5   5   10.20    1.80
  -8   5  -5    2.50    1.00
  -8   5  -5    4.00    1.20
  -8   5  -5    1.90    0.60
  -9   5  -5  396.86   18.10
  -9   5  -5  410.86   17.00
 -10   5  -5    6.10    0.90
 -10   5  -5    9.10    1.70
 -10   5  -5    8.40    1.50
 -10   5  -5    8.40    0.90
 -11   5  -5   34.30    1.90
 -11   5  -5   39.10    2.70
 -12   5  -5   30.10    2.20
 -12   5  -5   29.70    1.60
  10   4  -5   30.50    1.70
   9   4  -5    3.10    0.70
  -9  -4   5    0.90    0.80
   8   4  -5   69.09    3.50
  -8  -4   5   60.99    3.60
   7   4  -5  122.49    5.70
  -7  -4   5  121.49    6.00
   6   4  -5    1.70    0.70
   6   4  -5    0.70    0.70
  -6  -4   5    0.80    0.80
   5   4  -5    5.20    0.90
  -5  -4   5    3.10    0.90
   4   4  -5   66.09    3.60
   4   4  -5   66.99    3.80
   3   4  -5   68.59    3.60
   3   4  -5   67.29    3.30
   3   4  -5   75.09    4.20
   3   4  -5   69.59    3.80
   3   4  -5   70.59    3.60
   2   4  -5 1205.68   48.00
   2   4  -5 1149.08   48.30
   2   4  -5 1166.58   48.40
   2   4  -5 1171.38   48.30
   2   4  -5 1175.38   48.80
  -2  -4   5 1185.28   48.70
   1   4  -5  391.36   16.60
   1   4  -5  415.76   17.00
   1   4  -5  383.56   16.60
  -1  -4   5  391.66   16.80
   0   4  -5    1.10    0.40
   0   4  -5    0.60    0.40
   0   4  -5    1.10    0.50
   0   4  -5    2.90    0.30
   0  -4   5    0.90    0.50
  -1   4  -5  827.42   32.50
  -1   4  -5  762.12   32.50
  -1   4  -5  798.02   32.30
  -1   4  -5  814.42   32.60
   1  -4   5  747.73   32.50
  -2   4  -5   13.60    1.10
  -2   4  -5   14.70    1.10
   2  -4   5   14.10    1.20
  -3   4  -5 1133.79   44.20
  -3   4  -5 1096.09   44.20
  -3   4  -5  997.30   43.70
   3  -4   5 1079.99   44.40
  -4   4  -5    1.40    0.50
  -4   4  -5    1.20    0.50
  -4   4  -5    1.30    0.30
   4  -4   5    1.00    0.60
  -5   4  -5  340.17   13.70
  -5   4  -5  333.37   14.30
   5  -4   5  320.17   14.60
  -6   4  -5   34.30    1.70
  -6   4  -5   31.70    2.40
   6  -4   5   35.60    2.60
  -7   4  -5    9.00    1.20
  -7   4  -5    9.20    0.90
  -7   4  -5    9.20    1.90
   7  -4   5    6.40    1.40
  -8   4  -5   10.20    1.40
  -8   4  -5   15.80    1.90
  -8   4  -5   11.00    1.10
   8  -4   5    7.90    1.60
  -9   4  -5  746.23   32.00
  -9   4  -5  741.43   32.50
  -9   4  -5  795.82   31.50
 -10   4  -5    5.50    0.80
 -10   4  -5    5.60    1.40
 -10   4  -5    5.10    0.70
 -10   4  -5    5.30    1.30
 -11   4  -5    2.30    1.00
 -11   4  -5    1.50    0.60
 -12   4  -5    3.00    0.90
 -12   4  -5    3.90    0.50
  10   3  -5  165.48    7.10
 -10  -3   5  156.78    7.20
   9   3  -5   52.09    3.00
  -9  -3   5   57.89    3.30
   8   3  -5  132.99    6.20
  -8  -3   5  133.29    6.50
   7   3  -5  182.88    8.10
  -7  -3   5  177.48    8.30
   6   3  -5  307.37   13.10
  -6  -3   5  305.97   13.40
   5   3  -5   84.79    4.70
   5   3  -5   80.49    4.30
  -5  -3   5   88.99    4.30
   4   3  -5   13.40    1.00
   4   3  -5    9.20    1.30
   4   3  -5    9.50    1.10
   3   3  -5   38.60    2.60
   3   3  -5   37.80    2.20
   3   3  -5   35.00    1.80
   3   3  -5   33.30    2.10
   3   3  -5   37.30    2.30
  -3  -3   5   36.90    2.40
   2   3  -5   95.89    4.50
   2   3  -5   94.99    4.50
   2   3  -5   96.99    4.60
   2   3  -5   91.99    4.20
   2   3  -5  102.69    4.90
  -2  -3   5   95.19    4.70
   1   3  -5   72.99    3.40
   1   3  -5   76.19    3.40
   1   3  -5   69.09    3.60
   1   3  -5   65.79    3.00
  -1  -3   5   69.49    3.40
   0   3  -5  171.38    7.20
   0   3  -5  152.98    7.00
   0   3  -5  157.78    6.90
   0   3  -5  176.88    7.20
   0  -3   5  153.58    6.90
   0  -3   5  173.78    7.10
  -1   3  -5   42.50    2.00
  -1   3  -5   42.90    2.10
  -1   3  -5   40.70    2.20
  -1   3  -5   47.20    2.20
  -1   3  -5   42.90    2.20
   1  -3   5   43.30    2.10
   1  -3   5   42.90    2.10
   1  -3   5   42.90    2.20
  -2   3  -5   93.09    4.40
  -2   3  -5  100.79    4.40
  -2   3  -5   96.09    4.20
  -2   3  -5  107.59    4.40
   2  -3   5   97.09    4.20
   2  -3   5   91.29    4.10
   2  -3   5   98.19    4.50
  -3   3  -5  425.26   18.80
  -3   3  -5  478.55   18.90
   3  -3   5  445.06   18.90
   3  -3   5  472.45   19.20
  -4   3  -5  952.90   39.20
  -4   3  -5 1001.30   39.70
   4  -3   5  935.61   39.90
  -5   3  -5   61.99    3.40
  -5   3  -5   64.99    2.90
   5  -3   5   74.69    3.80
  -6   3  -5   23.70    1.30
  -6   3  -5   24.80    2.00
   6  -3   5   26.30    2.20
  -7   3  -5    7.10    1.30
  -7   3  -5    8.40    1.20
  -7   3  -5    8.10    0.80
   7  -3   5    6.80    1.30
  -8   3  -5   86.49    4.50
  -8   3  -5   86.89    5.00
  -8   3  -5   88.19    4.00
   8  -3   5   79.49    5.00
  -9   3  -5    6.50    1.60
  -9   3  -5   10.60    1.50
  -9   3  -5    6.70    0.90
 -10   3  -5   14.10    1.20
 -10   3  -5   12.60    1.20
 -10   3  -5   12.60    1.90
 -10   3  -5   13.20    1.70
 -11   3  -5    3.90    1.00
 -11   3  -5    1.30    0.90
 -11   3  -5    2.70    0.60
 -12   3  -5    6.70    1.00
 -12   3  -5    8.00    0.70
  11   2  -5   67.09    3.20
 -11  -2   5   68.39    3.40
  10   2  -5    6.10    1.00
 -10  -2   5    6.50    1.10
   9   2  -5   35.40    2.40
  -9  -2   5   40.10    2.70
   8   2  -5   83.09    4.00
  -8  -2   5   71.69    4.20
   7   2  -5    5.30    1.00
  -7  -2   5    5.00    1.10
  -6  -2   5   19.50    1.70
   5   2  -5    6.70    1.20
   5   2  -5    6.60    1.00
   4   2  -5   11.80    1.00
   4   2  -5   14.70    1.30
   4   2  -5   13.70    1.60
   4   2  -5   15.20    1.20
   4   2  -5   15.50    1.50
  -4  -2   5   12.50    1.40
   3   2  -5  181.38    8.10
   3   2  -5  187.38    8.30
   3   2  -5  180.68    8.10
   3   2  -5  198.28    7.80
   3   2  -5  181.28    8.50
  -3  -2   5  183.38    8.40
   2   2  -5  422.36   18.10
   2   2  -5  403.16   17.50
   2   2  -5  427.06   17.80
   2   2  -5  447.56   17.90
   2   2  -5  428.36   17.80
  -2  -2   5  434.06   18.00
   1   2  -5    8.60    0.80
   1   2  -5    8.10    0.80
   1   2  -5   14.10    1.00
   1   2  -5   10.20    0.80
  -1  -2   5    8.10    0.80
   0   2  -5 1111.19   45.70
   0   2  -5 1064.69   45.70
   0   2  -5 1176.18   45.80
   0   2  -5 1101.79   45.80
   0  -2   5 1156.08   45.70
   0  -2   5 1132.59   45.60
   0  -2   5 1094.99   45.60
  -1   2  -5  178.88    7.40
  -1   2  -5  173.88    7.50
  -1   2  -5  175.28    7.40
  -1   2  -5  186.88    7.50
  -1   2  -5  175.78    7.60
   1  -2   5  172.98    7.60
  -2   2  -5    1.60    0.30
  -2   2  -5    2.10    0.30
  -2   2  -5    1.80    0.40
  -2   2  -5    1.20    0.30
   2  -2   5    1.40    0.30
   2  -2   5    3.40    0.60
  -3   2  -5  729.43   32.80
  -3   2  -5  844.62   32.80
   3  -2   5  841.82   33.20
   3  -2   5  791.12   32.60
   3  -2   5  794.52   32.80
  -4   2  -5   14.00    1.10
   4  -2   5   14.80    1.10
   4  -2   5   14.20    1.40
  -5   2  -5  286.17   13.10
  -5   2  -5  300.37   12.50
   5  -2   5  300.27   13.40
   5  -2   5  325.67   13.00
  -6   2  -5  131.29    6.30
  -6   2  -5  126.89    5.50
   6  -2   5  117.99    6.00
   6  -2   5  137.39    6.60
  -7   2  -5  217.58   10.10
  -7   2  -5  226.88    9.70
  -7   2  -5  209.78    9.20
   7  -2   5  210.68   10.20
  -8   2  -5   15.80    1.70
  -8   2  -5   23.50    2.50
  -8   2  -5   16.40    1.30
   8  -2   5   17.50    2.20
  -9   2  -5    6.20    1.30
  -9   2  -5    4.60    0.80
  -9   2  -5    6.90    1.70
 -10   2  -5   15.20    2.10
 -10   2  -5   14.90    1.30
 -10   2  -5   13.10    1.70
 -10   2  -5   14.70    1.20
 -11   2  -5  135.59    5.60
 -11   2  -5  126.49    6.20
 -11   2  -5  127.79    6.60
 -12   2  -5   79.29    3.90
 -12   2  -5   79.29    3.40
  11   1  -5   10.90    1.10
 -11  -1   5   12.10    1.30
  10   1  -5    3.10    0.90
 -10  -1   5    3.30    1.00
   9   1  -5   20.80    1.90
  -9  -1   5   23.10    2.20
   8   1  -5  304.47   13.50
  -8  -1   5  321.87   13.80
   7   1  -5   34.90    2.20
  -7  -1   5   37.00    2.50
   6   1  -5   14.80    2.20
  -6  -1   5   17.20    1.60
   5   1  -5    3.80    0.90
   5   1  -5    5.00    0.70
   5   1  -5    5.40    0.90
   4   1  -5 1246.18   50.39
   4   1  -5 1235.78   50.99
   4   1  -5 1242.48   50.09
   4   1  -5 1263.17   50.69
  -4  -1   5 1175.88   50.29
  -4  -1   5 1205.18   50.69
   3   1  -5  193.78    8.40
   3   1  -5  187.58    8.20
   3   1  -5  190.48    8.30
   3   1  -5  190.18    8.60
  -3  -1   5  188.78    8.40
   2   1  -5  101.99    4.60
   2   1  -5   99.09    4.40
   2   1  -5   97.19    4.50
   2   1  -5   97.99    4.40
  -2  -1   5   92.19    4.40
   1   1  -5    1.80    0.40
   1   1  -5    0.80    0.40
   1   1  -5    1.30    0.40
   1   1  -5    0.90    0.30
   1   1  -5    1.00    0.30
  -1  -1   5    1.30    0.30
   0   1  -5  571.54   23.70
   0   1  -5  600.34   23.90
   0   1  -5  573.84   23.80
   0   1  -5  590.84   23.90
   0   1  -5  576.14   23.70
   0   1  -5  576.04   23.90
  -1   1  -5  338.27   13.90
  -1   1  -5  332.47   13.90
  -1   1  -5  360.36   14.10
  -1   1  -5  313.37   13.90
  -2   1  -5  142.69    6.50
  -2   1  -5  143.89    6.00
  -2   1  -5  143.59    6.00
   2  -1   5  150.48    6.30
  -3   1  -5   13.70    0.80
  -3   1  -5   11.00    0.90
  -3   1  -5   11.90    0.90
  -3   1  -5   13.30    1.20
   3  -1   5   11.60    0.90
   3  -1   5   12.60    0.70
  -4   1  -5   11.60    1.30
  -4   1  -5   15.10    1.20
   4  -1   5   15.00    1.20
  -5   1  -5  956.90   41.10
  -5   1  -5 1035.20   41.50
  -5   1  -5  993.80   40.50
   5  -1   5  989.90   41.10
  -6   1  -5  429.86   18.90
  -6   1  -5  422.26   18.10
   6  -1   5  437.46   19.10
   6  -1   5  470.25   18.90
  -7   1  -5  339.77   14.20
  -7   1  -5  341.17   13.80
   7  -1   5  304.57   14.80
  -8   1  -5   31.90    2.30
  -8   1  -5   28.40    2.00
  -8   1  -5   27.10    2.90
  -8   1  -5   31.60    1.80
  -9   1  -5   12.30    1.60
  -9   1  -5   12.50    2.10
  -9   1  -5   13.70    1.30
  -9   1  -5   12.60    1.10
   9  -1   5   13.10    1.40
 -10   1  -5  240.48    9.90
 -10   1  -5  230.28   11.10
 -10   1  -5  238.88   10.60
  10  -1   5  230.88   10.20
 -11   1  -5  159.18    7.90
 -11   1  -5  171.88    7.60
 -11   1  -5  169.98    7.00
  11  -1   5  156.58    7.20
 -12   1  -5  121.59    5.10
  12   0  -5    0.90    0.50
  11   0  -5    3.40    0.80
 -11   0   5    2.70    0.80
  10   0  -5  157.98    7.30
 -10   0   5  162.78    7.60
   9   0  -5   48.10    3.00
  -9   0   5   53.99    3.30
   8   0  -5   66.29    3.50
  -8   0   5   66.99    3.80
   7   0  -5    9.90    1.20
  -7   0   5   10.60    1.30
   6   0  -5    6.50    1.20
   5   0  -5  271.57   11.40
   5   0  -5  270.77   12.00
   5   0  -5  278.77   11.60
  -5   0   5  262.97   12.10
  -5   0   5  274.27   11.60
   4   0  -5   49.30    2.70
   4   0  -5   44.90    2.40
   4   0  -5   47.40    2.20
   4   0  -5   44.40    2.90
  -4   0   5   46.80    2.70
  -4   0   5   45.30    2.40
   3   0  -5  208.68    9.30
   3   0  -5  214.08    8.90
   3   0  -5  209.88    9.10
  -3   0   5  222.58    8.90
  -3   0   5  190.78    9.10
   2   0  -5   37.20    2.20
   2   0  -5   37.40    2.00
   2   0  -5   40.30    2.00
   2   0  -5   37.10    1.90
   2   0  -5   38.90    2.10
   2   0  -5   34.10    1.70
  -2   0   5   37.60    1.90
   1   0  -5   98.39    4.20
   1   0  -5   92.09    4.10
   1   0  -5   90.19    4.20
   1   0  -5   97.99    4.30
   1   0  -5   92.19    4.20
  -1   0   5   99.79    4.10
   0   0  -5   75.59    3.00
   0   0  -5   72.79    3.20
   0   0  -5   66.99    3.20
   0   0  -5   68.89    3.00
   0   0  -5   75.29    3.20
   0   0  -5   66.19    3.20
  -1   0  -5 1017.50   38.80
  -1   0  -5  901.41   38.90
  -1   0  -5  954.10   38.70
  -1   0  -5  915.91   38.70
  -2   0  -5  241.68   10.40
  -2   0  -5  256.87   10.30
  -2   0  -5  251.87   10.70
  -2   0  -5  233.48   10.30
   2   0   5  261.67   10.60
  -3   0  -5   28.40    1.90
  -3   0  -5   30.80    1.70
   3   0   5   27.10    1.70
  -4   0  -5  318.77   14.60
  -4   0  -5  354.56   14.10
  -4   0  -5  357.56   15.00
   4   0   5  347.17   14.70
  -5   0  -5  505.95   22.00
  -5   0  -5  550.64   23.00
  -5   0  -5  527.05   22.80
   5   0   5  569.64   22.70
  -6   0  -5    1.50    0.70
  -6   0  -5    0.60    0.40
  -6   0  -5    1.80    0.90
   6   0   5    0.90    0.70
  -7   0  -5  256.97   11.20
  -7   0  -5  261.87   10.80
  -7   0  -5  263.77   13.40
   7   0   5  235.08   11.70
  -8   0  -5   41.00    3.30
  -8   0  -5   36.70    2.40
  -8   0  -5   36.10    2.10
  -8   0  -5   35.20    2.50
  -9   0  -5    8.50    0.90
  -9   0  -5    7.90    1.30
  -9   0  -5    6.70    0.90
  -9   0  -5    7.10    1.70
   9   0   5    7.70    1.10
 -10   0  -5   75.59    3.40
 -10   0  -5   73.49    4.50
 -10   0  -5   73.99    4.00
  10   0   5   75.69    3.80
 -11   0  -5   91.29    3.90
 -11   0  -5   87.59    4.80
  11   0   5   88.99    4.20
  12  -1  -5   22.70    1.50
 -12   1   5   26.10    1.70
  11  -1  -5   36.00    2.20
 -11   1   5   31.30    2.30
  10  -1  -5    5.20    1.10
 -10   1   5    6.50    1.30
   9  -1  -5  116.49    5.50
  -9   1   5  112.89    5.70
   8  -1  -5   87.19    4.10
  -8   1   5   75.49    4.30
  -7   1   5   64.39    3.50
   6  -1  -5  372.76   16.20
   5  -1  -5   23.40    1.30
   5  -1  -5   23.50    1.80
   5  -1  -5   23.10    1.50
   5  -1  -5   21.30    2.00
  -5   1   5   19.60    1.70
  -5   1   5   21.70    1.50
   4  -1  -5  302.07   13.80
   4  -1  -5  320.07   14.10
   4  -1  -5  328.67   13.50
   4  -1  -5  303.87   13.30
  -4   1   5  315.17   13.50
  -4   1   5  356.16   13.90
   3  -1  -5   60.69    3.00
   3  -1  -5   67.39    3.20
   3  -1  -5   61.09    3.00
   3  -1  -5   61.99    3.40
  -3   1   5   68.49    3.30
  -3   1   5   64.69    3.10
   2  -1  -5   14.30    1.10
   2  -1  -5   15.10    1.00
   2  -1  -5   13.70    1.10
   2  -1  -5   14.00    1.00
   2  -1  -5   12.40    1.00
  -2   1   5   13.60    1.00
  -2   1   5   14.70    1.00
   1  -1  -5   85.09    3.70
   1  -1  -5   70.49    3.60
   1  -1  -5   82.59    3.60
   1  -1  -5   78.89    3.50
   1  -1  -5   76.79    3.60
  -1   1   5   83.59    3.50
  -1   1   5   78.29    3.60
   0  -1  -5  981.50   40.00
   0  -1  -5  983.90   39.90
   0  -1  -5  944.21   39.90
   0  -1  -5  995.80   39.70
   0   1   5  966.10   39.80
  -1  -1  -5  209.78    9.50
  -1  -1  -5  229.48    9.80
  -1  -1  -5  246.68    9.70
  -1  -1  -5  224.68    9.50
   1   1   5  229.38    9.50
  -2  -1  -5  318.77   12.80
  -2  -1  -5  307.77   12.80
   2   1   5  298.27   12.50
   2   1   5  295.47   12.90
  -3  -1  -5  194.58    7.90
  -3  -1  -5  169.38    8.10
   3   1   5  169.18    7.80
  -4  -1  -5  557.44   22.40
  -4  -1  -5  464.85   22.10
  -4  -1  -5  533.25   21.50
   4   1   5  547.85   22.20
  -5  -1  -5   55.29    3.30
  -5  -1  -5   56.59    2.60
  -5  -1  -5   57.19    3.50
   5   1   5   57.79    3.30
  -6  -1  -5  301.67   13.70
  -6  -1  -5  284.87   13.50
  -6  -1  -5  308.87   12.60
   6   1   5  309.27   13.70
  -7  -1  -5  156.78    6.80
  -7  -1  -5  152.68    7.10
  -7  -1  -5  151.48    7.90
   7   1   5  160.58    7.90
  -8  -1  -5  169.58    7.60
  -8  -1  -5  164.28    7.30
  -8  -1  -5  160.18    8.30
  -9  -1  -5  630.44   26.40
  -9  -1  -5  605.34   25.10
   9   1   5  591.34   25.40
 -10  -1  -5   82.99    4.90
 -10  -1  -5   90.39    3.90
  10   1   5   87.19    4.30
 -11  -1  -5   -0.10    0.70
 -11  -1  -5    0.60    0.40
  11   1   5   -0.20    0.50
  12  -2  -5   84.19    3.80
 -12   2   5   78.89    4.00
  11  -2  -5   70.89    3.60
 -11   2   5   68.49    3.80
  10  -2  -5   75.89    3.90
 -10   2   5   71.79    4.10
   9  -2  -5   18.30    1.70
  -9   2   5   15.90    1.80
   8  -2  -5  353.56   15.10
  -8   2   5  355.06   15.30
  -7   2   5   18.30    1.60
   6  -2  -5   42.50    2.70
  -6   2   5   37.00    2.20
   5  -2  -5  301.97   12.50
   5  -2  -5  298.77   13.20
   5  -2  -5  281.87   12.30
   5  -2  -5  292.57   12.80
  -5   2   5  280.67   12.90
  -5   2   5  310.57   12.60
   4  -2  -5  107.39    4.80
   4  -2  -5  111.09    5.00
   4  -2  -5   98.19    4.80
   4  -2  -5  100.59    5.20
  -4   2   5   99.59    5.00
  -4   2   5  116.29    4.90
   3  -2  -5   41.20    2.20
   3  -2  -5   47.80    2.40
   3  -2  -5   43.50    2.40
   3  -2  -5   43.50    2.50
  -3   2   5   42.60    2.40
  -3   2   5   41.10    2.20
   2  -2  -5   63.99    3.00
   2  -2  -5   59.59    3.00
   2  -2  -5   66.19    3.20
  -2   2   5   59.59    2.90
  -2   2   5   61.49    3.00
   1  -2  -5  518.35   22.20
   1  -2  -5  465.85   22.10
   1  -2  -5  574.84   22.30
   1  -2  -5  535.55   22.30
  -1   2   5  581.44   22.20
  -1   2   5  545.65   22.10
   0  -2  -5   31.60    1.70
   0  -2  -5   27.30    1.60
   0  -2  -5   29.40    1.80
   0  -2  -5   29.50    1.70
   0   2   5   35.00    1.60
   0   2   5   28.70    1.50
  -1  -2  -5    9.30    0.80
  -1  -2  -5    8.30    1.00
   1   2   5    8.30    0.90
   1   2   5    8.60    0.60
  -2  -2  -5   15.20    1.40
  -2  -2  -5   11.60    1.10
   2   2   5   13.10    1.10
  -3  -2  -5   42.80    2.40
  -3  -2  -5   38.10    1.80
  -3  -2  -5   41.20    2.60
   3   2   5   35.50    2.30
  -4  -2  -5   34.80    2.40
  -4  -2  -5   31.70    2.20
  -4  -2  -5   27.60    1.50
   4   2   5   30.00    2.10
  -5  -2  -5   14.80    1.80
  -5  -2  -5   14.70    1.70
  -5  -2  -5   15.20    1.10
   5   2   5   15.10    1.60
  -6  -2  -5   35.60    1.90
  -6  -2  -5   32.40    2.80
  -7  -2  -5    2.50    0.80
  -7  -2  -5    4.50    1.40
  -7  -2  -5    2.80    0.90
  -7  -2  -5    3.40    0.70
  -8  -2  -5   94.39    4.80
  -8  -2  -5   95.49    4.30
  -8  -2  -5   94.29    4.40
  -8  -2  -5   93.49    5.60
  -9  -2  -5  124.29    6.80
  -9  -2  -5  128.69    5.60
   9   2   5  128.69    6.00
 -10  -2  -5   33.40    2.70
 -10  -2  -5   34.50    1.80
  10   2   5   38.40    2.20
  11   2   5   17.80    1.30
  12  -3  -5  358.16   14.40
 -12   3   5  327.07   14.60
  11  -3  -5   15.20    1.50
 -11   3   5   10.30    1.40
  10  -3  -5   57.39    3.10
 -10   3   5   54.89    3.40
   9  -3  -5    2.00    0.80
  -9   3   5    2.40    0.90
   8  -3  -5   64.89    3.50
  -8   3   5   71.79    3.80
   6  -3  -5    4.10    0.90
  -6   3   5    6.30    0.90
   5  -3  -5   96.09    4.80
   5  -3  -5  100.29    5.50
   5  -3  -5   90.79    4.70
   5  -3  -5  101.39    4.30
  -5   3   5  106.59    4.60
  -5   3   5   89.39    4.90
   4  -3  -5   11.50    1.40
   4  -3  -5   12.60    0.90
   4  -3  -5   14.30    1.20
   4  -3  -5   13.20    1.30
  -4   3   5   11.40    1.20
  -4   3   5   11.30    1.00
   3  -3  -5   52.39    3.00
   3  -3  -5   48.10    2.40
   3  -3  -5   51.09    2.70
   3  -3  -5   62.79    3.00
  -3   3   5   52.89    2.70
  -3   3   5   51.49    2.80
   2  -3  -5  937.71   39.20
   2  -3  -5  935.21   39.10
   2  -3  -5 1012.90   39.20
  -2   3   5  894.01   39.10
  -2   3   5  972.10   39.00
   1  -3  -5    4.60    0.80
   1  -3  -5    5.80    0.80
   1  -3  -5    4.90    0.70
  -1   3   5    3.60    0.50
  -1   3   5    5.30    0.70
   0  -3  -5  117.79    5.30
   0  -3  -5  117.19    5.50
   0  -3  -5  112.79    5.30
   0   3   5  111.29    5.10
   0   3   5  124.79    5.30
  -1  -3  -5   31.90    2.10
  -1  -3  -5   32.30    1.90
  -1  -3  -5   30.90    1.50
   1   3   5   29.10    1.60
   1   3   5   32.60    1.90
   1   3   5   32.80    1.90
  -2  -3  -5  771.72   33.50
  -2  -3  -5  801.02   32.80
  -2  -3  -5  841.32   33.50
   2   3   5  802.32   33.30
  -3  -3  -5  151.08    6.90
  -3  -3  -5  138.39    6.00
  -3  -3  -5  134.59    6.70
   3   3   5  146.49    6.70
  -4  -3  -5  423.16   18.50
  -4  -3  -5  423.16   18.60
  -4  -3  -5  424.46   17.60
   4   3   5  434.06   18.40
  -5  -3  -5  189.58    7.70
  -5  -3  -5  173.68    8.60
  -5  -3  -5  168.68    8.60
  -6  -3  -5    3.30    0.80
  -6  -3  -5    5.70    1.50
  -6  -3  -5    3.50    0.70
  -6  -3  -5    2.50    1.10
  -7  -3  -5   34.70    2.00
  -7  -3  -5   29.70    3.10
  -7  -3  -5   33.30    1.90
  -7  -3  -5   35.30    2.40
  -8  -3  -5   90.99    4.50
  -8  -3  -5   86.59    4.00
  -8  -3  -5   85.39    5.30
  -9  -3  -5    8.20    0.80
  -9  -3  -5    6.60    1.50
   9   3   5    7.20    1.10
 -10  -3  -5   37.50    2.60
 -10  -3  -5   39.10    1.80
  10   3   5   37.80    2.20
  12  -4  -5   34.20    1.90
 -12   4   5   32.60    2.20
  11  -4  -5   36.90    2.30
 -11   4   5   38.90    2.60
  10  -4  -5  315.67   13.70
 -10   4   5  326.37   14.10
   9  -4  -5  294.97   12.20
  -9   4   5  271.17   12.40
   8  -4  -5   52.89    2.80
  -8   4   5   49.20    3.00
   7  -4  -5  320.37   14.40
   6  -4  -5    9.90    1.30
  -6   4   5    9.20    1.10
   5  -4  -5  398.26   18.80
   5  -4  -5  444.06   18.40
   5  -4  -5  479.15   19.10
  -5   4   5  458.55   18.80
   4  -4  -5   31.50    2.30
   4  -4  -5   31.20    2.20
   4  -4  -5   30.50    2.00
  -4   4   5   31.50    1.90
  -4   4   5   32.30    2.20
   3  -4  -5 1080.19   44.70
   3  -4  -5 1132.39   44.90
   3  -4  -5 1104.69   44.30
   3  -4  -5 1109.29   45.00
  -3   4   5 1147.39   44.60
  -3   4   5  941.61   44.80
   2  -4  -5  465.15   18.90
   2  -4  -5  455.05   18.90
   2  -4  -5  452.15   18.70
   2  -4  -5  417.86   18.30
  -2   4   5  438.16   18.80
  -2   4   5  441.46   18.60
   1  -4  -5  192.28    8.00
   1  -4  -5  189.08    8.60
   1  -4  -5  187.28    8.60
   1  -4  -5  178.68    8.40
  -1   4   5  193.48    8.20
  -1   4   5  207.48    8.50
   0  -4  -5   37.20    2.30
   0  -4  -5   37.20    2.40
   0  -4  -5   38.00    1.80
   0   4   5   38.00    1.90
   0   4   5   37.20    2.30
   0   4   5   36.00    2.10
  -1  -4  -5   60.89    3.50
  -1  -4  -5   60.99    2.90
  -1  -4  -5   67.39    3.50
   1   4   5   66.29    3.30
   1   4   5   67.29    3.50
   1   4   5   63.09    3.00
  -2  -4  -5  130.79    6.30
  -2  -4  -5  120.99    5.40
  -2  -4  -5  124.89    6.10
   2   4   5  128.39    6.10
   2   4   5  126.29    6.00
  -3  -4  -5   10.20    1.50
  -3  -4  -5   10.80    1.50
  -3  -4  -5   11.30    0.90
   3   4   5   10.50    1.40
   3   4   5   11.60    1.40
  -4  -4  -5   19.90    2.00
  -4  -4  -5   18.80    2.00
  -4  -4  -5   18.90    1.30
   4   4   5   17.20    1.90
   4   4   5   22.50    1.60
   4   4   5   18.20    1.80
  -5  -4  -5    5.00    1.30
  -5  -4  -5    6.10    1.00
  -5  -4  -5    5.20    1.40
  -5  -4  -5    5.10    0.70
  -6  -4  -5   13.10    1.40
  -6  -4  -5   15.40    1.30
  -6  -4  -5   12.20    1.10
  -6  -4  -5   12.50    1.90
  -7  -4  -5   22.20    1.90
  -7  -4  -5   22.40    2.60
  -7  -4  -5   20.40    1.50
  -8  -4  -5   36.70    3.20
  -8  -4  -5   39.60    2.10
   8   4   5   41.20    2.50
  -9  -4  -5    1.60    1.00
  -9  -4  -5    1.10    0.40
   9   4   5    1.30    0.70
 -10  -4  -5    2.70    0.80
  10   4   5    2.50    0.60
 -12   5   5   54.19    2.90
 -11   5   5  226.08   10.10
 -10   5   5  176.38    8.20
  -9   5   5  271.57   12.00
  -8   5   5  707.63   29.50
  -7   5   5   61.29    3.40
   6  -5  -5   94.89    5.10
  -6   5   5   97.19    4.80
   5  -5  -5    3.80    1.00
   5  -5  -5    3.80    0.80
  -5   5   5    3.80    0.80
   4  -5  -5 1612.44   64.39
   4  -5  -5 1462.15   64.49
   4  -5  -5 1580.44   63.59
   4  -5  -5 1701.43   64.09
  -4   5   5 1468.15   64.29
  -4   5   5 1535.45   63.99
   3  -5  -5   35.50    1.80
   3  -5  -5   39.30    2.50
   3  -5  -5   36.70    2.20
   3  -5  -5   37.00    2.50
  -3   5   5   31.60    2.30
  -3   5   5   34.60    2.10
   2  -5  -5  126.19    5.40
   2  -5  -5  126.49    5.80
   2  -5  -5  122.89    6.10
   2  -5  -5  122.69    6.10
  -2   5   5  131.09    6.10
  -2   5   5  124.89    5.70
   1  -5  -5  831.52   35.10
   1  -5  -5  808.62   34.40
   1  -5  -5  885.71   35.20
   1  -5  -5  820.62   34.80
  -1   5   5  878.41   34.80
  -1   5   5  828.72   35.10
  -1   5   5  833.92   34.60
   0  -5  -5 1326.57   53.09
   0  -5  -5 1267.47   53.79
   0  -5  -5 1243.98   53.79
   0   5   5 1296.97   53.79
   0   5   5 1309.27   53.49
   0   5   5 1360.96   53.29
  -1  -5  -5  233.08   10.30
  -1  -5  -5  222.48    9.50
  -1  -5  -5  230.78   10.40
   1   5   5  233.88   10.10
   1   5   5  213.88   10.30
  -2  -5  -5  581.24   23.90
  -2  -5  -5  562.04   22.90
  -2  -5  -5  574.34   23.90
   2   5   5  506.75   23.80
   2   5   5  556.94   23.50
  -3  -5  -5  211.28    8.90
  -3  -5  -5  196.88    9.80
  -3  -5  -5  210.58    9.80
   3   5   5  206.88    9.60
   3   5   5  209.78   10.00
  -4  -5  -5  112.59    6.40
  -4  -5  -5  111.29    6.20
  -4  -5  -5  115.09    6.20
  -4  -5  -5  128.49    5.20
   4   5   5  104.19    5.20
  -5  -5  -5   86.29    5.10
  -5  -5  -5   82.29    4.30
  -5  -5  -5   80.39    3.80
  -5  -5  -5   86.99    4.00
  -6  -5  -5  242.88   10.90
  -6  -5  -5  249.58   10.50
  -6  -5  -5  251.07   11.90
  -7  -5  -5  127.29    7.00
  -7  -5  -5  130.29    6.20
  -7  -5  -5  132.39    5.70
  -8  -5  -5   20.10    2.30
  -8  -5  -5   19.40    1.20
   8   5   5   19.10    1.70
  -9  -5  -5    1.00    0.80
   9   5   5    1.70    0.60
  -9   6   5  448.16   19.00
  -8   6   5  151.88    7.00
   7  -6  -5  354.96   17.10
  -7   6   5  398.86   16.40
  -7   6   5  398.86   16.60
   6  -6  -5  119.99    6.70
  -6   6   5  145.79    6.40
   5  -6  -5 1263.77   55.49
  -5   6   5 1407.36   55.09
   4  -6  -5  258.17   11.80
  -4   6   5  259.87   11.30
   3  -6  -5    3.00    0.50
   3  -6  -5    3.00    1.00
  -3   6   5    1.70    0.60
   2  -6  -5  270.07   12.90
   2  -6  -5  286.57   12.10
   2  -6  -5  291.07   12.50
   2  -6  -5  300.57   13.00
  -2   6   5  293.47   12.40
  -2   6   5  288.57   12.40
  -2   6   5  286.87   12.90
   1  -6  -5  390.76   16.90
   1  -6  -5  384.16   16.00
   1  -6  -5  403.46   16.90
  -1   6   5  374.96   16.80
  -1   6   5  381.46   16.20
  -1   6   5  376.56   16.40
   0  -6  -5  172.28    7.20
   0  -6  -5  173.58    8.10
   0  -6  -5  165.38    8.10
   0   6   5  173.68    7.40
   0   6   5  159.68    7.60
   0   6   5  161.98    8.00
  -1  -6  -5  559.14   25.10
  -1  -6  -5  611.54   25.10
  -1  -6  -5  607.54   24.10
   1   6   5  556.94   25.10
   1   6   5  583.64   24.70
  -2  -6  -5   19.60    2.10
  -2  -6  -5   19.90    1.30
   2   6   5   18.10    1.40
   2   6   5   17.70    1.80
  -3  -6  -5   30.20    2.70
  -3  -6  -5   29.70    2.60
  -3  -6  -5   31.40    1.80
   3   6   5   28.30    1.90
  -4  -6  -5  264.97   12.10
  -4  -6  -5  253.47   10.70
  -4  -6  -5  258.87   10.90
  -4  -6  -5  256.67   11.10
   4   6   5  239.38   10.90
  -5  -6  -5  128.29    5.60
  -5  -6  -5  126.39    6.00
  -5  -6  -5  126.69    6.90
  -6  -6  -5    9.80    1.80
  -6  -6  -5   10.60    1.00
  -6  -6  -5   10.30    1.30
  -7  -6  -5    2.50    1.20
  -7  -6  -5    2.70    0.50
   7   6   5    1.70    0.70
  -8  -6  -5    9.10    0.70
  -8  -6  -5   11.70    1.70
   8   6   5    9.90    1.00
 -10   7   5  171.08    7.80
  -9   7   5   74.59    3.90
  -8   7   5  418.16   17.80
   7  -7  -5   42.90    3.40
  -7   7   5   46.30    2.90
  -7   7   5   42.80    2.70
   6  -7  -5  259.27   12.20
  -6   7   5  267.07   11.60
  -6   7   5  248.98   11.30
   5  -7  -5   68.89    4.30
  -5   7   5   73.89    3.90
   4  -7  -5   85.19    4.80
  -4   7   5   77.89    4.20
   3  -7  -5    9.00    1.60
  -3   7   5   10.70    1.30
   2  -7  -5  109.59    5.00
   2  -7  -5  102.79    5.70
  -2   7   5  111.49    5.20
   1  -7  -5  128.09    5.90
   1  -7  -5  141.29    7.00
  -1   7   5  137.59    6.30
   0  -7  -5  743.33   30.90
   0  -7  -5  703.53   29.80
   0   7   5  722.83   29.90
  -1  -7  -5   15.60    2.00
  -1  -7  -5   13.50    1.20
   1   7   5   14.50    1.20
  -2  -7  -5  112.49    6.30
  -2  -7  -5  116.09    6.40
  -2  -7  -5  122.49    5.20
   2   7   5  117.79    5.40
  -3  -7  -5   83.89    5.10
  -3  -7  -5   87.59    3.90
   3   7   5   81.59    4.10
  -4  -7  -5  306.77   12.60
  -4  -7  -5  301.87   14.00
  -4  -7  -5  304.37   13.10
   4   7   5  296.97   12.90
  -5  -7  -5    1.50    1.30
  -5  -7  -5    1.30    0.80
  -5  -7  -5    1.90    0.60
  -6  -7  -5   57.09    4.00
  -6  -7  -5   57.29    2.70
   6   7   5   59.89    3.10
  -7  -7  -5    1.30    1.00
   7   7   5    2.30    0.70
  -8  -7  -5    8.20    1.20
 -10   8   5   33.20    2.30
  -9   8   5    3.90    1.00
  -8   8   5  289.27   12.70
  -7   8   5  894.71   37.20
   6  -8  -5   86.09    5.50
   6  -8  -5   90.49    3.80
  -6   8   5   81.79    4.30
  -6   8   5   80.69    5.40
   5  -8  -5    5.80    0.90
   5  -8  -5    6.20    1.50
  -5   8   5    5.50    1.00
  -5   8   5    6.90    1.30
   4  -8  -5    5.60    1.40
  -4   8   5    6.20    1.10
   3  -8  -5   29.70    1.90
   3  -8  -5   21.30    2.40
  -3   8   5   19.90    1.90
   2  -8  -5  309.57   14.20
  -2   8   5  315.77   13.50
  -2   8   5  303.57   13.10
   1  -8  -5   50.89    3.60
  -1   8   5   52.79    2.80
  -1   8   5   52.29    3.00
   0  -8  -5    2.70    0.60
   0  -8  -5    3.10    1.20
   0  -8  -5    3.30    1.20
   0   8   5    3.80    0.80
  -1  -8  -5  171.88    9.60
  -1  -8  -5  164.28    8.30
  -1  -8  -5  163.88    7.00
   1   8   5  160.18    7.40
  -2  -8  -5  219.88   10.40
  -2  -8  -5  207.48    9.00
   2   8   5  209.48    9.30
  -3  -8  -5  115.69    6.50
  -3  -8  -5  112.69    5.10
   3   8   5  116.99    5.50
  -4  -8  -5   82.99    5.20
  -4  -8  -5   90.69    3.90
   4   8   5   85.39    4.30
  -5  -8  -5    9.00    0.80
  -5  -8  -5    9.10    1.70
   5   8   5    9.50    1.30
  -6  -8  -5   23.00    2.30
  -7  -8  -5   40.50    2.60
 -11   9   5    1.10    0.70
 -10   9   5   28.80    2.10
  -9   9   5   43.50    2.80
  -8   9   5  113.19    5.70
  -7   9   5  179.48    8.30
  -6   9   5  207.98    9.40
   5  -9  -5   16.10    1.10
  -5   9   5   19.00    1.70
   4  -9  -5   14.30    1.10
  -4   9   5   13.40    1.50
   3  -9  -5   74.59    3.40
  -3   9   5   74.59    3.70
   2  -9  -5  131.99    5.80
  -2   9   5  133.39    6.20
  -2   9   5  140.89    7.50
   1  -9  -5   74.59    3.30
   1  -9  -5   70.09    5.10
  -1   9   5   70.19    3.70
   0  -9  -5    2.70    1.20
   0  -9  -5    2.00    0.60
   0   9   5    1.60    0.80
  -1  -9  -5   51.29    2.50
  -1  -9  -5   49.20    3.70
   1   9   5   48.60    2.90
  -2  -9  -5  141.19    6.00
  -2  -9  -5  139.79    7.40
   2   9   5  136.89    6.50
  -3  -9  -5   53.89    2.50
  -3  -9  -5   51.49    3.90
   3   9   5   53.79    3.00
  -4  -9  -5  238.68   11.20
  -4  -9  -5  235.18    9.80
   4   9   5  234.58   10.20
  -5  -9  -5    9.10    1.50
  -6  -9  -5    9.90    1.40
 -11  10   5    5.30    0.80
 -10  10   5   33.10    2.30
  -9  10   5    5.30    1.10
  -8  10   5    3.10    1.00
  -7  10   5    4.00    1.10
  -6  10   5    5.30    1.20
  -5  10   5   30.10    2.30
  -4  10   5    3.00    0.90
   3 -10  -5   86.29    3.90
  -3  10   5   89.19    4.30
   2 -10  -5    9.30    0.80
  -2  10   5    9.30    1.20
   1 -10  -5    1.90    1.20
   1 -10  -5    2.80    0.50
  -1  10   5    2.90    0.90
   0 -10  -5   36.00    3.20
   0 -10  -5   38.50    1.90
   0  10   5   36.60    2.40
  -1 -10  -5   16.30    2.40
  -1 -10  -5   15.50    1.10
   1  10   5   18.10    1.70
  -2 -10  -5   11.90    1.90
   2  10   5   11.10    1.30
  -3 -10  -5   16.60    2.20
   3  10   5   14.00    1.50
  -4 -10  -5  137.49    6.90
   4  10   5  141.39    6.20
  -5 -10  -5   27.20    2.10
 -11  11   5    4.20    0.90
 -10  11   5   19.00    1.60
  -9  11   5    2.50    0.90
  -8  11   5    6.60    1.20
  -7  11   5    1.10    1.00
  -6  11   5   39.60    2.70
  -5  11   5    5.50    1.10
  -3  11   5    1.00    0.70
  -2  11   5   70.99    3.70
   1 -11  -5    8.70    1.60
  -1  11   5   12.90    1.40
   0 -11  -5    3.50    1.30
   0  11   5    2.50    0.90
  -1 -11  -5   19.20    2.30
   1  11   5   16.50    1.60
  -2 -11  -5  102.89    5.50
   2  11   5  105.29    4.90
  -3 -11  -5    9.90    1.40
   3  11   5    8.80    1.00
  -4 -11  -5   21.20    1.70
 -10  12   5   10.70    1.10
  -9  12   5   47.70    2.70
  -8  12   5    6.00    1.10
  -7  12   5   33.80    2.30
  -6  12   5   23.40    1.90
  -5  12   5   31.80    2.20
  -3  12   5    1.50    0.70
  -2  12   5    6.70    1.00
   1 -12  -5    4.70    1.40
  -1  12   5    5.80    0.90
   0 -12  -5    2.50    1.00
   0  12   5    2.90    0.80
  -1 -12  -5   44.30    3.00
   1  12   5   48.70    2.50
  -2 -12  -5    7.30    1.10
   2  12   5    6.80    0.90
  -9  13   5   20.80    1.70
  -8  13   5   17.40    1.30
  -7  13   5  111.99    5.10
  -6  13   5   12.80    1.20
  -2  13   5   31.20    1.90
  -1  13   5   25.00    1.60
   4 -14   6   47.50    3.00
   5 -14   6   24.70    2.60
   0 -13   6   85.69    4.30
   1 -13   6   37.20    2.60
   2 -13   6  108.39    5.60
  -3  13  -6   43.30    2.50
   3 -13   6   44.30    3.20
  -4  13  -6    4.00    0.80
   4 -13   6    1.20    1.30
  -5  13  -6   15.30    1.50
   5 -13   6   14.00    2.10
  -6  13  -6   63.19    3.40
   6 -13   6   62.39    4.40
  -7  13  -6   44.30    2.60
   7 -13   6   48.40    3.80
  -8  13  -6    2.10    0.60
   8 -13   6    0.60    1.40
   1  12  -6    7.70    0.90
  -1 -12   6    9.20    1.40
   0  12  -6   21.30    1.60
   0 -12   6   22.50    2.30
  -1  12  -6  105.89    5.20
   1 -12   6  111.89    5.90
  -2  12  -6    3.20    0.90
   2 -12   6    1.60    1.40
  -3  12  -6    0.40    0.80
   3 -12   6    0.80    1.70
  -4  12  -6   28.40    2.30
   4 -12   6   34.50    4.50
  -5  12  -6    8.00    1.30
   5 -12   6   16.30    3.10
  -6  12  -6  131.59    6.20
  -6  12  -6  124.59    7.10
  -7  12  -6    1.40    0.80
  -7  12  -6    0.00    1.30
  -8  12  -6    2.70    0.80
  -8  12  -6    0.60    1.20
  -9  12  -6   -0.40    1.00
  -9  12  -6    1.40    0.60
   3  11  -6   38.60    2.30
  -3 -11   6   43.80    2.60
   2  11  -6    3.10    0.80
  -2 -11   6    1.90    1.00
   1  11  -6   38.10    2.40
  -1 -11   6   40.30    3.10
   0  11  -6    8.90    1.20
   0 -11   6    9.50    1.80
  -1  11  -6   12.30    1.40
  -1  11  -6    9.70    1.30
   1 -11   6   11.00    2.00
  -2  11  -6    3.50    1.00
   2 -11   6    6.20    2.20
  -3  11  -6    5.00    1.20
   3 -11   6    7.60    2.90
  -4  11  -6   34.10    3.90
  -4  11  -6   40.40    2.80
  -5  11  -6   44.20    2.90
  -5  11  -6   42.70    4.30
  -6  11  -6   33.50    2.50
  -6  11  -6   30.50    3.80
  -7  11  -6   46.40    4.00
  -7  11  -6   39.50    2.80
  -7  11  -6   43.40    2.90
  -8  11  -6   13.90    1.70
  -8  11  -6   14.90    2.30
  -8  11  -6   12.70    1.50
  -9  11  -6   17.20    1.50
  -9  11  -6   13.70    2.10
  -9  11  -6   14.00    1.60
 -10  11  -6   27.00    2.40
   4  10  -6   14.10    1.30
   3  10  -6    3.30    0.90
  -3 -10   6    4.00    1.20
   2  10  -6  134.79    6.30
  -2 -10   6  133.99    7.00
   1  10  -6   37.90    2.50
  -1 -10   6   39.70    3.30
   0  10  -6   52.59    3.10
   0 -10   6   55.09    4.00
  -1  10  -6  309.27   13.50
  -1  10  -6  298.37   13.60
   1 -10   6  335.27   14.90
  -2  10  -6   27.70    2.10
  -2  10  -6   21.10    2.00
   2 -10   6   14.90    3.40
  -3  10  -6    6.80    1.40
  -3  10  -6    4.50    1.10
  -3  10  -6    5.50    2.00
  -4  10  -6    5.30    1.20
  -4  10  -6    5.70    1.20
  -4  10  -6    6.80    1.00
  -4  10  -6    4.50    1.90
  -5  10  -6    3.80    1.10
  -5  10  -6    3.60    1.80
  -5  10  -6    4.10    0.80
  -5  10  -6    3.80    1.10
  -6  10  -6   17.40    1.40
  -6  10  -6   18.50    2.00
  -6  10  -6   13.60    1.70
  -6  10  -6   17.60    2.60
  -7  10  -6   13.30    1.60
  -7  10  -6   11.30    1.60
  -7  10  -6   10.40    1.10
  -7  10  -6   15.10    2.40
  -8  10  -6   66.79    3.60
  -8  10  -6   59.79    3.20
  -8  10  -6   67.39    3.10
  -8  10  -6   61.89    3.70
  -8  10  -6   62.49    4.60
  -9  10  -6  123.19    6.00
  -9  10  -6  131.59    5.60
  -9  10  -6  126.79    6.20
  -9  10  -6  126.39    6.90
 -10  10  -6   47.60    2.90
 -10  10  -6   47.50    3.40
   5   9  -6    9.90    1.10
   4   9  -6    8.40    1.20
   3   9  -6   62.09    3.40
  -3  -9   6   60.19    4.00
   2   9  -6  137.09    6.40
  -2  -9   6  131.59    7.10
   1   9  -6  323.57   13.80
   1   9  -6  324.27   15.80
  -1  -9   6  311.77   14.60
   0   9  -6    1.90    0.90
   0   9  -6    2.50    0.90
   0   9  -6   -1.20    1.00
   0  -9   6    1.10    1.40
  -1   9  -6    1.40    0.90
  -1   9  -6    2.40    0.70
  -1   9  -6    2.70    0.90
  -1   9  -6    0.80    1.10
  -2   9  -6   76.99    3.90
  -2   9  -6   82.09    4.40
  -2   9  -6   82.89    4.20
  -2   9  -6   76.29    5.20
  -3   9  -6  788.92   31.80
  -3   9  -6  751.32   33.20
  -3   9  -6  767.92   32.30
  -3   9  -6  768.12   32.10
  -4   9  -6   77.09    5.10
  -4   9  -6   76.49    4.00
  -4   9  -6   67.89    4.00
  -4   9  -6   73.09    3.60
  -5   9  -6   34.60    3.40
  -5   9  -6   37.60    2.10
  -5   9  -6   36.20    2.60
  -5   9  -6   33.30    2.50
  -6   9  -6   66.09    4.60
  -6   9  -6   66.19    3.80
  -6   9  -6   65.49    3.70
  -6   9  -6   59.19    3.20
  -7   9  -6   70.79    3.60
  -7   9  -6   76.19    4.10
  -7   9  -6   76.19    4.20
  -7   9  -6   70.29    5.10
  -8   9  -6   35.80    2.70
  -8   9  -6   41.70    2.90
  -8   9  -6   41.60    3.70
  -8   9  -6   40.30    2.30
  -9   9  -6   45.60    2.60
  -9   9  -6   49.80    3.80
  -9   9  -6   50.69    3.20
  -9   9  -6   46.70    2.40
 -10   9  -6   33.90    2.90
 -10   9  -6   36.50    2.60
 -10   9  -6   36.10    1.90
 -11   9  -6    3.00    0.50
 -11   9  -6    3.00    0.90
   6   8  -6    2.90    0.70
   5   8  -6   36.20    2.30
   4   8  -6   25.50    2.00
  -4  -8   6   22.90    2.00
   3   8  -6    0.90    0.90
   2   8  -6   77.49    4.50
   2   8  -6   75.39    4.20
  -2  -8   6   91.79    4.80
   1   8  -6   29.80    2.60
   1   8  -6   34.90    2.30
   1   8  -6   31.60    2.00
   0   8  -6  132.89    6.50
   0   8  -6  131.09    5.80
   0   8  -6  125.39    6.30
   0   8  -6  140.59    6.10
   0   8  -6  124.39    6.00
   0  -8   6  111.59    7.50
  -1   8  -6   71.09    3.70
  -1   8  -6   67.49    4.70
  -1   8  -6   74.89    4.00
  -1   8  -6   67.39    4.00
  -1   8  -6   73.69    3.70
  -2   8  -6   43.30    2.60
  -2   8  -6   42.90    2.30
  -2   8  -6   43.40    2.90
  -2   8  -6   39.10    2.60
  -2   8  -6   37.50    3.50
  -3   8  -6  112.19    5.90
  -3   8  -6  112.29    6.40
  -3   8  -6  116.29    5.70
  -3   8  -6  114.69    5.60
  -3   8  -6  119.79    5.20
  -4   8  -6  117.49    5.10
  -4   8  -6  115.19    5.60
  -4   8  -6  120.89    5.90
  -4   8  -6  105.69    6.20
  -4   8  -6  112.29    5.50
  -5   8  -6    3.70    0.70
  -5   8  -6    3.60    1.30
  -5   8  -6    4.00    1.10
  -5   8  -6    5.00    1.00
  -5   8  -6    3.60    1.00
   5  -8   6    3.60    1.20
  -6   8  -6   17.80    2.40
  -6   8  -6   11.30    1.40
  -6   8  -6   14.50    1.70
  -6   8  -6   15.10    1.30
  -7   8  -6   96.09    5.90
  -7   8  -6  106.29    4.70
  -7   8  -6  101.49    5.20
  -7   8  -6   91.89    4.90
  -8   8  -6   31.90    3.40
  -8   8  -6   38.80    2.80
  -8   8  -6   38.00    2.20
  -9   8  -6    0.80    1.20
  -9   8  -6    0.00    0.50
  -9   8  -6    0.40    1.00
  -9   8  -6    1.30    0.60
 -10   8  -6   17.20    2.30
 -10   8  -6   19.10    1.30
 -10   8  -6   16.70    1.90
 -11   8  -6   10.70    0.90
 -11   8  -6    9.10    1.30
 -11   8  -6    9.20    1.50
 -12   8  -6   60.49    3.40
 -12   8  -6   63.29    2.80
   6   7  -6    1.60    0.70
  -6  -7   6    1.00    0.80
   5   7  -6   22.60    1.90
  -5  -7   6   21.90    2.00
   4   7  -6   11.80    1.40
  -4  -7   6    9.40    1.40
   3   7  -6  102.19    5.40
   3   7  -6  104.89    5.10
   2   7  -6   56.39    4.40
   2   7  -6   53.29    3.40
   2   7  -6   55.99    3.00
   2   7  -6   50.59    2.80
   1   7  -6  196.28    9.00
   1   7  -6  205.28    8.50
   1   7  -6  198.28    8.70
   1   7  -6  183.78    9.00
   0   7  -6   49.70    2.50
   0   7  -6   45.50    3.40
   0   7  -6   48.70    3.00
   0   7  -6   53.99    3.00
   0   7  -6   45.80    2.70
  -1   7  -6  168.28    7.70
  -1   7  -6  164.88    8.00
  -1   7  -6  170.78    7.10
  -1   7  -6  154.28    7.50
  -2   7  -6  207.78    8.80
  -2   7  -6  206.38    9.40
  -2   7  -6  207.18    9.80
  -3   7  -6   15.70    1.60
  -3   7  -6   12.60    1.00
  -3   7  -6   12.30    1.60
  -4   7  -6   16.80    1.80
  -4   7  -6   18.40    1.70
  -4   7  -6   15.90    1.60
  -4   7  -6   17.90    1.20
   4  -7   6   16.60    1.90
  -5   7  -6  123.59    6.20
  -5   7  -6  138.49    6.40
  -5   7  -6  131.89    5.70
   5  -7   6  130.29    6.80
  -6   7  -6  159.78    6.80
  -6   7  -6  155.88    8.00
  -6   7  -6  164.18    7.40
  -6   7  -6  148.69    7.10
   6  -7   6  149.69    7.90
  -7   7  -6  283.27   12.60
  -7   7  -6  286.27   12.00
  -7   7  -6  280.17   13.30
  -8   7  -6    7.20    1.40
  -8   7  -6    6.30    1.60
  -8   7  -6    6.70    0.90
  -9   7  -6    3.40    0.70
  -9   7  -6    2.00    1.20
  -9   7  -6    2.40    1.40
 -10   7  -6    8.00    1.50
 -10   7  -6    8.90    1.70
 -10   7  -6    9.00    0.90
 -10   7  -6    9.00    1.00
 -11   7  -6   36.00    1.90
 -11   7  -6   38.20    2.60
 -11   7  -6   34.80    2.80
 -12   7  -6   28.90    1.40
 -12   7  -6   23.70    1.90
  -8  -6   6   19.70    1.50
  -7  -6   6   46.70    2.80
   6   6  -6   28.10    2.00
  -6  -6   6   27.90    2.30
   5   6  -6  139.49    6.40
  -5  -6   6  136.29    6.60
   4   6  -6  311.37   13.30
  -4  -6   6  305.57   13.50
   3   6  -6    1.80    0.70
   3   6  -6    1.40    0.80
   2   6  -6   12.40    1.60
   2   6  -6   15.50    1.20
   2   6  -6   13.90    1.60
   2   6  -6   16.40    1.40
   1   6  -6   49.20    2.90
   1   6  -6   42.30    3.20
   1   6  -6   51.29    2.50
   1   6  -6   48.60    2.90
   0   6  -6  176.88    7.60
   0   6  -6  180.58    8.10
   0   6  -6  167.98    8.40
   0   6  -6  184.58    8.10
  -1   6  -6  143.49    7.20
  -1   6  -6  165.38    7.10
  -1   6  -6  156.38    6.50
  -1   6  -6  142.99    6.90
  -2   6  -6   19.70    1.70
  -2   6  -6   20.70    1.70
  -2   6  -6   20.70    1.20
  -3   6  -6    7.70    1.20
  -3   6  -6    8.50    0.70
  -3   6  -6    8.10    1.20
   3  -6   6    7.70    1.20
  -4   6  -6   33.90    2.30
  -4   6  -6   35.20    1.70
  -4   6  -6   35.00    2.40
   4  -6   6   35.40    2.60
  -5   6  -6   77.79    3.40
  -5   6  -6   71.69    3.90
  -5   6  -6   73.89    4.10
   5  -6   6   75.59    4.40
  -6   6  -6  112.09    5.70
  -6   6  -6  124.09    5.20
   6  -6   6  117.69    6.30
  -7   6  -6   59.69    4.10
  -7   6  -6   64.89    3.00
  -7   6  -6   57.39    3.50
   7  -6   6   58.39    4.10
  -8   6  -6   45.40    3.60
  -8   6  -6   49.00    2.50
  -8   6  -6   47.90    3.20
  -9   6  -6   47.70    2.50
  -9   6  -6   45.10    3.20
  -9   6  -6   45.40    3.70
 -10   6  -6  216.78    9.50
 -10   6  -6  213.78   10.20
 -10   6  -6  223.68    9.30
 -10   6  -6  227.78   10.70
 -11   6  -6  165.78    8.30
 -11   6  -6  174.08    7.30
 -11   6  -6  172.28    8.00
 -12   6  -6  247.68   10.90
 -12   6  -6  251.57   10.40
  -9  -5   6   90.59    4.30
  -8  -5   6   25.70    2.00
  -7  -5   6    4.40    1.10
   6   5  -6   82.59    4.20
  -6  -5   6   88.19    4.60
   5   5  -6   27.60    2.00
  -5  -5   6   29.40    2.20
   4   5  -6    1.90    0.80
   4   5  -6    0.60    0.70
   3   5  -6    6.50    1.10
   3   5  -6    9.00    1.40
   3   5  -6    9.70    1.10
   3   5  -6    7.90    0.90
   2   5  -6   66.69    3.30
   2   5  -6   71.79    4.30
   2   5  -6   76.69    3.80
   2   5  -6   68.89    3.70
   1   5  -6  504.35   21.40
   1   5  -6  488.55   21.40
   1   5  -6  522.45   21.90
   1   5  -6  516.35   20.90
   0   5  -6  181.98    8.00
   0   5  -6  181.58    7.50
   0   5  -6  188.98    8.00
   0   5  -6  164.18    8.20
  -1   5  -6  504.45   21.50
  -1   5  -6  514.85   20.80
  -1   5  -6  529.45   21.40
  -1   5  -6  485.55   21.20
  -2   5  -6    2.10    0.60
  -2   5  -6    2.00    0.30
  -2   5  -6    1.90    0.50
  -2   5  -6    1.50    0.60
   2  -5   6    2.30    0.60
  -3   5  -6   85.59    3.90
  -3   5  -6   74.99    3.90
  -3   5  -6   75.59    3.30
   3  -5   6   77.29    4.00
  -4   5  -6  173.78    7.80
  -4   5  -6  173.68    7.20
  -4   5  -6  169.38    7.70
   4  -5   6  168.48    8.00
  -5   5  -6   50.69    3.00
  -5   5  -6   54.29    2.40
   5  -5   6   51.79    3.30
  -6   5  -6   81.69    4.40
  -6   5  -6   83.79    3.60
  -6   5  -6   69.79    4.00
   6  -5   6   78.79    4.60
  -7   5  -6   70.29    3.70
  -7   5  -6   62.09    3.00
  -7   5  -6   62.39    4.10
   7  -5   6   62.09    4.20
  -8   5  -6   10.30    1.10
  -8   5  -6   19.50    2.30
  -8   5  -6   13.20    1.70
  -9   5  -6  193.28    8.20
  -9   5  -6  186.98    9.40
  -9   5  -6  182.98    8.90
 -10   5  -6    4.90    0.80
 -10   5  -6    5.80    0.80
 -10   5  -6    8.10    1.60
 -10   5  -6    8.20    1.50
 -11   5  -6   92.29    5.00
 -11   5  -6   94.59    5.30
 -11   5  -6   98.79    4.30
 -12   5  -6   10.10    0.80
 -12   5  -6    7.20    1.10
   9   4  -6   15.70    1.30
  -9  -4   6   15.30    1.50
   8   4  -6   58.79    3.10
  -8  -4   6   55.99    3.40
   7   4  -6    1.10    0.80
  -7  -4   6    1.60    1.00
   6   4  -6  155.28    6.80
   6   4  -6  144.79    6.80
  -6  -4   6  149.88    7.10
   5   4  -6    7.10    1.00
  -5  -4   6    5.70    1.20
   4   4  -6  111.09    5.50
   4   4  -6  106.49    5.00
   3   4  -6  255.97   11.20
   3   4  -6  254.67   11.20
   3   4  -6  251.27   11.80
   3   4  -6  265.07   10.80
  -3  -4   6  247.88   11.60
   2   4  -6   35.40    2.10
   2   4  -6   31.00    2.00
   2   4  -6   30.80    1.70
   2   4  -6   30.50    2.30
  -2  -4   6   30.60    2.20
   1   4  -6  564.54   23.60
   1   4  -6  557.64   23.20
   1   4  -6  597.34   23.70
   1   4  -6  545.35   23.90
  -1  -4   6  570.54   23.80
   0   4  -6   67.19    2.90
   0   4  -6   69.49    3.40
   0   4  -6   68.79    3.30
   0   4  -6   67.09    3.40
   0  -4   6   63.19    3.40
  -1   4  -6   22.70    1.10
  -1   4  -6   21.60    1.40
  -1   4  -6   25.70    1.60
  -1   4  -6   24.20    1.60
   1  -4   6   26.00    1.50
   1  -4   6   21.90    1.40
  -2   4  -6  541.35   24.10
  -2   4  -6  628.84   24.10
   2  -4   6  569.54   24.20
  -3   4  -6  622.24   24.60
  -3   4  -6  560.24   24.10
  -3   4  -6  569.64   24.50
   3  -4   6  614.84   24.80
  -4   4  -6  570.64   23.60
  -4   4  -6  550.04   23.10
  -4   4  -6  545.85   23.50
   4  -4   6  595.04   24.00
  -5   4  -6   51.49    2.90
  -5   4  -6   49.80    2.30
   5  -4   6   49.90    3.20
  -6   4  -6   40.50    2.10
  -6   4  -6   44.90    2.80
   6  -4   6   49.60    3.20
  -7   4  -6  102.39    4.70
   7  -4   6  110.19    5.90
  -8   4  -6  272.47   11.20
  -8   4  -6  267.47   12.40
  -8   4  -6  245.48   11.70
  -9   4  -6   20.00    1.50
  -9   4  -6   18.10    2.00
  -9   4  -6   22.80    2.70
 -10   4  -6   75.99    3.70
 -10   4  -6   84.29    4.60
 -10   4  -6   85.09    5.00
 -10   4  -6   82.79    3.90
 -11   4  -6   21.20    2.10
 -11   4  -6   20.50    2.20
 -11   4  -6   20.90    1.40
 -12   4  -6   76.09    3.20
 -12   4  -6   69.59    3.70
  10   3  -6   17.90    1.30
 -10  -3   6   15.30    1.40
   9   3  -6   13.60    1.40
  -9  -3   6   16.60    1.70
   8   3  -6  116.89    5.60
  -8  -3   6  119.19    5.90
   7   3  -6   63.19    3.20
  -7  -3   6   51.09    3.30
   6   3  -6    9.80    1.20
  -6  -3   6    8.70    1.30
   5   3  -6  137.09    6.00
  -5  -3   6  129.49    6.20
   4   3  -6  171.28    7.80
   4   3  -6  165.78    7.80
   4   3  -6  162.38    8.00
   4   3  -6  190.48    7.50
  -4  -3   6  167.78    8.20
   3   3  -6   31.40    2.00
   3   3  -6   28.20    1.60
   3   3  -6   31.80    2.40
   3   3  -6   31.70    2.00
   3   3  -6   30.10    2.10
  -3  -3   6   27.50    2.10
   2   3  -6  250.07   10.80
   2   3  -6  257.27   11.10
   2   3  -6  245.48   10.70
   2   3  -6  244.58   10.30
   2   3  -6  247.38   10.70
  -2  -3   6  240.28   10.80
   1   3  -6  674.73   27.10
   1   3  -6  655.73   27.30
   1   3  -6  613.94   26.70
   1   3  -6  693.33   27.10
   1   3  -6  618.14   27.00
  -1  -3   6  671.03   27.20
   0   3  -6   67.79    3.40
   0   3  -6   76.89    3.40
   0   3  -6   69.19    3.30
   0   3  -6   73.89    3.50
   0  -3   6   75.99    3.40
  -1   3  -6    7.20    0.60
  -1   3  -6    7.40    0.70
  -1   3  -6    8.40    0.70
  -1   3  -6    7.70    0.80
   1  -3   6    7.30    0.80
   1  -3   6    8.10    0.70
  -2   3  -6  306.77   12.50
  -2   3  -6  307.87   12.70
   2  -3   6  281.27   12.70
   2  -3   6  301.77   12.70
   2  -3   6  299.67   12.40
  -3   3  -6 2312.37   92.79
  -3   3  -6 2180.48   92.19
   3  -3   6 2300.77   92.59
  -4   3  -6  308.47   13.40
   4  -3   6  325.17   13.80
  -5   3  -6   27.10    1.90
  -5   3  -6   28.90    1.40
   5  -3   6   28.20    2.20
  -6   3  -6   20.00    1.70
  -6   3  -6   18.20    1.10
   6  -3   6   17.70    2.00
  -7   3  -6   71.99    3.30
  -7   3  -6   73.19    3.80
   7  -3   6   64.69    4.30
  -8   3  -6  169.38    8.40
  -8   3  -6  162.58    7.10
  -8   3  -6  160.08    7.70
  -9   3  -6  565.64   23.20
  -9   3  -6  552.34   22.60
  -9   3  -6  509.15   23.70
 -10   3  -6   19.60    2.10
 -10   3  -6   16.50    1.40
 -10   3  -6   16.90    2.40
 -10   3  -6   18.60    1.40
 -11   3  -6   62.89    4.00
 -11   3  -6   70.19    3.20
 -11   3  -6   72.19    3.90
 -12   3  -6   39.10    1.80
 -12   3  -6   33.80    2.20
  11   2  -6    4.20    0.60
  10   2  -6   32.40    2.10
 -10  -2   6   34.90    2.30
   9   2  -6    3.90    1.00
  -9  -2   6    3.60    1.10
   8   2  -6  128.09    5.90
  -8  -2   6  122.69    6.10
   7   2  -6   34.90    2.30
  -7  -2   6   31.30    2.40
   6   2  -6    4.50    1.00
  -6  -2   6    5.60    1.10
   5   2  -6   31.10    1.80
   5   2  -6   31.90    2.10
   5   2  -6   32.90    2.40
   4   2  -6  134.59    5.90
   4   2  -6  115.09    6.30
   4   2  -6  128.19    6.10
   4   2  -6  128.09    5.50
   4   2  -6  126.09    5.80
  -4  -2   6  115.19    6.10
   3   2  -6  145.19    6.40
   3   2  -6  132.19    6.10
   3   2  -6  148.29    6.60
   3   2  -6  146.69    6.90
   3   2  -6  147.99    6.50
  -3  -2   6  135.39    6.60
   2   2  -6  101.49    4.70
   2   2  -6  101.09    4.70
   2   2  -6   93.39    4.80
   2   2  -6   96.79    4.30
   2   2  -6  102.09    4.60
  -2  -2   6  104.89    4.80
   1   2  -6  198.18    8.90
   1   2  -6  211.28    8.90
   1   2  -6  198.88    8.80
   1   2  -6  209.28    8.90
  -1  -2   6  212.28    8.80
   0   2  -6  857.21   39.90
   0   2  -6 1018.80   39.90
   0   2  -6  986.40   39.90
   0   2  -6  950.60   40.00
   0   2  -6 1043.90   39.90
   0  -2   6  954.30   39.70
   0  -2   6 1036.20   39.80
   0  -2   6  951.80   39.80
  -1   2  -6 1206.28   47.10
  -1   2  -6 1135.89   47.30
  -1   2  -6 1079.79   47.20
  -1   2  -6 1203.58   47.20
  -1   2  -6 1132.79   47.00
   1  -2   6 1176.68   47.30
  -2   2  -6  102.09    5.10
  -2   2  -6  128.09    5.30
  -2   2  -6  125.39    5.10
  -2   2  -6  122.69    5.10
   2  -2   6  118.79    5.50
   2  -2   6  123.29    5.20
  -3   2  -6  219.38    9.60
   3  -2   6  224.98   10.00
   3  -2   6  240.88    9.70
  -4   2  -6  974.20   38.30
   4  -2   6  949.40   38.30
   4  -2   6  863.51   38.60
  -5   2  -6   74.39    3.70
  -5   2  -6   67.69    3.10
   5  -2   6   75.59    4.10
   5  -2   6   67.69    3.60
  -6   2  -6  144.99    6.30
  -6   2  -6  138.09    6.90
   6  -2   6  160.18    7.50
  -7   2  -6  271.37   10.90
  -7   2  -6  261.57   11.40
   7  -2   6  240.08   12.00
  -8   2  -6  304.87   12.80
  -8   2  -6  306.17   13.30
  -8   2  -6  297.57   14.00
  -9   2  -6    3.30    0.70
  -9   2  -6    1.90    1.00
  -9   2  -6    1.80    1.30
 -10   2  -6   31.90    3.00
 -10   2  -6   31.70    1.90
 -10   2  -6   30.50    1.80
 -10   2  -6   35.00    2.60
 -11   2  -6   32.40    1.70
 -11   2  -6   29.30    2.50
 -11   2  -6   32.40    2.30
 -12   2  -6  154.38    6.50
  11   1  -6    2.80    0.70
 -11  -1   6    2.20    0.70
  10   1  -6  180.08    7.80
 -10  -1   6  170.38    8.00
   9   1  -6  105.99    5.20
  -9  -1   6  106.19    5.40
   8   1  -6    2.20    0.90
  -8  -1   6    4.80    1.20
   7   1  -6  135.19    6.20
  -7  -1   6  134.49    6.50
  -6  -1   6   26.10    1.90
   5   1  -6   35.90    1.90
   5   1  -6   35.10    2.20
   5   1  -6   34.50    2.50
   4   1  -6  562.74   23.90
   4   1  -6  594.34   24.50
   4   1  -6  568.84   24.80
   4   1  -6  589.64   24.20
  -4  -1   6  569.34   24.10
  -4  -1   6  594.84   24.60
   3   1  -6  780.52   32.00
   3   1  -6  810.02   31.90
   3   1  -6  761.72   32.10
   3   1  -6  769.52   31.60
   3   1  -6  739.83   32.30
  -3  -1   6  775.72   32.10
   2   1  -6    9.10    0.90
   2   1  -6    8.40    0.90
   2   1  -6    8.50    0.90
   2   1  -6    8.90    1.00
  -2  -1   6    9.20    0.90
   1   1  -6  109.39    4.60
   1   1  -6   94.19    4.60
   1   1  -6  100.69    4.60
   1   1  -6  103.69    4.60
   1   1  -6   95.29    4.60
  -1  -1   6  108.49    4.50
   0   1  -6    5.60    0.50
   0   1  -6    5.20    0.70
   0   1  -6    4.60    0.60
   0   1  -6    5.60    0.60
   0   1  -6    4.20    0.40
   0   1  -6    4.70    0.60
  -1   1  -6  859.01   34.10
  -1   1  -6  848.52   34.30
  -1   1  -6  836.62   34.10
  -1   1  -6  784.42   34.10
  -2   1  -6  488.75   18.90
  -2   1  -6  446.66   18.50
   2  -1   6  412.66   18.60
  -3   1  -6    9.10    0.70
  -3   1  -6    7.30    1.10
  -3   1  -6    8.50    0.80
   3  -1   6    7.70    0.80
  -4   1  -6  164.68    7.60
  -4   1  -6  155.08    7.20
   4  -1   6  169.98    7.30
  -5   1  -6  396.66   17.40
  -5   1  -6  412.86   17.80
  -5   1  -6  397.26   16.70
   5  -1   6  424.16   17.40
  -6   1  -6  829.02   31.30
  -6   1  -6  756.62   32.10
   6  -1   6  772.22   32.40
   6  -1   6  691.53   31.90
  -7   1  -6  187.58    9.80
  -7   1  -6  208.18    8.20
  -7   1  -6  182.28    8.60
   7  -1   6  180.38    9.30
  -8   1  -6   46.70    2.90
  -8   1  -6   42.80    2.60
  -8   1  -6   40.80    3.40
  -8   1  -6   45.60    2.40
  -9   1  -6    6.30    1.60
  -9   1  -6    5.30    0.80
  -9   1  -6    4.00    1.10
   9  -1   6    6.80    1.00
 -10   1  -6   62.29    3.20
 -10   1  -6   72.69    3.10
 -10   1  -6   67.69    3.70
 -10   1  -6   65.79    4.30
  10  -1   6   60.79    3.40
 -11   1  -6  406.56   18.30
 -11   1  -6  428.96   17.40
  11  -1   6  429.86   17.60
 -12   1  -6    8.30    0.60
  12   0  -6   21.60    1.40
  11   0  -6   85.29    4.20
 -11   0   6   91.49    4.40
  10   0  -6   55.19    3.10
 -10   0   6   55.99    3.30
   9   0  -6   46.50    2.90
  -9   0   6   50.19    3.20
   8   0  -6    4.80    1.00
  -8   0   6    6.60    1.20
   7   0  -6   11.70    1.20
  -7   0   6   11.40    1.40
   6   0  -6   62.19    3.70
   5   0  -6   20.10    1.30
   5   0  -6   19.90    1.80
   5   0  -6   19.80    1.50
   5   0  -6   19.70    2.00
  -5   0   6   22.00    1.50
  -5   0   6   20.80    1.80
   4   0  -6  155.18    6.60
   4   0  -6  156.38    7.40
   4   0  -6  159.08    6.90
   4   0  -6  153.28    7.20
  -4   0   6  149.59    7.20
  -4   0   6  155.28    6.90
   3   0  -6    0.50    0.50
   3   0  -6    2.00    0.30
   3   0  -6    1.10    0.50
   3   0  -6    2.00    0.70
  -3   0   6    0.80    0.50
  -3   0   6    1.10    0.40
   2   0  -6    3.40    0.60
   2   0  -6    2.60    0.60
   2   0  -6    1.70    0.50
   2   0  -6    3.00    0.50
  -2   0   6    2.40    0.50
   1   0  -6  366.16   15.00
   1   0  -6  358.66   14.90
   1   0  -6  354.96   15.00
   1   0  -6  366.56   15.00
   1   0  -6  344.37   14.90
   1   0  -6  358.06   15.00
  -1   0   6  360.96   14.80
   0   0  -6    7.00    0.50
   0   0  -6    7.50    0.80
   0   0  -6    7.90    0.70
   0   0  -6    7.60    0.70
   0   0  -6    8.90    0.80
  -1   0  -6   71.09    3.40
  -1   0  -6   80.69    3.50
  -1   0  -6   72.19    3.40
  -1   0  -6   72.19    3.60
  -2   0  -6  873.01   35.90
  -2   0  -6  857.01   35.90
  -2   0  -6  827.52   36.30
  -2   0  -6  897.61   35.80
   2   0   6  934.51   36.10
  -3   0  -6  227.98    9.70
  -3   0  -6  222.18    9.30
   3   0   6  201.68    9.40
  -4   0  -6   31.70    1.50
  -4   0  -6   38.50    2.10
  -4   0  -6   33.20    2.40
   4   0   6   32.30    2.10
  -5   0  -6   12.40    0.80
  -5   0  -6   12.70    1.40
  -5   0  -6   13.30    1.60
   5   0   6   12.60    1.40
  -6   0  -6  230.48    9.80
  -6   0  -6  236.68   10.90
  -6   0  -6  240.08   10.70
   6   0   6  219.58   10.50
  -7   0  -6   40.50    3.20
  -7   0  -6   46.20    2.30
  -7   0  -6   36.80    2.40
   7   0   6   43.60    3.30
  -8   0  -6    3.60    0.70
  -8   0  -6    5.30    1.00
  -8   0  -6    4.20    1.40
  -9   0  -6   18.50    2.60
  -9   0  -6   18.80    1.40
  -9   0  -6   17.50    1.40
   9   0   6   15.60    1.60
 -10   0  -6   88.09    5.20
 -10   0  -6   97.49    4.20
  10   0   6   91.49    4.50
 -11   0  -6    3.90    0.50
 -11   0  -6    2.90    1.00
  11   0   6    4.60    0.80
  12  -1  -6  185.98    8.00
  11  -1  -6  114.59    5.50
 -11   1   6  123.69    5.70
  10  -1  -6   13.50    1.50
 -10   1   6   16.40    1.80
   9  -1  -6  266.17   11.80
  -9   1   6  276.97   12.10
   8  -1  -6  304.87   12.60
  -8   1   6  280.27   12.80
   7  -1  -6    2.30    1.30
  -7   1   6    2.40    0.80
   6  -1  -6   16.10    1.70
   5  -1  -6  959.10   38.40
   5  -1  -6  921.41   38.70
   5  -1  -6  948.91   37.70
   5  -1  -6  917.31   38.00
  -5   1   6  932.41   38.50
  -5   1   6  848.32   37.90
   4  -1  -6  481.45   20.20
   4  -1  -6  475.15   19.40
   4  -1  -6  474.35   19.60
   4  -1  -6  446.56   19.90
  -4   1   6  432.36   19.60
  -4   1   6  512.95   20.10
   3  -1  -6  200.88    8.60
   3  -1  -6  200.18    8.40
   3  -1  -6  196.98    8.80
   3  -1  -6  201.58    9.00
  -3   1   6  198.48    8.70
  -3   1   6  206.58    8.80
   2  -1  -6  405.36   16.60
   2  -1  -6  394.86   16.50
   2  -1  -6  406.26   16.70
   2  -1  -6  406.86   16.40
  -2   1   6  368.66   16.50
  -2   1   6  389.26   16.50
   1  -1  -6  595.54   25.90
   1  -1  -6  689.23   26.00
   1  -1  -6  642.34   26.00
   1  -1  -6  622.54   26.00
   1  -1  -6  597.14   25.90
  -1   1   6  606.74   25.80
  -1   1   6  656.73   26.00
   0  -1  -6   22.90    1.50
   0  -1  -6   25.10    1.30
   0  -1  -6   27.10    1.60
   0  -1  -6   24.90    1.30
   0   1   6   25.00    1.40
  -1  -1  -6   60.49    3.00
  -1  -1  -6   56.79    2.70
  -1  -1  -6   61.59    3.10
  -1  -1  -6   59.69    2.70
   1   1   6   55.79    2.70
  -2  -1  -6   59.19    2.60
  -2  -1  -6   52.99    2.90
   2   1   6   49.70    2.40
   2   1   6   49.40    2.70
  -3  -1  -6  118.49    5.50
  -3  -1  -6  126.29    5.90
   3   1   6  114.69    5.50
  -4  -1  -6  383.56   14.90
  -4  -1  -6  320.27   15.00
  -4  -1  -6  335.87   14.20
   4   1   6  336.77   14.80
  -5  -1  -6  163.18    6.90
  -5  -1  -6  177.28    7.80
  -5  -1  -6  158.88    8.00
   5   1   6  151.78    7.60
  -6  -1  -6    2.10    0.50
  -6  -1  -6    2.10    1.00
  -6  -1  -6    1.30    0.80
  -7  -1  -6   14.00    2.00
  -7  -1  -6   13.70    1.40
  -7  -1  -6   17.70    1.30
   7   1   6   12.00    1.90
  -8  -1  -6   70.39    3.90
  -8  -1  -6   77.69    3.60
  -8  -1  -6   73.89    4.80
  -9  -1  -6   63.59    4.30
  -9  -1  -6   60.59    3.00
  -9  -1  -6   60.69    3.10
   9   1   6   67.89    3.40
 -10  -1  -6    1.40    0.50
 -10  -1  -6    2.60    1.10
  10   1   6    0.00    0.60
 -11  -1  -6   92.69    4.80
 -11  -1  -6   94.49    4.00
  11   1   6   95.39    4.30
  12  -2  -6   87.19    3.90
 -12   2   6   81.59    4.10
  11  -2  -6   77.29    3.90
 -11   2   6   77.69    4.10
  10  -2  -6   40.50    2.60
 -10   2   6   39.90    2.70
   9  -2  -6    4.50    0.90
  -9   2   6    5.80    1.20
   8  -2  -6    2.50    0.90
  -7   2   6   74.49    3.90
   6  -2  -6  425.46   17.30
  -6   2   6  370.36   16.80
   5  -2  -6   97.89    4.20
   5  -2  -6   92.39    4.40
   5  -2  -6   93.89    4.70
   5  -2  -6   90.29    5.00
  -5   2   6   91.99    4.40
  -5   2   6   87.69    4.70
   4  -2  -6  293.57   12.00
   4  -2  -6  256.97   12.20
   4  -2  -6  274.77   11.70
   4  -2  -6  272.07   11.50
  -4   2   6  269.87   12.10
  -4   2   6  286.47   11.80
   3  -2  -6  447.16   19.30
   3  -2  -6  427.76   19.60
   3  -2  -6  475.25   19.60
   3  -2  -6  511.25   20.00
   3  -2  -6  477.25   19.70
  -3   2   6  488.15   19.60
  -3   2   6  466.95   19.80
   2  -2  -6  619.64   25.30
   2  -2  -6  574.14   25.20
   2  -2  -6  635.34   25.20
   2  -2  -6  634.14   25.30
  -2   2   6  622.44   25.20
  -2   2   6  568.84   25.20
   1  -2  -6  151.58    6.50
   1  -2  -6  145.59    6.50
  -1   2   6  140.59    6.30
  -1   2   6  146.49    6.30
   0  -2  -6   15.80    1.30
   0  -2  -6   19.00    1.30
   0  -2  -6   17.00    1.10
   0   2   6   16.10    1.00
   0   2   6   15.50    1.00
  -1  -2  -6    2.80    0.70
  -1  -2  -6    2.30    0.50
   1   2   6    2.50    0.40
   1   2   6    1.80    0.50
  -2  -2  -6  224.98   10.00
  -2  -2  -6  231.58   10.30
   2   2   6  237.58   10.10
  -3  -2  -6  106.09    5.20
  -3  -2  -6  107.89    5.50
  -3  -2  -6  101.39    4.60
   3   2   6  123.69    5.30
  -4  -2  -6  428.56   17.80
  -4  -2  -6  404.86   17.00
  -4  -2  -6  402.16   18.00
   4   2   6  416.16   17.80
  -5  -2  -6   23.00    2.20
  -5  -2  -6   20.40    1.30
  -5  -2  -6   19.10    1.90
   5   2   6   21.10    1.90
  -6  -2  -6  116.09    5.20
  -6  -2  -6  112.09    5.40
  -6  -2  -6  117.79    6.20
  -6  -2  -6  112.89    6.30
  -7  -2  -6   11.00    1.90
  -7  -2  -6   11.40    1.40
  -7  -2  -6   11.70    1.20
  -8  -2  -6   50.79    3.80
  -8  -2  -6   49.90    2.50
  -8  -2  -6   49.70    3.00
  -8  -2  -6   47.40    2.60
  -9  -2  -6   47.10    2.50
  -9  -2  -6   49.20    3.70
   9   2   6   51.59    2.90
 -10  -2  -6   49.10    2.30
 -10  -2  -6   49.50    3.30
  10   2   6   51.39    2.70
 -11  -2  -6   39.10    1.70
  11   2   6   40.40    2.10
  12  -3  -6  135.69    6.00
 -12   3   6  133.49    6.10
  11  -3  -6  237.28   10.50
 -11   3   6  247.78   10.80
  10  -3  -6   -0.40    0.70
 -10   3   6    1.10    0.80
   9  -3  -6   74.79    3.80
  -9   3   6   70.39    3.90
   8  -3  -6    8.90    1.10
  -8   3   6   14.20    1.60
  -7   3   6  243.78   10.70
   6  -3  -6    3.60    0.90
  -6   3   6    3.80    0.80
   5  -3  -6  114.09    5.80
   5  -3  -6  116.39    5.30
   5  -3  -6  120.69    6.20
  -5   3   6  136.89    5.70
  -5   3   6  111.99    5.90
   4  -3  -6    5.10    1.00
   4  -3  -6    6.60    0.70
   4  -3  -6    5.90    0.90
   4  -3  -6    6.20    1.00
  -4   3   6    6.10    1.00
  -4   3   6    7.90    0.90
   3  -3  -6 1756.52   74.29
   3  -3  -6 1863.41   74.49
   3  -3  -6 1835.92   74.19
   3  -3  -6 1775.02   73.79
  -3   3   6 1821.12   74.09
  -3   3   6 1831.32   74.29
   2  -3  -6  861.01   34.30
   2  -3  -6  789.52   34.40
   2  -3  -6  829.32   34.40
   2  -3  -6  854.41   33.90
  -2   3   6  813.22   34.30
  -2   3   6  836.22   34.20
   1  -3  -6  791.12   32.70
   1  -3  -6  752.62   32.80
   1  -3  -6  832.02   32.70
  -1   3   6  753.52   32.60
  -1   3   6  817.72   32.50
   0  -3  -6  347.37   14.70
   0  -3  -6  322.77   14.80
   0  -3  -6  330.37   14.20
   0  -3  -6  331.67   14.60
   0   3   6  339.47   14.40
   0   3   6  393.96   14.70
  -1  -3  -6  101.19    4.40
  -1  -3  -6   98.79    4.90
  -1  -3  -6  107.69    5.10
   1   3   6  109.39    4.90
   1   3   6  102.39    4.90
   1   3   6  100.49    4.50
  -2  -3  -6  267.47   11.30
  -2  -3  -6  299.47   12.00
  -2  -3  -6  262.27   12.10
   2   3   6  268.17   11.90
   2   3   6  268.37   11.90
  -3  -3  -6  291.17   12.90
  -3  -3  -6  325.67   13.70
  -3  -3  -6  314.27   13.80
   3   3   6  313.87   13.60
  -4  -3  -6    3.90    1.10
  -4  -3  -6    3.50    0.60
  -4  -3  -6    4.00    1.00
   4   3   6    3.00    0.90
  -5  -3  -6   37.70    2.10
  -5  -3  -6   41.60    3.10
  -5  -3  -6   42.50    3.70
  -6  -3  -6   38.30    3.10
  -6  -3  -6   40.00    2.10
  -6  -3  -6   35.00    3.00
  -6  -3  -6   31.50    2.30
  -7  -3  -6   79.49    3.80
  -7  -3  -6   71.59    3.60
  -7  -3  -6   76.39    4.90
  -7  -3  -6   86.49    4.20
  -8  -3  -6   70.79    3.90
  -8  -3  -6   77.09    4.80
  -8  -3  -6   75.59    3.50
  -9  -3  -6   22.60    1.40
  -9  -3  -6   19.00    2.30
   9   3   6   20.70    1.70
 -10  -3  -6    0.30    0.70
 -10  -3  -6    0.50    0.30
  10   3   6    1.20    0.60
  12  -4  -6   54.19    2.60
 -12   4   6   50.09    2.80
  11  -4  -6    4.10    0.90
 -11   4   6    3.10    1.00
  10  -4  -6   16.10    1.60
 -10   4   6   16.60    1.80
   9  -4  -6    2.70    0.90
  -9   4   6    3.20    1.00
   8  -4  -6  319.87   13.30
  -8   4   6  313.27   13.40
  -8   4   6  301.07   13.50
   6  -4  -6    7.40    1.20
  -6   4   6    5.40    1.00
   5  -4  -6  211.78    9.90
   5  -4  -6  215.38    9.80
   5  -4  -6  217.68    9.30
  -5   4   6  225.78    9.60
   4  -4  -6  249.08   11.70
   4  -4  -6  276.87   11.60
   4  -4  -6  269.37   11.40
   4  -4  -6  254.17   10.90
  -4   4   6  248.58   11.50
  -4   4   6  258.47   11.20
   3  -4  -6  592.14   27.20
   3  -4  -6  730.33   27.60
   3  -4  -6  628.54   26.80
   3  -4  -6  628.24   27.50
  -3   4   6  668.33   27.20
  -3   4   6  679.23   27.50
   2  -4  -6  676.73   28.70
   2  -4  -6  666.93   28.70
   2  -4  -6  695.53   28.00
   2  -4  -6  702.23   28.50
  -2   4   6  639.74   28.50
  -2   4   6  729.93   28.40
   1  -4  -6    3.60    0.70
   1  -4  -6    2.90    0.70
   1  -4  -6    3.70    0.40
   1  -4  -6    3.40    0.80
  -1   4   6    4.60    0.90
  -1   4   6    2.90    0.60
   0  -4  -6  116.89    5.90
   0  -4  -6  118.89    5.70
   0  -4  -6  119.69    5.10
   0   4   6  116.59    5.60
   0   4   6  122.79    5.30
   0   4   6  121.49    5.70
  -1  -4  -6  828.62   31.40
  -1  -4  -6  697.63   31.10
  -1  -4  -6  741.93   30.50
   1   4   6  703.33   31.10
   1   4   6  762.92   31.00
   1   4   6  739.63   30.90
  -2  -4  -6  297.47   13.00
  -2  -4  -6  305.77   12.10
  -2  -4  -6  282.17   12.80
   2   4   6  278.97   12.80
   2   4   6  285.77   12.70
  -3  -4  -6   27.40    1.50
  -3  -4  -6   24.10    2.20
  -3  -4  -6   22.50    2.10
   3   4   6   24.00    2.00
   3   4   6   26.40    2.10
  -4  -4  -6  281.77   13.00
  -4  -4  -6  295.87   13.00
  -4  -4  -6  284.67   11.90
   4   4   6  266.87   12.90
  -5  -4  -6   65.69    4.30
  -5  -4  -6   61.09    4.10
  -5  -4  -6   69.39    3.50
  -5  -4  -6   66.19    3.20
  -6  -4  -6  139.69    6.30
  -6  -4  -6  145.49    6.80
  -6  -4  -6  144.19    6.40
  -6  -4  -6  147.89    7.60
  -7  -4  -6   46.90    2.40
  -7  -4  -6   49.50    3.80
  -7  -4  -6   49.00    3.00
  -7  -4  -6   46.20    2.60
  -8  -4  -6   16.30    1.20
  -8  -4  -6   11.90    1.90
   8   4   6   12.90    1.40
  -9  -4  -6    7.10    1.40
  -9  -4  -6    8.50    0.70
   9   4   6    8.20    1.00
 -10  -4  -6    2.20    0.70
  10   4   6    2.60    0.60
 -11   5   6   31.00    2.40
  10  -5  -6  166.08    7.50
   9  -5  -6  755.42   31.30
  -9   5   6  753.72   31.40
   8  -5  -6    3.20    0.90
  -8   5   6    4.90    1.00
  -7   5   6   99.59    4.90
  -7   5   6  104.89    5.20
   6  -5  -6   95.29    5.00
  -6   5   6   93.29    4.70
   5  -5  -6   59.59    3.30
   5  -5  -6   56.29    2.80
   5  -5  -6   55.59    3.50
  -5   5   6   55.59    3.10
   4  -5  -6  164.38    7.60
   4  -5  -6  175.18    8.00
   4  -5  -6  176.98    8.50
   4  -5  -6  174.08    8.30
  -4   5   6  179.58    8.00
  -4   5   6  190.18    8.40
   3  -5  -6  139.99    7.10
   3  -5  -6  151.78    7.10
   3  -5  -6  148.29    6.80
   3  -5  -6  145.49    6.40
  -3   5   6  149.79    7.10
  -3   5   6  148.79    6.70
   2  -5  -6    8.70    1.10
   2  -5  -6   10.30    1.40
   2  -5  -6    8.10    0.70
   2  -5  -6    8.00    1.20
  -2   5   6    7.30    1.10
  -2   5   6    8.20    1.00
   1  -5  -6  249.38   10.90
   1  -5  -6  228.88   11.10
   1  -5  -6  254.57   10.40
   1  -5  -6  253.27   11.20
  -1   5   6  255.57   10.90
  -1   5   6  246.28   11.10
  -1   5   6  247.18   10.60
   0  -5  -6  354.56   15.30
   0  -5  -6  354.26   14.40
   0  -5  -6  368.86   15.40
   0   5   6  337.57   14.60
   0   5   6  335.87   15.20
   0   5   6  339.77   14.90
  -1  -5  -6  386.26   17.50
  -1  -5  -6  427.36   17.70
  -1  -5  -6  409.36   16.70
   1   5   6  389.76   17.50
   1   5   6  406.16   17.30
  -2  -5  -6  235.08   11.10
  -2  -5  -6  254.27   10.20
  -2  -5  -6  231.08   11.20
   2   5   6  236.48   11.20
   2   5   6  252.87   10.90
  -3  -5  -6   22.40    1.40
  -3  -5  -6   22.60    2.20
  -3  -5  -6   23.10    2.30
   3   5   6   18.00    2.10
  -4  -5  -6   23.30    2.50
  -4  -5  -6   24.70    2.40
  -4  -5  -6   26.40    1.90
  -4  -5  -6   24.30    1.60
  -5  -5  -6  212.28   10.20
  -5  -5  -6  200.48    8.80
  -5  -5  -6  208.18    9.20
  -5  -5  -6  208.68    9.00
  -6  -5  -6  402.76   18.30
  -6  -5  -6  409.66   16.90
  -6  -5  -6  406.56   17.40
  -7  -5  -6   92.99    4.10
  -7  -5  -6   89.59    5.40
  -7  -5  -6   89.29    4.60
  -8  -5  -6    1.20    0.50
  -8  -5  -6    2.10    1.10
   8   5   6    0.40    0.60
  -9  -5  -6    7.80    0.60
  -9  -5  -6    6.50    1.10
   9   5   6    7.40    0.90
 -10   6   6  264.37   11.70
  -9   6   6    3.30    0.90
  -8   6   6   42.00    2.60
  -7   6   6  116.19    6.10
  -7   6   6  133.99    5.90
   6  -6  -6   47.10    3.30
  -6   6   6   47.50    2.90
   5  -6  -6   73.69    4.50
  -5   6   6   85.99    4.20
   4  -6  -6  112.99    5.90
   4  -6  -6  111.49    5.00
  -4   6   6  110.69    5.40
   3  -6  -6    0.90    0.80
   3  -6  -6    1.00    0.60
   3  -6  -6    1.40    0.80
   3  -6  -6    2.00    0.50
  -3   6   6    0.80    0.70
  -3   6   6    1.30    0.70
   2  -6  -6  172.38    8.10
   2  -6  -6  173.88    7.60
   2  -6  -6  193.48    8.60
   2  -6  -6  178.48    8.50
  -2   6   6  180.38    7.90
  -2   6   6  175.58    8.40
  -2   6   6  167.18    8.00
   1  -6  -6   87.09    4.50
   1  -6  -6   71.69    3.50
   1  -6  -6   72.79    4.30
  -1   6   6   73.79    4.20
  -1   6   6   73.39    3.90
  -1   6   6   77.79    3.80
   0  -6  -6  295.27   11.80
   0  -6  -6  272.17   12.70
   0  -6  -6  297.27   12.90
   0   6   6  273.77   12.00
   0   6   6  267.97   12.60
   0   6   6  275.87   12.30
  -1  -6  -6  107.99    5.60
  -1  -6  -6   93.09    5.40
  -1  -6  -6   99.09    4.50
   1   6   6  104.59    5.60
   1   6   6  100.79    5.10
  -2  -6  -6   13.20    1.90
  -2  -6  -6   12.80    1.10
  -2  -6  -6   13.20    1.80
   2   6   6   14.10    1.80
   2   6   6   13.30    1.20
  -3  -6  -6  153.28    8.00
  -3  -6  -6  153.98    7.00
  -3  -6  -6  159.68    7.20
  -3  -6  -6  161.68    8.10
  -3  -6  -6  158.08    7.00
   3   6   6  160.78    7.00
  -4  -6  -6   10.40    1.10
  -4  -6  -6    9.90    1.30
  -4  -6  -6   11.30    1.00
  -4  -6  -6    9.10    1.70
   4   6   6   11.80    1.20
  -5  -6  -6    2.60    0.60
  -5  -6  -6    3.40    1.00
  -5  -6  -6    3.30    1.40
  -6  -6  -6   26.60    2.90
  -6  -6  -6   28.00    1.70
  -6  -6  -6   29.60    2.20
  -7  -6  -6    2.10    0.50
  -7  -6  -6    2.20    1.20
   7   6   6    2.00    0.80
  -8  -6  -6   25.10    1.30
  -8  -6  -6   26.00    2.30
   8   6   6   26.30    1.70
 -10   7   6   69.29    3.70
  -9   7   6  342.17   14.70
  -8   7   6   16.90    1.80
   7  -7  -6   16.50    1.10
  -7   7   6   15.60    1.60
   6  -7  -6   13.60    2.00
  -6   7   6   18.00    1.60
  -6   7   6   16.90    1.80
   5  -7  -6   78.79    4.90
  -5   7   6   90.39    4.50
   4  -7  -6  169.08    8.20
  -4   7   6  155.58    7.50
   3  -7  -6   52.69    2.70
   3  -7  -6   52.59    3.60
  -3   7   6   51.39    3.00
   2  -7  -6  113.79    6.20
   2  -7  -6  118.09    5.20
  -2   7   6  112.59    5.50
   1  -7  -6  502.65   22.40
   1  -7  -6  519.05   21.60
   1  -7  -6  512.85   21.30
  -1   7   6  520.95   21.70
   0  -7  -6  277.37   12.60
   0  -7  -6  271.57   11.80
   0  -7  -6  263.27   11.50
  -1  -7  -6  260.77   12.00
  -1  -7  -6  253.27   10.90
   1   7   6  253.17   11.00
  -2  -7  -6   95.99    4.30
  -2  -7  -6   98.79    5.60
  -2  -7  -6   97.19    5.50
  -2  -7  -6   94.69    4.40
   2   7   6   87.69    4.50
  -3  -7  -6    8.40    1.10
  -3  -7  -6    4.50    1.40
  -3  -7  -6    4.70    0.70
   3   7   6    4.40    0.90
  -4  -7  -6  289.77   13.00
  -4  -7  -6  314.47   14.10
  -4  -7  -6  301.37   12.70
   4   7   6  304.17   12.90
  -5  -7  -6   12.60    1.00
  -5  -7  -6   10.30    1.90
  -5  -7  -6   10.10    1.30
  -6  -7  -6   26.00    2.60
  -6  -7  -6   28.60    1.60
  -6  -7  -6   25.20    1.90
  -7  -7  -6    2.00    0.40
  -7  -7  -6    3.00    1.10
   7   7   6    2.10    0.60
  -8  -7  -6   51.39    2.90
 -11   8   6  106.49    5.00
 -10   8   6    2.80    0.90
  -9   8   6   47.70    3.00
  -8   8   6    1.90    0.90
  -7   8   6   93.59    4.80
   6  -8  -6  225.88    9.80
  -6   8   6  246.38   10.40
   5  -8  -6  111.49    6.50
   5  -8  -6  124.89    5.10
  -5   8   6  113.29    5.90
  -5   8   6  118.19    5.60
   4  -8  -6   28.70    1.70
   4  -8  -6   33.00    2.90
  -4   8   6   31.40    2.30
  -4   8   6   30.40    2.00
   3  -8  -6  225.38   10.60
   3  -8  -6  220.18    9.70
  -3   8   6  210.48    9.90
   2  -8  -6  369.76   16.80
   2  -8  -6  360.56   15.80
  -2   8   6  380.56   16.00
   1  -8  -6    8.80    0.90
   1  -8  -6    7.80    1.60
  -1   8   6    8.70    1.10
   0  -8  -6   16.70    1.30
   0  -8  -6   14.30    2.10
   0  -8  -6   15.90    2.20
   0   8   6   16.40    1.40
  -1  -8  -6   94.79    5.60
  -1  -8  -6  100.69    4.40
   1   8   6   97.39    4.70
  -2  -8  -6   86.29    4.00
  -2  -8  -6   82.19    5.20
   2   8   6   93.09    4.30
  -3  -8  -6   31.30    3.00
  -3  -8  -6   32.50    1.80
   3   8   6   28.80    2.10
  -4  -8  -6  180.68    9.20
  -4  -8  -6  195.78    7.90
   4   8   6  178.98    8.20
  -5  -8  -6    4.30    0.60
  -5  -8  -6    5.00    1.40
  -6  -8  -6   41.20    1.90
  -6  -8  -6   39.80    2.90
  -7  -8  -6    2.40    0.80
 -11   9   6   10.50    1.10
 -10   9   6   12.70    1.40
  -9   9   6   13.60    1.50
  -8   9   6    4.20    1.10
  -7   9   6  113.79    5.70
  -6   9   6   69.09    3.80
   5  -9  -6   45.00    2.30
  -5   9   6   48.40    2.90
   4  -9  -6   33.30    1.90
  -4   9   6   35.10    2.30
   3  -9  -6  118.19    5.00
  -3   9   6  108.39    5.30
   2  -9  -6  122.79    5.40
  -2   9   6  125.89    5.80
  -1   9   6   10.10    1.30
   0  -9  -6   31.50    1.80
   0  -9  -6   30.30    2.90
   0   9   6   32.00    2.10
  -1  -9  -6    3.50    0.70
  -1  -9  -6    4.60    1.40
   1   9   6    2.00    0.80
  -2  -9  -6  351.66   16.30
  -2  -9  -6  352.36   15.00
   2   9   6  380.36   15.40
  -3  -9  -6  368.66   14.90
  -3  -9  -6  353.76   16.20
   3   9   6  357.36   15.30
  -4  -9  -6    1.10    1.10
  -4  -9  -6    1.20    0.40
   4   9   6    0.80    0.70
  -5  -9  -6    3.30    1.10
  -6  -9  -6   23.60    1.90
 -11  10   6   25.90    1.70
 -10  10   6    1.70    0.80
  -9  10   6   39.40    2.60
  -8  10   6   86.89    4.50
  -7  10   6    3.10    1.00
  -6  10   6    5.00    1.20
  -5  10   6    6.80    1.20
   4 -10  -6    4.20    0.60
  -4  10   6    4.00    1.00
   3 -10  -6    3.60    0.60
  -3  10   6    3.90    0.90
   2 -10  -6   37.00    1.90
  -2  10   6   37.10    2.40
   1 -10  -6  136.69    5.90
  -1  10   6  136.19    6.40
   0 -10  -6   11.00    0.90
   0 -10  -6   13.20    2.00
   0  10   6   12.80    1.40
  -1 -10  -6    5.50    0.70
  -1 -10  -6    5.20    1.40
   1  10   6    4.00    1.00
  -2 -10  -6   12.70    0.90
  -2 -10  -6   12.20    1.80
   2  10   6   11.60    1.30
  -3 -10  -6    1.30    1.00
   3  10   6    1.80    0.70
  -4 -10  -6    8.30    1.30
   4  10   6    8.00    0.90
  -5 -10  -6   72.19    3.80
 -10  11   6   63.39    3.30
  -9  11   6   57.39    3.20
  -8  11   6   10.30    1.40
  -7  11   6    2.50    1.00
  -6  11   6   11.90    1.50
  -5  11   6   25.00    2.10
  -3  11   6   15.60    1.50
  -2  11   6    1.40    0.80
  -1  11   6   22.20    1.80
   0 -11  -6   71.19    4.40
   0  11   6   73.29    3.70
  -1 -11  -6   36.70    2.90
   1  11   6   42.40    2.40
  -2 -11  -6   13.50    1.90
   2  11   6   12.60    1.30
  -3 -11  -6   12.50    1.60
   3  11   6   14.40    1.10
 -10  12   6  171.78    7.50
  -9  12   6   20.10    1.60
  -8  12   6    8.00    1.10
  -7  12   6   12.50    1.40
  -6  12   6   36.00    2.30
  -5  12   6   39.40    2.70
  -3  12   6   51.19    2.80
  -2  12   6   18.00    1.60
  -1  12   6    5.70    0.90
   0  12   6  111.59    5.10
  -1 -12  -6    9.90    1.50
   1  12   6   12.70    1.20
  -8  13   6   71.09    3.40
  -7  13   6    8.70    1.00
  -6  13   6    4.20    0.70
  -2  13   6   41.10    2.20
  -1  13   6   18.20    1.30
   1 -13   7   87.79    4.50
   2 -13   7   72.89    4.10
  -3  13  -7    9.80    1.10
   3 -13   7    9.30    1.50
  -4  13  -7    9.40    1.10
   4 -13   7    4.80    1.40
  -5  13  -7    7.60    1.00
   5 -13   7    6.60    1.70
  -6  13  -7   56.09    3.00
   6 -13   7   57.49    4.10
  -7  13  -7   64.49    3.30
   7 -13   7   66.59    4.40
  -8  13  -7   26.60    2.10
   1  12  -7   18.20    1.30
  -1 -12   7   17.20    1.70
   0  12  -7    2.00    0.60
   0 -12   7    1.80    1.00
   1 -12   7   20.00    2.30
  -2  12  -7    1.50    0.80
   2 -12   7    1.20    1.20
  -3  12  -7    5.40    1.10
   3 -12   7    6.10    1.90
  -4  12  -7   13.30    1.50
   4 -12   7   15.80    2.80
  -5  12  -7    8.60    1.30
   5 -12   7   16.80    3.10
  -6  12  -7   73.09    3.90
  -6  12  -7   68.99    4.90
  -7  12  -7   41.70    2.60
  -7  12  -7   38.70    3.50
  -8  12  -7    0.30    1.20
  -8  12  -7   -0.30    0.60
  -9  12  -7    1.90    1.10
  -9  12  -7    1.90    0.60
   3  11  -7    0.60    0.60
   2  11  -7    3.40    0.80
  -2 -11   7    4.10    1.00
   1  11  -7    1.90    0.70
  -1 -11   7    1.90    1.00
   0  11  -7  165.48    7.30
   0 -11   7  158.38    8.10
  -1  11  -7    0.50    0.70
  -1  11  -7    1.60    0.90
   1 -11   7    1.80    1.30
  -2  11  -7    3.00    1.00
   2 -11   7    6.50    2.10
  -3  11  -7    3.00    1.10
   3 -11   7    5.60    2.70
  -4  11  -7   20.00    2.10
  -4  11  -7   19.70    2.90
  -5  11  -7   73.79    3.80
  -5  11  -7   81.69    4.40
  -5  11  -7   83.49    4.40
  -5  11  -7   78.99    5.60
  -6  11  -7  164.18    8.60
  -6  11  -7  161.58    7.40
  -6  11  -7  154.78    7.40
  -6  11  -7  139.79    7.30
  -7  11  -7   16.30    1.70
  -7  11  -7   16.30    1.80
  -7  11  -7   13.30    2.30
  -8  11  -7   10.40    1.30
  -8  11  -7   11.00    2.10
  -8  11  -7   13.00    1.50
  -9  11  -7   86.99    4.20
  -9  11  -7   86.09    5.10
  -9  11  -7   82.39    4.30
 -10  11  -7   41.80    3.00
   4  10  -7    4.50    0.80
   3  10  -7  145.89    6.60
   2  10  -7   38.90    2.50
  -2 -10   7   37.40    3.00
   1  10  -7  156.88    7.10
  -1 -10   7  152.58    7.80
   0  10  -7    6.70    1.10
   0  10  -7    3.40    1.10
   0 -10   7    6.20    1.50
  -1  10  -7  166.18    7.70
  -1  10  -7  166.68    8.10
  -1  10  -7  166.38    7.90
   1 -10   7  184.58    9.20
  -2  10  -7   46.30    2.80
  -2  10  -7   43.80    3.10
  -2  10  -7   43.10    2.40
   2 -10   7   28.70    4.20
  -3  10  -7   31.50    2.50
  -3  10  -7   33.90    3.90
  -3  10  -7   34.10    2.70
  -4  10  -7   18.30    1.90
  -4  10  -7   16.70    1.50
  -4  10  -7   17.00    2.00
  -4  10  -7   16.80    2.80
  -5  10  -7   67.29    3.90
  -5  10  -7   68.69    5.20
  -5  10  -7   65.89    3.40
  -5  10  -7   67.49    3.90
  -6  10  -7    1.00    0.60
  -6  10  -7    2.10    1.00
  -6  10  -7    2.10    1.70
  -6  10  -7    1.00    1.00
  -7  10  -7   16.20    1.90
  -7  10  -7   16.60    1.40
  -7  10  -7   18.70    1.40
  -7  10  -7   15.90    1.80
  -7  10  -7   14.30    2.40
  -8  10  -7   64.59    3.20
  -8  10  -7   73.99    4.80
  -8  10  -7   73.59    4.00
  -8  10  -7   64.29    3.70
  -9  10  -7  179.58    8.30
  -9  10  -7  170.48    8.90
  -9  10  -7  183.18    7.60
 -10  10  -7    4.40    1.00
 -10  10  -7    4.30    1.30
   5   9  -7   36.10    2.10
   4   9  -7    5.50    1.00
   3   9  -7    5.30    1.10
   2   9  -7  296.07   13.40
   2   9  -7  310.77   13.10
  -2  -9   7  295.67   13.70
   1   9  -7  116.49    6.30
   1   9  -7  123.79    6.00
  -1  -9   7  131.29    6.80
   0   9  -7    5.50    0.90
   0   9  -7    7.10    1.20
   0   9  -7    3.20    1.30
   0   9  -7    7.50    1.20
   0  -9   7    5.90    1.70
  -1   9  -7   24.10    2.00
  -1   9  -7   25.00    1.70
  -1   9  -7   26.60    1.90
  -1   9  -7   25.60    2.40
   1  -9   7   12.80    3.30
  -2   9  -7  216.58   11.10
  -2   9  -7  222.08    9.70
  -2   9  -7  221.88   10.20
  -2   9  -7  231.48   10.10
  -3   9  -7  138.89    6.60
  -3   9  -7  139.89    6.30
  -3   9  -7  136.49    6.80
  -3   9  -7  142.29    7.80
  -4   9  -7  339.57   14.10
  -4   9  -7  326.47   14.70
  -4   9  -7  330.77   15.60
  -4   9  -7  340.47   14.60
  -5   9  -7   27.80    1.80
  -5   9  -7   24.40    2.30
  -5   9  -7   27.50    2.20
  -5   9  -7   24.00    2.90
  -6   9  -7   26.00    1.70
  -6   9  -7   25.30    3.10
  -6   9  -7   21.80    2.10
  -6   9  -7   23.40    2.20
  -7   9  -7   92.09    4.90
  -7   9  -7   88.39    4.30
  -7   9  -7   91.89    5.70
  -7   9  -7   93.79    4.80
  -8   9  -7  340.77   15.30
  -8   9  -7  291.47   13.70
  -8   9  -7  334.97   13.90
  -8   9  -7  347.07   14.50
  -8   9  -7  321.27   14.20
  -9   9  -7   21.40    1.40
  -9   9  -7   20.00    2.10
  -9   9  -7   19.80    2.60
 -10   9  -7  130.29    5.50
 -10   9  -7  120.49    6.60
 -10   9  -7  127.59    6.20
 -11   9  -7   17.60    1.60
 -11   9  -7   16.20    1.80
 -11   9  -7   14.80    1.00
   6   8  -7    0.70    0.60
   5   8  -7    7.00    1.10
  -5  -8   7    6.70    1.10
   4   8  -7   54.69    3.10
  -4  -8   7   52.59    3.20
   3   8  -7  190.58    8.80
   3   8  -7  201.38    9.30
   2   8  -7   85.39    4.70
   2   8  -7   78.69    5.00
  -2  -8   7  115.89    5.30
   1   8  -7   15.30    1.60
   1   8  -7   10.70    1.30
   1   8  -7   10.50    1.20
   1   8  -7   10.30    1.70
   0   8  -7    1.30    1.00
   0   8  -7    1.60    0.80
   0   8  -7    0.40    0.60
   0   8  -7    1.50    0.80
   0  -8   7   -3.50    1.80
  -1   8  -7   55.39    3.50
  -1   8  -7   56.59    3.40
  -1   8  -7   53.89    3.00
  -1   8  -7   54.89    3.20
  -1   8  -7   56.59    4.30
  -2   8  -7   17.50    2.40
  -2   8  -7   19.20    1.70
  -2   8  -7   18.40    1.80
  -2   8  -7   17.10    1.90
  -2   8  -7   18.40    1.40
  -3   8  -7  110.69    4.90
  -3   8  -7  108.19    5.30
  -3   8  -7  112.89    5.70
  -3   8  -7  102.09    5.40
  -3   8  -7  100.79    6.10
  -4   8  -7   12.80    2.00
  -4   8  -7   15.50    1.80
  -4   8  -7   15.00    1.20
  -4   8  -7   14.40    1.70
  -4   8  -7   14.40    1.60
  -5   8  -7  292.77   13.70
  -5   8  -7  291.77   12.00
  -5   8  -7  279.97   13.30
  -5   8  -7  287.37   12.50
  -5   8  -7  270.37   12.60
  -6   8  -7    6.70    1.30
  -6   8  -7    5.20    1.10
  -6   8  -7    5.50    0.80
  -6   8  -7    6.30    1.60
  -7   8  -7   69.49    3.40
  -7   8  -7   64.59    4.70
  -7   8  -7   74.39    4.10
  -7   8  -7   62.09    3.70
  -8   8  -7    5.90    0.90
  -8   8  -7    5.40    1.70
  -8   8  -7    5.20    1.30
  -9   8  -7  368.16   16.10
  -9   8  -7  359.06   14.80
  -9   8  -7  337.07   14.70
  -9   8  -7  334.17   15.30
 -10   8  -7   38.80    2.80
 -10   8  -7   39.70    3.20
 -10   8  -7   37.10    2.00
 -11   8  -7    4.80    1.10
 -11   8  -7    5.00    1.10
 -11   8  -7    5.30    0.60
 -12   8  -7  119.39    5.00
  -7  -7   7   10.90    1.20
   6   7  -7    3.50    0.90
  -6  -7   7    2.50    0.90
   5   7  -7   46.60    2.80
  -5  -7   7   43.30    2.80
   4   7  -7   65.39    3.50
  -4  -7   7   58.99    3.60
   3   7  -7   50.59    3.10
   3   7  -7   53.89    3.40
   2   7  -7   19.50    1.50
   2   7  -7   19.60    3.10
   2   7  -7   23.10    1.80
   2   7  -7   18.00    2.00
   1   7  -7   20.70    1.80
   1   7  -7   17.80    2.10
   1   7  -7   21.70    1.80
   1   7  -7   22.60    2.00
   1   7  -7   23.30    1.60
  -1  -7   7   33.10    2.60
   0   7  -7  105.79    4.90
   0   7  -7  100.79    5.30
   0   7  -7   99.79    4.60
   0   7  -7  101.49    5.20
  -1   7  -7  251.57   11.90
  -1   7  -7  262.67   10.90
  -1   7  -7  266.67   11.60
  -1   7  -7  254.87   11.40
  -1   7  -7  250.77   11.20
  -2   7  -7  102.49    5.00
  -2   7  -7   86.59    5.10
  -2   7  -7   95.69    4.80
  -2   7  -7   97.09    4.30
  -3   7  -7   38.00    2.80
  -3   7  -7   41.50    2.70
  -3   7  -7   42.70    2.10
  -3   7  -7   38.40    2.60
  -4   7  -7   21.90    1.90
  -4   7  -7   22.90    2.00
  -4   7  -7   22.40    1.40
  -5   7  -7   41.90    2.10
  -5   7  -7   36.50    2.50
  -5   7  -7   38.90    2.70
  -5   7  -7   39.20    3.10
  -5   7  -7   41.50    2.60
   5  -7   7   41.00    3.10
  -6   7  -7  352.76   15.40
  -6   7  -7  353.16   16.10
  -6   7  -7  336.17   15.20
  -6   7  -7  381.66   14.80
   6  -7   7  342.17   16.10
  -7   7  -7   64.49    3.20
  -7   7  -7   62.79    4.40
  -7   7  -7   64.59    3.80
  -8   7  -7   86.39    5.40
  -8   7  -7   85.69    4.80
  -8   7  -7   86.49    4.10
  -9   7  -7   21.30    1.50
  -9   7  -7   19.70    2.70
  -9   7  -7   23.10    2.30
 -10   7  -7  348.97   15.80
 -10   7  -7  340.47   14.50
 -10   7  -7  358.56   15.30
 -11   7  -7  174.28    8.20
 -11   7  -7  176.78    7.50
 -11   7  -7  181.08    8.50
 -12   7  -7   37.20    2.30
 -12   7  -7   37.00    1.80
  -8  -6   7   20.30    1.50
  -7  -6   7    7.70    1.10
   6   6  -7   55.69    3.10
  -6  -6   7   54.99    3.30
   5   6  -7   50.49    3.00
  -5  -6   7   49.70    3.20
   4   6  -7  151.48    7.00
   4   6  -7  150.88    7.50
   3   6  -7   22.30    1.60
   3   6  -7   22.50    1.80
   3   6  -7   24.40    2.20
   2   6  -7   73.29    3.60
   2   6  -7   75.89    3.50
   2   6  -7   64.89    3.90
   2   6  -7   68.49    4.00
   1   6  -7   72.09    3.30
   1   6  -7   66.09    3.80
   1   6  -7   69.89    3.50
   1   6  -7   67.59    3.80
   1   6  -7   65.79    4.20
   0   6  -7  107.79    6.20
   0   6  -7  129.49    5.50
   0   6  -7  130.89    6.00
   0   6  -7  132.69    6.10
  -1   6  -7  394.16   17.80
  -1   6  -7  428.06   17.40
  -1   6  -7  424.56   18.00
  -1   6  -7  436.56   18.20
  -2   6  -7   88.19    3.70
  -2   6  -7   81.19    4.30
  -2   6  -7   77.09    4.30
  -3   6  -7  123.19    6.00
  -3   6  -7  135.19    6.20
  -3   6  -7  120.89    5.40
  -4   6  -7    1.60    0.70
  -4   6  -7    1.80    0.40
  -4   6  -7    1.50    0.70
   4  -6   7    2.10    0.80
  -5   6  -7  209.78    9.40
  -5   6  -7  176.18    8.80
  -5   6  -7  196.48    8.40
   5  -6   7  207.68    9.50
  -6   6  -7   67.59    3.10
  -6   6  -7   64.79    3.70
  -6   6  -7   69.39    4.30
   6  -6   7   63.69    4.20
  -7   6  -7  132.69    5.70
  -7   6  -7  129.09    6.30
  -7   6  -7  121.09    6.90
  -8   6  -7   64.39    4.50
  -8   6  -7   69.89    3.30
  -8   6  -7   67.19    4.00
  -9   6  -7   29.00    1.90
  -9   6  -7   34.00    3.20
  -9   6  -7   33.70    2.70
 -10   6  -7   22.50    2.20
 -10   6  -7   17.10    1.40
 -10   6  -7   18.90    1.40
 -10   6  -7   21.80    2.60
 -11   6  -7  252.07   11.70
 -11   6  -7  256.97   11.40
 -11   6  -7  256.87   10.70
 -12   6  -7    5.70    0.60
 -12   6  -7    6.20    1.00
  -9  -5   7    2.20    0.90
  -8  -5   7    2.20    0.80
  -7  -5   7    4.20    1.10
   6   5  -7   81.59    4.30
  -6  -5   7   88.19    4.60
   5   5  -7  262.47   11.50
  -5  -5   7  264.67   11.70
   4   5  -7    6.40    1.10
   4   5  -7    6.60    1.30
   3   5  -7   20.20    1.60
   3   5  -7   21.50    1.90
   3   5  -7   22.60    1.50
   3   5  -7   16.70    1.90
   2   5  -7   26.80    2.00
   2   5  -7   26.00    1.60
   2   5  -7   25.60    2.40
   2   5  -7   25.60    1.90
   1   5  -7  201.48    8.10
   1   5  -7  188.98    8.60
   1   5  -7  183.08    8.50
   1   5  -7  187.38    9.00
   0   5  -7  521.15   22.40
   0   5  -7  532.25   22.70
   0   5  -7  537.65   22.50
   0   5  -7  543.95   21.90
  -1   5  -7   44.70    2.60
  -1   5  -7   40.90    2.40
  -1   5  -7   44.20    2.60
  -1   5  -7   41.10    2.00
  -2   5  -7  447.46   19.30
  -2   5  -7  462.45   19.30
  -2   5  -7  457.75   18.70
  -3   5  -7   84.79    3.60
  -3   5  -7   89.19    4.20
  -3   5  -7   82.39    4.20
   3  -5   7   82.79    4.30
  -4   5  -7  124.79    5.70
  -4   5  -7  116.19    5.10
  -4   5  -7  121.79    5.70
   4  -5   7  116.09    5.90
  -5   5  -7  229.18    9.50
  -5   5  -7  223.68   10.20
   5  -5   7  231.88   10.60
  -6   5  -7  571.04   22.90
  -6   5  -7  524.55   23.40
   6  -5   7  567.54   24.10
  -7   5  -7   36.30    3.10
  -7   5  -7   39.70    2.10
  -7   5  -7   41.30    2.70
   7  -5   7   40.20    3.20
  -8   5  -7   27.70    2.30
  -8   5  -7   25.50    1.60
  -8   5  -7   28.20    2.90
  -9   5  -7  159.08    7.80
  -9   5  -7  165.08    8.40
  -9   5  -7  163.58    7.20
 -10   5  -7   75.49    4.80
 -10   5  -7   73.79    3.70
 -10   5  -7   81.99    4.40
 -11   5  -7    1.20    1.00
 -11   5  -7    1.30    0.90
 -11   5  -7    1.20    0.50
 -12   5  -7   25.40    1.90
 -12   5  -7   28.80    1.40
   9   4  -7    6.30    0.90
  -9  -4   7    8.80    1.10
   8   4  -7   35.70    2.20
  -8  -4   7   33.00    2.40
   7   4  -7  139.29    6.50
  -7  -4   7  143.09    6.80
   6   4  -7   15.50    1.60
  -6  -4   7   12.60    1.60
   5   4  -7    5.90    1.00
  -5  -4   7    6.30    1.20
   4   4  -7   21.30    1.60
   4   4  -7   20.30    1.50
   4   4  -7   22.20    1.90
   3   4  -7  156.58    7.10
   3   4  -7  147.69    7.60
   3   4  -7  145.39    7.00
   3   4  -7  164.68    6.60
  -3  -4   7  141.39    7.30
   2   4  -7   69.59    3.20
   2   4  -7   67.39    3.60
   2   4  -7   70.29    4.00
   2   4  -7   70.39    3.70
  -2  -4   7   65.19    3.80
   1   4  -7  297.27   12.80
   1   4  -7  308.27   13.10
   1   4  -7  311.57   12.80
   1   4  -7  296.37   12.30
  -1  -4   7  272.27   12.80
   0   4  -7  250.87   11.10
   0   4  -7  246.58   10.60
   0   4  -7  243.08   11.00
   0   4  -7  273.57   11.20
   0  -4   7  262.37   11.10
  -1   4  -7  571.14   23.80
  -1   4  -7  556.34   23.40
  -1   4  -7  552.54   23.90
  -1   4  -7  592.24   24.00
   1  -4   7  603.04   23.90
  -2   4  -7  635.64   26.80
  -2   4  -7  680.13   27.00
  -2   4  -7  629.64   27.00
   2  -4   7  656.93   27.10
  -3   4  -7   42.50    2.40
  -3   4  -7   49.80    2.50
   3  -4   7   46.30    2.70
  -4   4  -7   72.89    3.10
  -4   4  -7   71.29    3.60
  -4   4  -7   74.69    3.70
   4  -4   7   73.89    4.00
  -5   4  -7   55.29    2.50
  -5   4  -7   58.29    3.10
   5  -4   7   55.59    3.50
  -6   4  -7  125.99    6.30
  -6   4  -7  132.09    5.80
  -6   4  -7  141.79    6.60
   6  -4   7  137.29    7.00
  -7   4  -7  321.87   15.20
  -7   4  -7  349.07   14.10
  -7   4  -7  331.97   14.60
   7  -4   7  339.47   15.40
  -8   4  -7   96.19    5.10
  -8   4  -7   87.79    5.60
  -8   4  -7  107.79    4.50
  -9   4  -7  212.78    9.90
  -9   4  -7  210.98   10.50
  -9   4  -7  217.98    9.20
 -10   4  -7    3.60    1.30
 -10   4  -7    4.10    1.20
 -10   4  -7    4.30    0.80
 -11   4  -7    3.80    1.10
 -11   4  -7    2.10    1.00
 -11   4  -7    3.00    0.60
 -12   4  -7   48.10    2.20
 -12   4  -7   51.29    2.70
 -12   4  -7   43.70    2.90
  10   3  -7   31.40    1.90
 -10  -3   7   35.80    2.10
   9   3  -7    3.00    0.80
  -9  -3   7    2.40    0.90
   8   3  -7   16.50    1.70
  -8  -3   7   16.70    1.90
   7   3  -7  164.58    7.60
  -7  -3   7  172.78    8.00
   6   3  -7  229.48   10.30
   6   3  -7  229.88   10.30
  -6  -3   7  249.88   10.70
   5   3  -7   83.19    4.20
   5   3  -7   94.09    4.40
  -5  -3   7   95.59    4.60
   4   3  -7   26.70    2.50
   4   3  -7   28.30    2.20
   4   3  -7   24.70    1.90
   4   3  -7   25.20    1.60
   4   3  -7   25.20    2.00
  -4  -3   7   22.70    2.10
   3   3  -7  226.08    9.80
   3   3  -7  229.58   10.80
   3   3  -7  241.88   10.30
   3   3  -7  238.88   10.40
   3   3  -7  234.28   10.30
  -3  -3   7  228.28   10.50
   2   3  -7  365.46   14.90
   2   3  -7  346.17   14.50
   2   3  -7  325.57   14.00
   2   3  -7  335.47   14.40
   2   3  -7  333.97   14.50
  -2  -3   7  328.17   14.60
   1   3  -7    1.00    0.50
   1   3  -7    1.30    0.50
   1   3  -7    0.90    0.30
   1   3  -7    1.10    0.50
   1   3  -7    1.30    0.60
  -1  -3   7    0.90    0.50
   0   3  -7   19.30    1.30
   0   3  -7   15.70    1.30
   0   3  -7   18.10    1.20
   0   3  -7   16.40    1.30
   0  -3   7   19.10    1.20
  -1   3  -7   36.10    2.10
  -1   3  -7   34.70    1.90
  -1   3  -7   38.20    2.00
   1  -3   7   35.90    2.00
   1  -3   7   39.50    1.80
  -2   3  -7  212.18    8.90
  -2   3  -7  199.38    8.90
  -2   3  -7  221.68    9.20
   2  -3   7  211.88    9.20
  -3   3  -7  165.08    7.30
  -3   3  -7  170.78    7.20
   3  -3   7  165.48    7.60
  -4   3  -7  944.41   38.50
   4  -3   7  927.11   39.00
  -5   3  -7   55.69    3.10
  -5   3  -7   58.29    2.60
   5  -3   7   59.89    3.60
  -6   3  -7   80.19    4.40
  -6   3  -7   85.69    3.70
   6  -3   7   85.19    4.80
  -7   3  -7  218.38    8.90
  -7   3  -7  198.68   10.00
  -7   3  -7  206.68    9.50
   7  -3   7  212.48   10.20
  -8   3  -7  369.66   17.30
  -8   3  -7  399.26   16.70
  -8   3  -7  384.76   16.10
  -9   3  -7   64.79    3.80
  -9   3  -7   61.29    4.40
  -9   3  -7   66.29    3.20
 -10   3  -7  175.88    7.80
 -10   3  -7  176.18    8.40
 -10   3  -7  182.68    9.00
 -10   3  -7  186.48    7.70
 -11   3  -7    1.60    0.90
 -11   3  -7    2.00    0.50
 -11   3  -7    1.80    1.00
 -12   3  -7    3.70    0.90
 -12   3  -7    4.60    0.50
  11   2  -7   52.49    2.80
  10   2  -7   14.90    1.30
 -10  -2   7   12.80    1.50
   9   2  -7   22.20    1.80
  -9  -2   7   23.40    2.10
   8   2  -7   28.20    2.10
  -8  -2   7   27.50    2.40
   7   2  -7   81.89    4.00
  -7  -2   7   75.19    4.20
   6   2  -7    2.60    0.80
  -6  -2   7    2.00    0.90
   5   2  -7    1.80    0.90
   5   2  -7    1.70    0.70
   5   2  -7    2.00    0.60
  -5  -2   7    2.00    0.80
   4   2  -7  262.97   11.60
   4   2  -7  283.77   12.10
   4   2  -7  264.47   12.60
   4   2  -7  265.87   12.00
   4   2  -7  293.27   12.40
  -4  -2   7  283.47   12.40
   3   2  -7  358.26   14.80
   3   2  -7  335.37   14.40
   3   2  -7  342.67   15.30
   3   2  -7  352.46   15.00
   3   2  -7  357.46   14.90
  -3  -2   7  339.17   15.00
   2   2  -7    5.90    1.00
   2   2  -7    1.40    0.60
   2   2  -7    1.40    0.40
   2   2  -7    1.60    0.60
   2   2  -7    1.60    0.50
  -2  -2   7    1.50    0.60
   1   2  -7   40.00    2.20
   1   2  -7   45.80    2.40
   1   2  -7   43.00    2.30
   1   2  -7   40.60    2.30
  -1  -2   7   43.10    2.20
   0   2  -7    2.50    0.50
   0   2  -7    3.20    0.60
   0   2  -7    3.10    0.60
   0   2  -7    3.70    0.60
   0  -2   7    3.30    0.40
  -1   2  -7    7.00    0.60
  -1   2  -7    7.00    0.80
  -1   2  -7    8.20    0.60
  -1   2  -7    8.60    0.80
   1  -2   7    7.30    0.80
  -2   2  -7   26.50    1.50
  -2   2  -7   24.30    1.20
  -2   2  -7   23.70    1.20
  -2   2  -7   23.60    1.40
   2  -2   7   23.80    1.60
   2  -2   7   26.60    1.50
  -3   2  -7  117.19    5.80
  -3   2  -7  136.79    5.70
   3  -2   7  141.69    6.30
   3  -2   7  139.59    5.90
  -4   2  -7  115.59    5.50
   4  -2   7  124.29    5.60
   4  -2   7  133.19    6.10
  -5   2  -7   80.39    3.90
  -5   2  -7   71.69    3.20
   5  -2   7   74.99    4.30
  -6   2  -7  176.18    8.50
  -6   2  -7  185.68    7.80
   6  -2   7  191.78    9.00
  -7   2  -7  226.48    9.40
  -7   2  -7  208.18   10.50
  -7   2  -7  229.78   10.00
   7  -2   7  222.78   10.70
  -8   2  -7   18.60    1.90
  -8   2  -7   20.70    2.50
  -8   2  -7   21.40    1.50
  -9   2  -7  274.87   12.50
  -9   2  -7  291.57   13.30
  -9   2  -7  278.17   12.00
 -10   2  -7    6.00    1.50
 -10   2  -7    5.50    0.80
 -10   2  -7    6.30    1.30
 -10   2  -7    6.20    0.90
 -11   2  -7   19.60    1.20
 -11   2  -7   19.10    2.10
 -11   2  -7   17.00    1.70
 -12   2  -7   38.70    1.80
  11   1  -7    4.10    0.70
 -11  -1   7    4.50    0.80
  10   1  -7   65.59    3.40
 -10  -1   7   66.49    3.60
   9   1  -7  178.18    7.60
  -9  -1   7  156.68    7.80
   8   1  -7  131.89    6.00
  -8  -1   7  119.99    6.20
   7   1  -7   42.20    2.50
  -7  -1   7   35.00    2.50
  -6  -1   7    6.10    1.10
   5   1  -7  306.57   13.70
   5   1  -7  290.37   13.30
   5   1  -7  310.27   12.90
  -5  -1   7  301.67   14.10
  -5  -1   7  325.17   13.20
   4   1  -7  205.98    9.20
   4   1  -7  211.38    8.80
   4   1  -7  223.38    9.50
   4   1  -7  207.38    9.80
  -4  -1   7  209.18    9.20
  -4  -1   7  196.48    9.50
   3   1  -7   75.99    3.60
   3   1  -7   73.79    3.30
   3   1  -7   73.79    3.80
   3   1  -7   68.29    3.90
   3   1  -7   75.39    3.80
  -3  -1   7   73.79    3.80
   2   1  -7   74.49    3.70
   2   1  -7   74.29    3.50
   2   1  -7   72.49    3.70
   2   1  -7   73.59    3.70
   2   1  -7   73.89    3.20
  -2  -1   7   72.49    3.60
   1   1  -7  306.77   13.10
   1   1  -7  301.27   13.10
   1   1  -7  314.37   13.00
   1   1  -7  295.67   13.00
  -1  -1   7  324.47   12.90
   0   1  -7    3.80    0.50
   0   1  -7    3.20    0.40
   0   1  -7    3.10    0.60
   0   1  -7    3.20    0.60
   0   1  -7    3.20    0.50
  -1   1  -7  923.91   38.40
  -1   1  -7  968.60   38.40
  -1   1  -7  994.00   38.50
  -1   1  -7  858.01   38.50
  -2   1  -7  524.05   21.90
  -2   1  -7  505.85   22.20
   2  -1   7  556.24   22.00
  -3   1  -7  236.58   10.10
  -3   1  -7  239.28   10.80
   3  -1   7  249.88   10.40
  -4   1  -7  676.03   27.70
  -4   1  -7  669.03   27.10
   4  -1   7  617.84   27.20
  -5   1  -7  150.48    6.40
  -5   1  -7  146.49    7.50
  -5   1  -7  166.78    7.10
   5  -1   7  146.29    7.10
  -6   1  -7  320.27   14.40
  -6   1  -7  355.26   13.70
   6  -1   7  293.67   14.70
   6  -1   7  340.97   14.50
  -7   1  -7    4.60    1.30
  -7   1  -7    5.50    0.70
  -7   1  -7    5.30    1.00
  -7   1  -7    3.20    1.20
   7  -1   7    6.70    1.50
  -8   1  -7   48.30    2.50
  -8   1  -7   42.30    3.60
  -8   1  -7   42.00    2.60
  -8   1  -7   48.70    3.00
  -9   1  -7    1.50    1.30
  -9   1  -7    1.10    0.60
  -9   1  -7    0.80    0.90
   9  -1   7    2.50    0.80
 -10   1  -7  383.36   16.80
 -10   1  -7  360.16   15.90
 -10   1  -7  386.46   15.60
  10  -1   7  374.36   15.90
 -11   1  -7   18.70    2.00
 -11   1  -7   18.80    1.20
 -12   1  -7   39.90    1.80
  11   0  -7   68.69    3.30
 -11   0   7   61.39    3.40
  10   0  -7   45.40    2.60
 -10   0   7   38.20    2.70
   9   0  -7  280.87   12.30
  -9   0   7  286.47   12.60
   8   0  -7    6.60    1.20
  -8   0   7    4.60    1.20
   7   0  -7   14.00    1.40
  -7   0   7   13.40    1.50
  -6   0   7  378.56   16.20
   5   0  -7  342.27   14.10
   5   0  -7  312.17   14.80
   5   0  -7  310.57   13.70
   5   0  -7  356.96   14.50
  -5   0   7  324.27   14.50
  -5   0   7  319.77   14.00
   4   0  -7  437.96   18.30
   4   0  -7  424.26   18.60
   4   0  -7  422.56   18.00
   4   0  -7  428.16   17.70
  -4   0   7  398.46   17.90
  -4   0   7  449.56   18.40
   3   0  -7  104.49    4.60
   3   0  -7  106.69    5.10
   3   0  -7  106.79    4.90
   3   0  -7  111.69    5.30
  -3   0   7  104.49    4.90
  -3   0   7  103.09    5.00
   2   0  -7   11.00    1.10
   2   0  -7   11.00    0.90
   2   0  -7   10.30    1.10
   2   0  -7    9.10    1.00
  -2   0   7    9.80    0.90
   1   0  -7    6.70    0.80
   1   0  -7    7.30    0.80
   1   0  -7    7.10    0.80
   1   0  -7    7.00    0.70
   1   0  -7    9.20    0.90
  -1   0   7    6.90    0.60
   0   0  -7   82.89    4.00
   0   0  -7   86.19    4.00
   0   0  -7   85.69    3.90
   0   0  -7   84.59    3.70
   0   0  -7   86.29    3.80
   0   0  -7   89.89    4.10
  -1   0  -7  511.65   20.50
  -1   0  -7  498.25   20.60
  -1   0  -7  469.95   20.70
  -1   0  -7  495.85   20.50
  -2   0  -7   44.60    2.60
  -2   0  -7   45.40    2.10
  -2   0  -7   45.20    2.10
   2   0   7   45.70    2.20
   2   0   7   41.60    2.40
  -3   0  -7    2.70    0.50
  -3   0  -7    1.50    0.70
   3   0   7    1.80    0.60
  -4   0  -7    7.00    0.50
  -4   0  -7    6.20    0.90
  -4   0  -7    6.30    1.20
   4   0   7    7.00    1.00
  -5   0  -7  208.38    9.90
  -5   0  -7  213.48    8.80
  -5   0  -7  220.28    9.60
   5   0   7  198.18    9.50
  -6   0  -7  133.79    7.10
  -6   0  -7  126.69    5.40
  -6   0  -7  112.99    6.50
  -7   0  -7    4.10    1.30
  -7   0  -7    4.70    0.90
  -7   0  -7    3.50    0.60
   7   0   7    3.90    1.30
  -8   0  -7    0.70    0.60
  -8   0  -7    1.40    0.80
  -8   0  -7    1.50    1.20
  -9   0  -7  100.99    5.80
  -9   0  -7   92.39    4.50
  -9   0  -7   96.79    4.40
   9   0   7  103.09    4.80
 -10   0  -7    3.50    1.30
 -10   0  -7    2.40    0.60
  10   0   7    2.40    0.80
 -11   0  -7  138.99    6.80
 -11   0  -7  140.39    6.00
  11   0   7  145.59    6.20
  12  -1  -7   53.59    2.60
  11  -1  -7   96.79    4.60
 -11   1   7   99.69    4.80
  10  -1  -7    5.80    1.00
 -10   1   7    6.90    1.20
   9  -1  -7    4.80    1.00
  -9   1   7    4.40    1.10
   8  -1  -7   39.60    2.60
  -8   1   7   47.00    2.90
   7  -1  -7   54.89    3.00
  -7   1   7   52.19    3.10
   6  -1  -7  253.07   10.80
   5  -1  -7  519.05   23.00
   5  -1  -7  550.94   22.70
   5  -1  -7  532.95   22.30
   5  -1  -7  566.14   23.40
  -5   1   7  531.05   23.10
  -5   1   7  540.85   22.60
   4  -1  -7  226.68   10.50
   4  -1  -7  221.18   10.20
   4  -1  -7  233.78    9.70
   4  -1  -7  230.38   10.00
  -4   1   7  221.88   10.30
  -4   1   7  245.88   10.00
   3  -1  -7   12.50    1.10
   3  -1  -7   12.60    1.20
   3  -1  -7   11.90    1.30
   3  -1  -7   11.40    0.80
  -3   1   7   12.20    1.10
  -3   1   7   11.50    1.10
   2  -1  -7  101.99    4.80
   2  -1  -7  104.09    4.70
   2  -1  -7  100.79    4.60
   2  -1  -7  104.89    4.90
  -2   1   7  107.69    4.80
  -2   1   7   99.29    4.70
   1  -1  -7  272.97   11.20
   1  -1  -7  267.77   11.20
   1  -1  -7  224.48   11.20
  -1   1   7  263.57   11.10
  -1   1   7  281.87   11.00
   0  -1  -7  683.03   27.30
   0  -1  -7  634.04   27.00
   0  -1  -7  628.14   26.90
   0  -1  -7  687.03   27.30
   0   1   7  654.63   27.00
  -1  -1  -7    7.50    0.60
  -1  -1  -7    8.30    0.70
  -1  -1  -7    9.10    1.00
  -1  -1  -7    7.50    1.00
   1   1   7    8.10    0.70
  -2  -1  -7   89.79    4.00
  -2  -1  -7   78.79    4.40
   2   1   7   93.59    4.20
   2   1   7   84.99    4.00
  -3  -1  -7  165.68    7.10
  -3  -1  -7  134.09    6.40
   3   1   7  139.09    6.60
  -4  -1  -7  142.89    6.80
  -4  -1  -7  162.48    7.30
  -4  -1  -7  143.59    6.20
   4   1   7  140.79    6.80
  -5  -1  -7    4.00    0.50
  -5  -1  -7    2.90    1.00
  -5  -1  -7    4.40    0.90
   5   1   7    3.00    0.90
  -6  -1  -7   36.00    2.90
  -6  -1  -7   34.90    1.90
  -6  -1  -7   35.70    3.50
  -7  -1  -7   12.10    1.20
  -7  -1  -7   12.50    1.40
  -7  -1  -7   10.10    1.80
  -8  -1  -7    6.80    1.70
  -8  -1  -7    7.80    1.20
  -8  -1  -7   11.20    1.10
  -9  -1  -7   71.39    4.70
  -9  -1  -7   72.09    3.50
  -9  -1  -7   75.89    3.40
   9   1   7   72.29    3.80
 -10  -1  -7  111.89    4.90
 -10  -1  -7  114.99    6.00
  10   1   7  114.59    5.30
 -11  -1  -7   96.29    4.10
 -11  -1  -7   91.99    4.80
  11   1   7   96.89    4.30
  12  -2  -7   57.39    2.80
  11  -2  -7  298.07   12.90
 -11   2   7  306.27   13.10
  10  -2  -7    6.20    1.10
 -10   2   7    4.60    1.10
   9  -2  -7   22.00    1.90
  -9   2   7   26.70    2.10
   8  -2  -7    3.20    0.90
  -8   2   7    3.50    1.00
   7  -2  -7  278.87   11.90
  -7   2   7  275.47   12.10
   6  -2  -7  203.68    9.10
   6  -2  -7  207.78    9.80
  -6   2   7  224.78    9.50
   5  -2  -7  256.87   10.80
   5  -2  -7  254.27   11.40
   5  -2  -7  257.37   11.10
   5  -2  -7  253.07   11.80
  -5   2   7  242.28   11.50
  -5   2   7  270.57   11.10
   4  -2  -7  203.58    9.00
   4  -2  -7  234.48    9.70
   4  -2  -7  214.88    9.90
   4  -2  -7  205.08    9.30
  -4   2   7  201.78    9.60
  -4   2   7  230.48    9.40
   3  -2  -7   95.99    4.40
   3  -2  -7   90.79    4.60
   3  -2  -7   94.49    4.70
   3  -2  -7   93.29    4.10
   3  -2  -7   95.79    4.60
  -3   2   7   92.39    4.40
  -3   2   7   95.99    4.60
   2  -2  -7  480.35   19.70
   2  -2  -7  441.86   20.10
   2  -2  -7  466.95   20.00
   2  -2  -7  452.95   20.10
   2  -2  -7  522.05   20.20
  -2   2   7  507.45   20.10
  -2   2   7  491.45   20.00
   1  -2  -7 1008.60   41.80
   1  -2  -7 1036.30   41.70
   1  -2  -7  962.20   41.80
  -1   2   7 1069.99   41.60
  -1   2   7  995.00   41.60
   0  -2  -7  110.39    5.10
   0  -2  -7  104.99    4.90
   0  -2  -7  121.89    5.30
   0   2   7  109.09    4.80
   0   2   7  101.49    4.80
  -1  -2  -7   32.30    2.10
  -1  -2  -7   36.70    2.00
  -1  -2  -7   34.00    2.30
   1   2   7   35.50    2.10
   1   2   7   34.40    1.80
  -2  -2  -7   28.00    1.30
  -2  -2  -7   27.90    1.80
  -2  -2  -7   28.50    2.10
   2   2   7   27.60    1.90
  -3  -2  -7  433.96   18.80
  -3  -2  -7  465.95   19.30
  -3  -2  -7  430.26   18.20
   3   2   7  453.55   19.00
  -4  -2  -7    5.60    1.20
  -4  -2  -7    7.30    0.70
  -4  -2  -7    6.00    1.10
   4   2   7    7.20    1.20
  -5  -2  -7   99.69    4.20
  -5  -2  -7   94.59    5.40
  -5  -2  -7   86.79    5.00
  -6  -2  -7   18.50    2.40
  -6  -2  -7   19.50    1.70
  -6  -2  -7   21.10    2.40
  -6  -2  -7   18.80    1.40
  -7  -2  -7    5.70    0.80
  -7  -2  -7    3.80    1.40
  -8  -2  -7  203.48    8.70
  -8  -2  -7  188.48    8.40
  -8  -2  -7  182.78    8.20
  -8  -2  -7  195.98    9.60
  -9  -2  -7   44.70    2.30
  -9  -2  -7   47.60    3.60
   9   2   7   48.10    2.70
 -10  -2  -7    2.60    0.50
 -10  -2  -7    2.60    1.10
  10   2   7    3.10    0.70
  12  -3  -7  134.59    6.00
 -12   3   7  138.59    6.30
  11  -3  -7   11.00    1.20
 -11   3   7   10.20    1.30
  10  -3  -7  191.58    8.30
 -10   3   7  178.68    8.40
   9  -3  -7  189.78    8.30
  -9   3   7  182.08    8.50
   8  -3  -7   34.60    2.20
   8  -3  -7   36.70    2.50
  -8   3   7   31.40    2.30
   7  -3  -7  135.39    6.20
   6  -3  -7  419.76   16.60
   6  -3  -7  359.66   17.20
  -6   3   7  411.76   17.00
   5  -3  -7  508.95   22.20
   5  -3  -7  571.14   21.90
   5  -3  -7  520.65   21.20
  -5   3   7  454.85   21.80
  -5   3   7  505.95   21.50
   4  -3  -7   89.49    4.00
   4  -3  -7   87.59    4.70
   4  -3  -7   89.09    4.50
  -4   3   7   83.79    4.50
  -4   3   7   93.79    4.40
   3  -3  -7  304.57   12.90
   3  -3  -7  300.67   12.40
   3  -3  -7  280.37   12.90
   3  -3  -7  287.87   13.00
  -3   3   7  296.97   12.70
  -3   3   7  312.17   13.00
   2  -3  -7  382.96   16.10
   2  -3  -7  370.56   15.60
   2  -3  -7  365.86   16.20
   2  -3  -7  385.96   16.20
  -2   3   7  390.86   16.10
   1  -3  -7    1.70    0.50
   1  -3  -7    1.90    0.60
   1  -3  -7    1.70    0.30
   1  -3  -7    1.60    0.60
  -1   3   7    2.20    0.60
  -1   3   7    2.10    0.50
   0  -3  -7  200.48    9.40
   0  -3  -7  214.68    9.30
   0  -3  -7  221.88    9.20
   0  -3  -7  204.38    8.60
   0   3   7  201.38    9.10
   0   3   7  209.28    8.90
  -1  -3  -7  239.88   10.20
  -1  -3  -7  270.77   11.10
  -1  -3  -7  244.48   10.70
   1   3   7  243.88   10.70
   1   3   7  241.98   10.40
   1   3   7  243.88   10.80
  -2  -3  -7  480.45   22.00
  -2  -3  -7  497.25   21.10
  -2  -3  -7  517.05   21.80
   2   3   7  543.75   21.80
   2   3   7  540.85   21.90
  -3  -3  -7   23.30    2.10
  -3  -3  -7   18.90    1.70
  -3  -3  -7   21.10    1.20
   3   3   7   19.00    1.70
  -4  -3  -7  193.68    8.80
  -4  -3  -7  185.98    9.00
  -4  -3  -7  190.88    7.90
   4   3   7  170.18    8.70
  -5  -3  -7    1.10    0.50
  -5  -3  -7    0.70    1.00
  -5  -3  -7    1.50    0.70
  -5  -3  -7    2.20    1.10
  -6  -3  -7  230.78   10.20
  -6  -3  -7  235.08   10.00
  -6  -3  -7  228.38   11.10
  -7  -3  -7   52.09    3.90
  -7  -3  -7   54.09    3.10
  -7  -3  -7   47.60    2.60
  -7  -3  -7   52.19    2.70
  -8  -3  -7   25.00    1.50
  -8  -3  -7   22.50    1.60
  -8  -3  -7   23.20    2.80
  -8  -3  -7   25.40    2.10
  -9  -3  -7   19.80    2.30
  -9  -3  -7   22.20    1.40
   9   3   7   23.60    1.80
 -10  -3  -7    1.70    0.40
 -10  -3  -7    1.50    0.80
  10   3   7    1.60    0.60
  12  -4  -7    5.90    0.80
  11  -4  -7   62.19    3.20
 -11   4   7   60.39    3.30
  10  -4  -7   67.59    3.60
 -10   4   7   66.89    3.70
   9  -4  -7  249.58   10.30
  -9   4   7  214.48   11.30
   8  -4  -7    2.50    0.80
  -8   4   7    1.70    0.70
   7  -4  -7  245.58   11.00
   7  -4  -7  259.17   11.40
  -7   4   7  262.37   11.40
   6  -4  -7   44.50    3.10
  -6   4   7   49.30    2.90
   5  -4  -7   31.30    2.30
   5  -4  -7   32.50    1.80
  -5   4   7   29.70    2.60
  -5   4   7   32.30    2.10
   4  -4  -7  297.97   12.10
   4  -4  -7  293.87   12.80
   4  -4  -7  284.47   13.00
   4  -4  -7  288.07   12.70
  -4   4   7  279.27   12.50
  -4   4   7  289.67   12.90
   3  -4  -7 1516.75   63.99
   3  -4  -7 1494.65   63.49
   3  -4  -7 1729.33   64.39
   3  -4  -7 1480.95   64.29
  -3   4   7 1653.13   64.29
  -3   4   7 1483.25   63.89
   2  -4  -7  361.56   14.90
   2  -4  -7  348.57   14.30
   2  -4  -7  327.57   15.00
   2  -4  -7  335.57   15.00
  -2   4   7  333.47   14.60
  -2   4   7  365.26   14.90
   1  -4  -7   70.39    3.90
   1  -4  -7   73.79    3.30
   1  -4  -7   78.79    3.90
   1  -4  -7   76.09    4.00
  -1   4   7   74.29    3.80
  -1   4   7   73.89    3.60
   0  -4  -7   58.49    3.40
   0  -4  -7   56.49    2.70
   0  -4  -7   60.49    3.30
   0   4   7   58.29    2.90
   0   4   7   58.09    3.20
   0   4   7   65.29    3.30
  -1  -4  -7  122.29    5.30
  -1  -4  -7  116.79    5.90
  -1  -4  -7  129.09    6.20
   1   4   7  119.29    5.80
   1   4   7  124.99    6.00
  -2  -4  -7  749.73   33.40
  -2  -4  -7  780.02   32.60
  -2  -4  -7  826.02   33.70
   2   4   7  867.41   33.50
   2   4   7  760.62   33.30
  -3  -4  -7  198.08    9.50
  -3  -4  -7  213.18    8.50
  -3  -4  -7  202.38    9.30
   3   4   7  181.68    9.20
   3   4   7  196.58    9.20
  -4  -4  -7   77.79    4.90
  -4  -4  -7   85.09    3.80
  -5  -4  -7   13.30    2.10
  -5  -4  -7   13.60    2.20
  -5  -4  -7   23.80    1.40
  -5  -4  -7    9.70    1.40
  -6  -4  -7   22.10    1.50
  -6  -4  -7   19.60    2.60
  -6  -4  -7   18.10    1.40
  -6  -4  -7   18.60    1.80
  -7  -4  -7  138.99    6.50
  -7  -4  -7  145.89    6.30
  -7  -4  -7  159.38    6.90
  -7  -4  -7  143.19    7.70
  -8  -4  -7   50.39    3.70
  -8  -4  -7   52.79    3.00
  -8  -4  -7   54.99    2.60
  -9  -4  -7    1.30    0.90
  -9  -4  -7    1.40    0.40
   9   4   7    1.80    0.70
  10   4   7   17.20    1.30
  11  -5  -7   10.90    1.10
  10  -5  -7   21.80    1.80
   9  -5  -7   15.50    1.60
  -9   5   7   15.00    1.50
   8  -5  -7   58.39    3.20
  -8   5   7   65.79    3.40
   7  -5  -7    9.00    1.10
  -7   5   7    5.90    1.00
  -7   5   7    8.10    1.30
   6  -5  -7    1.20    0.90
  -6   5   7    1.70    0.80
   5  -5  -7   36.50    2.70
   5  -5  -7   37.30    2.60
   5  -5  -7   36.20    2.00
  -5   5   7   37.10    2.40
   4  -5  -7  492.85   20.90
   4  -5  -7  463.15   20.60
   4  -5  -7  508.55   20.10
   4  -5  -7  492.25   21.10
  -4   5   7  451.25   20.80
  -4   5   7  501.15   20.50
   3  -5  -7  168.58    7.50
   3  -5  -7  146.49    6.60
   3  -5  -7  151.18    7.40
   3  -5  -7  145.89    7.10
  -3   5   7  150.28    7.30
  -3   5   7  153.98    7.00
   2  -5  -7   27.80    2.30
   2  -5  -7   28.10    2.10
   2  -5  -7   29.40    1.60
   2  -5  -7   32.30    2.30
  -2   5   7   26.50    2.10
  -2   5   7   32.90    1.90
   1  -5  -7  187.28    8.50
   1  -5  -7  214.38    8.90
   1  -5  -7  185.58    7.90
   1  -5  -7  185.48    8.70
  -1   5   7  181.38    8.60
  -1   5   7  181.08    8.20
  -1   5   7  173.28    8.40
   0  -5  -7    9.00    1.40
   0  -5  -7    9.00    0.80
   0  -5  -7    9.60    1.40
   0   5   7    9.30    1.20
   0   5   7    9.40    1.30
   0   5   7    9.50    0.90
  -1  -5  -7  261.27   11.90
  -1  -5  -7  269.37   11.10
  -1  -5  -7  268.57   12.10
   1   5   7  263.87   11.70
   1   5   7  255.27   11.90
  -2  -5  -7  246.78   11.50
  -2  -5  -7  243.58   10.50
  -2  -5  -7  261.87   11.50
   2   5   7  238.58   11.40
   2   5   7  248.18   11.20
  -3  -5  -7  126.89    5.50
  -3  -5  -7  121.09    6.60
   3   5   7  119.49    5.50
  -4  -5  -7  195.08    8.60
  -4  -5  -7  177.88    9.40
  -4  -5  -7  194.08    8.30
  -4  -5  -7  198.88    9.50
  -5  -5  -7   52.69    3.00
  -5  -5  -7   48.90    2.60
  -5  -5  -7   50.69    3.80
  -5  -5  -7   44.70    2.50
  -6  -5  -7   14.40    1.20
  -6  -5  -7   17.20    2.50
  -6  -5  -7   16.80    1.40
  -6  -5  -7   14.60    1.60
  -7  -5  -7   92.09    5.50
  -7  -5  -7   97.69    4.70
  -7  -5  -7   93.09    4.20
  -8  -5  -7   12.20    1.00
  -8  -5  -7   11.30    1.70
   8   5   7   12.40    1.20
  -9  -5  -7    3.50    0.40
  -9  -5  -7    4.20    0.90
   9   5   7    3.40    0.60
 -10   6   7   12.50    1.40
  -9   6   7   64.09    3.50
  -8   6   7   31.00    2.20
  -7   6   7   21.30    1.80
  -7   6   7   24.30    2.10
  -6   6   7    4.40    1.00
  -6   6   7    4.50    0.90
   5  -6  -7  812.02   34.70
  -5   6   7  825.02   34.20
   4  -6  -7   57.49    3.80
   4  -6  -7   61.39    3.00
   4  -6  -7   58.29    3.60
  -4   6   7   60.79    3.40
   3  -6  -7   33.70    1.90
   3  -6  -7   36.70    2.80
   3  -6  -7   35.60    2.70
   3  -6  -7   32.00    2.30
  -3   6   7   32.60    2.50
  -3   6   7   32.50    2.20
   2  -6  -7   28.50    2.50
   2  -6  -7   29.70    2.20
   2  -6  -7   32.00    2.60
   2  -6  -7   30.20    1.70
  -2   6   7   29.50    2.40
  -2   6   7   32.30    2.20
  -2   6   7   30.90    2.00
   1  -6  -7  412.66   18.40
   1  -6  -7  436.66   17.40
   1  -6  -7  430.56   18.40
  -1   6   7  403.86   17.90
  -1   6   7  399.26   18.30
  -1   6   7  430.16   17.70
   0  -6  -7   94.19    4.20
   0  -6  -7   92.09    5.10
   0  -6  -7   91.89    5.10
   0   6   7   87.79    4.70
   0   6   7   87.79    5.00
  -1  -6  -7  119.99    6.70
  -1  -6  -7  136.09    6.90
  -1  -6  -7  130.89    6.00
  -1  -6  -7  134.89    5.80
   1   6   7  127.69    6.40
   1   6   7  133.09    6.80
  -2  -6  -7    5.90    0.80
  -2  -6  -7    5.10    1.30
   2   6   7    4.40    0.80
  -3  -6  -7    4.60    0.90
  -3  -6  -7    1.80    1.10
  -3  -6  -7    1.20    0.50
  -3  -6  -7    2.60    0.60
  -3  -6  -7    2.50    1.20
   3   6   7    1.80    0.70
  -4  -6  -7  450.95   19.10
  -4  -6  -7  465.45   20.50
  -4  -6  -7  461.95   19.30
  -4  -6  -7  470.05   19.60
   4   6   7  464.85   19.40
  -5  -6  -7  151.18    6.90
  -5  -6  -7  161.18    7.20
  -5  -6  -7  155.68    8.10
  -5  -6  -7  148.69    6.70
  -6  -6  -7   58.99    4.10
  -6  -6  -7   59.69    2.80
  -6  -6  -7   54.29    3.20
  -7  -6  -7   21.90    1.80
  -7  -6  -7   24.10    2.50
  -7  -6  -7   25.10    1.40
  -8  -6  -7    1.80    0.90
  -8  -6  -7    1.50    0.30
   8   6   7    1.90    0.60
 -10   7   7   18.90    1.70
  -9   7   7   21.70    1.90
  -8   7   7   10.40    1.40
  -7   7   7   91.29    4.60
   6  -7  -7   48.80    3.60
  -6   7   7   49.30    3.20
  -6   7   7   54.59    3.00
   5  -7  -7  111.39    6.30
  -5   7   7  114.79    5.50
  -5   7   7  120.69    5.80
   4  -7  -7   36.90    2.30
   4  -7  -7   39.40    3.10
  -4   7   7   39.10    2.60
   3  -7  -7    4.40    1.30
   3  -7  -7    4.20    0.70
   3  -7  -7    2.60    0.80
  -3   7   7    3.90    0.90
   2  -7  -7   68.19    3.60
   2  -7  -7   68.59    3.30
   2  -7  -7   69.19    4.30
  -2   7   7   70.39    3.70
   1  -7  -7  309.67   13.10
   1  -7  -7  311.67   13.30
   1  -7  -7  303.27   14.20
  -1   7   7  314.17   13.40
   0  -7  -7   76.59    3.90
   0  -7  -7   76.99    3.60
   0  -7  -7   71.39    4.60
  -1  -7  -7    1.60    0.60
  -1  -7  -7    2.20    1.10
  -1  -7  -7    2.40    0.60
  -1  -7  -7    1.50    1.10
   1   7   7    1.30    0.60
  -2  -7  -7    1.30    0.60
  -2  -7  -7    1.50    0.80
  -2  -7  -7    1.60    1.10
  -2  -7  -7    1.90    0.60
   2   7   7    1.60    0.70
  -3  -7  -7   33.70    3.00
  -3  -7  -7   29.80    1.80
  -3  -7  -7   29.40    2.20
  -3  -7  -7   31.90    2.00
   3   7   7   32.80    2.10
  -4  -7  -7   95.99    4.60
  -4  -7  -7   87.89    5.50
  -4  -7  -7   91.39    4.20
   4   7   7   91.09    4.40
  -5  -7  -7   51.89    2.60
  -5  -7  -7   53.39    3.90
  -5  -7  -7   50.79    3.00
  -6  -7  -7    7.20    1.50
  -6  -7  -7    6.20    0.70
  -6  -7  -7    4.90    0.90
  -7  -7  -7    2.70    0.40
  -7  -7  -7    1.90    0.90
   7   7   7    2.10    0.60
 -11   8   7   21.30    1.60
 -10   8   7    5.20    1.00
  -9   8   7  142.49    6.70
  -8   8   7   52.59    3.20
   7  -8  -7   34.40    1.80
  -7   8   7   34.30    2.40
   6  -8  -7   65.89    3.10
  -6   8   7   65.69    3.60
   5  -8  -7   99.69    4.50
  -5   8   7  100.69    4.90
   4  -8  -7   80.99    5.30
   4  -8  -7   88.79    4.40
   4  -8  -7   90.59    4.00
  -4   8   7   88.39    4.70
  -4   8   7   89.69    4.30
   3  -8  -7   21.20    2.50
   3  -8  -7   21.00    1.80
   3  -8  -7   22.30    1.40
  -3   8   7   21.60    1.90
   2  -8  -7    5.60    1.50
   2  -8  -7    4.80    1.00
   2  -8  -7    4.50    0.70
  -2   8   7    4.10    1.00
   1  -8  -7   62.09    3.40
   1  -8  -7   59.69    2.90
   1  -8  -7   59.09    4.10
   0  -8  -7    5.20    0.70
   0   8   7    4.20    0.90
  -1  -8  -7   15.50    2.30
  -1  -8  -7   16.70    1.30
   1   8   7   12.10    1.30
  -2  -8  -7    4.00    0.70
  -2  -8  -7    5.30    1.50
   2   8   7    6.00    1.00
  -3  -8  -7   81.29    5.10
  -3  -8  -7   80.59    3.80
   3   8   7   83.89    4.10
  -4  -8  -7    8.10    1.10
  -4  -8  -7    6.90    1.60
  -4  -8  -7    6.50    0.80
   4   8   7    7.90    1.00
  -5  -8  -7   71.59    3.20
  -5  -8  -7   69.59    4.40
  -5  -8  -7   72.69    3.60
  -6  -8  -7   55.39    2.40
  -6  -8  -7   57.09    3.40
   6   8   7   51.59    2.70
  -7  -8  -7   21.60    1.70
 -11   9   7   12.40    1.20
 -10   9   7   15.30    1.60
  -9   9   7   78.59    4.20
  -8   9   7   22.30    2.10
  -7   9   7    4.40    1.10
   6  -9  -7   72.29    3.20
  -6   9   7   66.39    3.80
   5  -9  -7   21.60    1.50
  -5   9   7   23.00    2.00
   4  -9  -7   13.00    1.10
  -4   9   7   12.90    1.40
  -4   9   7   13.10    1.30
   3  -9  -7    6.90    0.80
  -3   9   7    5.80    1.00
   2  -9  -7   86.49    4.00
  -2   9   7   87.29    4.30
   1  -9  -7    3.70    0.70
  -1   9   7    4.90    1.00
   0  -9  -7  146.19    6.40
   0   9   7  150.28    6.80
  -1  -9  -7  145.99    6.20
  -1  -9  -7  138.49    7.40
   1   9   7  141.29    6.60
  -2  -9  -7    3.50    0.70
  -2  -9  -7    1.50    1.10
   2   9   7    1.90    0.80
  -3  -9  -7   85.49    3.70
  -3  -9  -7   80.19    4.90
   3   9   7   78.89    4.10
  -4  -9  -7   85.69    5.00
  -4  -9  -7   88.69    3.80
   4   9   7   85.29    4.10
  -5  -9  -7    9.40    1.40
  -6  -9  -7    1.70    0.70
 -11  10   7   19.30    1.40
 -10  10   7    4.60    0.90
  -9  10   7   25.90    2.00
  -8  10   7   45.70    2.90
  -7  10   7   14.00    1.60
  -6  10   7    1.90    0.90
   5 -10  -7    2.10    0.50
  -5  10   7    1.90    0.90
   4 -10  -7  177.98    7.50
  -4  10   7  175.58    7.90
   3 -10  -7  184.18    7.80
  -3  10   7  182.98    8.20
   2 -10  -7    9.30    0.90
  -2  10   7    9.00    1.20
   1 -10  -7   77.79    3.60
  -1  10   7   76.99    4.00
   0 -10  -7   16.70    1.20
   0  10   7   16.10    1.70
  -1 -10  -7   29.70    1.70
  -1 -10  -7   31.80    2.80
   1  10   7   28.50    2.10
  -2 -10  -7   29.20    1.50
  -2 -10  -7   25.60    2.60
   2  10   7   29.80    2.00
  -3 -10  -7   21.70    2.20
   3  10   7   21.40    1.60
  -4 -10  -7    0.70    0.80
   4  10   7    0.80    0.50
 -10  11   7   58.19    3.00
  -9  11   7   46.10    2.70
  -8  11   7   56.09    3.20
  -7  11   7    3.20    1.00
  -6  11   7    4.80    1.10
  -5  11   7   19.50    1.80
  -3  11   7    6.90    1.00
  -2  11   7   18.80    1.70
  -1  11   7   55.29    3.10
   0  11   7  101.09    4.80
  -1 -11  -7   49.90    3.30
   1  11   7   53.59    2.80
  -2 -11  -7   38.40    2.70
   2  11   7   39.00    2.20
  -3 -11  -7   12.80    1.50
  -9  12   7   53.99    2.80
  -8  12   7   37.60    2.30
  -7  12   7    7.70    1.10
  -6  12   7  187.18    8.30
  -3  12   7    3.60    0.80
  -2  12   7   20.60    1.60
  -1  12   7    8.50    1.00
   0  12   7   67.39    3.30
   1  12   7  288.57   12.20
  -7  13   7   19.50    1.30
  -2  13   7    6.10    0.90
   2 -13   8    1.00    0.80
  -3  13  -8  132.49    6.00
   3 -13   8  134.39    6.50
  -4  13  -8   18.50    1.50
   4 -13   8   16.50    2.00
  -5  13  -8    4.30    0.80
   5 -13   8    2.20    1.20
  -6  13  -8   30.70    2.00
   6 -13   8   31.70    3.00
  -7  13  -8   63.99    3.20
   7 -13   8   63.99    4.10
   0  12  -8   35.30    2.00
   0 -12   8   36.20    2.60
   1 -12   8    1.10    0.90
  -2  12  -8   11.20    1.30
   2 -12   8   12.10    1.80
  -3  12  -8   54.29    3.10
   3 -12   8   55.69    4.10
  -4  12  -8   50.19    3.10
   4 -12   8   60.99    4.90
  -5  12  -8  187.38    8.40
   5 -12   8  179.68   10.00
  -6  12  -8  117.69    6.60
  -6  12  -8  118.39    5.70
  -7  12  -8   -0.20    1.30
  -7  12  -8    0.80    0.70
  -8  12  -8    3.20    0.80
  -8  12  -8    4.60    1.50
  -9  12  -8    3.30    1.30
   2  11  -8    1.20    0.60
   1  11  -8    7.50    1.00
  -1 -11   8    8.60    1.40
   0  11  -8   31.20    2.10
   0 -11   8   36.60    2.90
  -1  11  -8   99.39    5.00
   1 -11   8  104.49    5.80
  -2  11  -8   28.40    2.30
   2 -11   8   32.00    3.60
  -3  11  -8   28.40    2.50
  -3  11  -8   32.10    2.40
   3 -11   8   28.50    3.80
  -4  11  -8   74.89    3.90
  -4  11  -8   80.89    5.60
  -4  11  -8   84.99    4.40
  -4  11  -8   85.89    4.50
  -5  11  -8  271.17   12.60
  -5  11  -8  286.47   12.70
  -5  11  -8  301.47   13.80
  -6  11  -8    4.00    1.90
  -6  11  -8    2.80    1.00
  -6  11  -8    3.30    1.10
  -7  11  -8   16.10    1.80
  -7  11  -8   19.30    2.70
  -7  11  -8   20.20    1.90
  -8  11  -8   13.40    1.50
  -8  11  -8   14.40    1.60
  -8  11  -8   13.70    2.20
  -9  11  -8  113.69    6.00
  -9  11  -8  106.89    5.30
 -10  11  -8    4.60    1.70
   4  10  -8    3.10    0.70
   3  10  -8    2.50    0.80
   2  10  -8   15.00    1.60
   1  10  -8  105.39    5.40
   1  10  -8  111.09    5.20
  -1 -10   8  105.69    5.80
   0  10  -8  110.69    5.90
   0  10  -8  115.09    5.70
   0  10  -8  113.69    5.50
   0 -10   8  123.59    6.40
  -1  10  -8    7.00    1.50
  -1  10  -8    8.60    1.30
  -1  10  -8   10.10    1.30
  -1  10  -8    7.10    1.60
   1 -10   8    9.90    2.10
  -2  10  -8   17.40    1.50
  -2  10  -8   16.20    2.00
  -2  10  -8   14.50    1.70
   2 -10   8    8.90    3.10
  -3  10  -8   10.30    1.50
  -3  10  -8   10.60    2.40
  -3  10  -8   11.70    1.70
  -4  10  -8    9.00    1.50
  -4  10  -8    8.70    1.40
  -4  10  -8    7.80    1.00
  -4  10  -8    7.50    2.20
  -5  10  -8   98.99    5.20
  -5  10  -8   94.29    5.10
  -5  10  -8   97.09    4.60
  -5  10  -8  103.59    6.40
  -6  10  -8  120.69    6.20
  -6  10  -8  141.39    7.60
  -6  10  -8  137.19    6.50
  -6  10  -8  119.19    5.80
  -7  10  -8   82.29    4.10
  -7  10  -8   90.19    5.70
  -7  10  -8   85.49    4.70
  -7  10  -8   88.59    4.60
  -8  10  -8  233.78   10.30
  -8  10  -8  215.98    9.50
  -8  10  -8  234.98   11.10
  -8  10  -8  215.88   10.00
  -9  10  -8  222.48    9.40
  -9  10  -8  221.58   10.00
  -9  10  -8  223.58   10.70
 -10  10  -8    4.40    1.30
 -10  10  -8    4.40    0.90
   5   9  -8    5.70    0.80
   4   9  -8   20.00    1.70
  -4  -9   8   18.20    1.70
   3   9  -8    7.40    1.20
  -3  -9   8    6.90    1.20
   2   9  -8   67.39    3.90
   2   9  -8   65.39    3.60
   1   9  -8   44.90    3.40
   1   9  -8   48.70    3.00
  -1  -9   8   60.39    3.80
   0   9  -8   17.90    1.90
   0   9  -8   15.20    1.50
   0   9  -8   16.80    2.10
   0   9  -8   18.90    1.70
   0  -9   8   22.90    2.90
  -1   9  -8   11.20    1.20
  -1   9  -8   13.80    1.80
  -1   9  -8   11.50    1.50
  -1   9  -8   11.90    1.40
   1  -9   8   -1.80    2.50
  -2   9  -8  287.47   13.90
  -2   9  -8  292.07   13.10
  -2   9  -8  300.07   12.90
  -3   9  -8  286.47   13.70
  -3   9  -8  287.57   12.20
  -3   9  -8  284.47   12.80
  -4   9  -8   10.40    1.50
  -4   9  -8    9.50    1.40
  -4   9  -8    9.50    2.10
  -4   9  -8   10.60    1.10
  -5   9  -8   76.89    5.20
  -5   9  -8   76.69    4.40
  -5   9  -8   74.49    4.20
  -5   9  -8   78.19    3.70
  -6   9  -8   -0.10    1.00
  -6   9  -8    0.60    0.90
  -6   9  -8    0.60    1.30
  -6   9  -8    0.20    0.50
  -7   9  -8   92.59    4.50
  -7   9  -8   92.59    5.90
  -7   9  -8  101.29    5.20
  -7   9  -8   96.79    4.90
  -8   9  -8  338.57   15.20
  -8   9  -8  378.46   16.70
  -8   9  -8  373.36   15.90
  -9   9  -8  106.09    5.50
  -9   9  -8  109.09    6.20
  -9   9  -8  107.69    4.80
 -10   9  -8    0.70    0.80
 -10   9  -8    0.20    0.90
 -10   9  -8    0.50    0.40
 -11   9  -8    3.00    0.90
 -11   9  -8    3.10    0.80
 -11   9  -8    2.50    0.50
   6   8  -8   11.80    1.10
  -6  -8   8   12.50    1.20
   5   8  -8    2.40    0.80
   4   8  -8    8.00    1.20
  -4  -8   8    9.70    1.30
   3   8  -8   12.10    1.60
   3   8  -8    6.80    1.20
   2   8  -8  155.58    7.80
   2   8  -8  164.58    7.40
   1   8  -8   84.79    5.10
   1   8  -8   93.79    4.70
   1   8  -8   89.29    4.50
   1   8  -8   83.59    4.70
  -1  -8   8  115.39    5.30
   0   8  -8   70.69    3.80
   0   8  -8   68.79    4.10
   0   8  -8   73.59    3.70
   0   8  -8   73.59    3.40
   0  -8   8   45.00    4.90
  -1   8  -8  110.89    5.80
  -1   8  -8  117.89    5.60
  -1   8  -8  110.69    5.40
  -1   8  -8  114.49    6.50
  -2   8  -8  113.39    5.40
  -2   8  -8  105.99    6.30
  -2   8  -8  111.79    5.00
  -2   8  -8  100.19    5.50
  -3   8  -8  167.98    8.60
  -3   8  -8  154.18    7.80
  -3   8  -8  163.28    7.70
  -3   8  -8  174.28    7.20
  -4   8  -8   40.40    2.70
  -4   8  -8   37.40    2.50
  -4   8  -8   38.20    2.10
  -4   8  -8   36.10    3.20
  -5   8  -8   22.40    2.10
  -5   8  -8   24.20    2.00
  -5   8  -8   24.90    1.60
  -5   8  -8   22.80    2.70
  -6   8  -8   31.60    3.10
  -6   8  -8   32.30    1.90
  -6   8  -8   31.10    2.50
  -6   8  -8   32.90    2.40
  -7   8  -8  377.96   16.50
  -7   8  -8  382.66   17.30
  -7   8  -8  391.66   15.90
  -7   8  -8  354.76   16.20
  -8   8  -8  458.35   19.50
  -8   8  -8  471.15   20.20
  -8   8  -8  473.05   21.00
  -9   8  -8    4.90    0.80
  -9   8  -8    5.00    1.60
  -9   8  -8    5.60    1.30
 -10   8  -8   70.59    3.30
 -10   8  -8   74.19    4.00
 -10   8  -8   67.09    4.40
 -11   8  -8   49.80    2.30
 -11   8  -8   48.10    2.90
 -11   8  -8   50.79    3.20
 -12   8  -8   19.50    1.00
  -7  -7   8    6.30    0.90
   6   7  -8   57.59    3.10
  -6  -7   8   57.99    3.20
   5   7  -8    1.90    0.90
  -5  -7   8    1.50    0.90
   4   7  -8  219.48    9.80
  -4  -7   8  218.78    9.90
   3   7  -8  107.19    5.40
   3   7  -8  118.39    6.00
   2   7  -8   11.30    1.40
   2   7  -8    7.50    1.00
   2   7  -8    6.50    1.50
   1   7  -8  177.48    8.10
   1   7  -8  186.78    7.90
   1   7  -8  178.38    8.60
   1   7  -8  171.48    8.20
   1   7  -8  185.78    8.60
   0   7  -8    5.40    1.20
   0   7  -8    6.10    1.20
   0   7  -8    7.40    1.20
   0   7  -8    7.30    1.10
   0   7  -8    7.60    0.90
   0   7  -8    6.10    1.70
  -1   7  -8  133.29    6.40
  -1   7  -8  126.79    6.50
  -1   7  -8  131.39    6.00
  -1   7  -8  125.29    6.30
  -1   7  -8  138.99    5.80
  -2   7  -8  126.99    5.60
  -2   7  -8  121.19    6.10
  -2   7  -8  130.09    6.30
  -3   7  -8  357.96   16.00
  -3   7  -8  382.96   15.50
  -3   7  -8  371.36   16.30
  -4   7  -8  116.29    5.80
  -4   7  -8  114.69    5.00
  -4   7  -8  109.29    5.40
  -4   7  -8  104.49    6.00
  -4   7  -8  117.59    5.60
  -5   7  -8   31.40    2.50
  -5   7  -8   36.00    3.00
  -5   7  -8   38.20    2.00
  -5   7  -8   38.50    2.40
  -6   7  -8  180.88    7.70
  -6   7  -8  181.78    8.40
  -6   7  -8  173.88    8.10
  -6   7  -8  176.48    9.00
  -7   7  -8   85.09    5.30
  -7   7  -8   86.89    4.00
  -7   7  -8   83.49    4.70
  -8   7  -8    5.10    1.40
  -8   7  -8    4.70    0.80
  -8   7  -8    4.70    1.60
  -9   7  -8    7.20    1.50
  -9   7  -8    7.00    0.90
  -9   7  -8    8.90    1.90
 -10   7  -8  166.98    7.20
 -10   7  -8  168.38    8.50
 -10   7  -8  164.88    7.90
 -11   7  -8   45.50    2.80
 -11   7  -8   46.50    2.20
 -11   7  -8   42.80    3.10
 -12   7  -8    1.90    0.40
  -8  -6   8    5.50    0.80
  -7  -6   8    2.30    0.80
   6   6  -8    9.40    1.20
  -6  -6   8    7.80    1.30
   5   6  -8   80.09    4.20
  -5  -6   8   84.99    4.50
   4   6  -8  310.27   13.60
   4   6  -8  292.67   13.00
   3   6  -8    0.20    0.60
   3   6  -8   -0.10    0.80
   3   6  -8    1.80    1.00
   2   6  -8   26.40    1.90
   2   6  -8   27.30    2.20
   2   6  -8   18.90    2.20
   2   6  -8   23.10    1.90
   2   6  -8   25.40    1.70
   1   6  -8   71.99    3.70
   1   6  -8   69.89    4.00
   1   6  -8   65.79    4.00
   1   6  -8   80.19    3.50
   0   6  -8  762.12   29.60
   0   6  -8  747.73   30.30
   0   6  -8  651.93   30.50
   0   6  -8  724.93   30.20
   0   6  -8  718.43   30.20
  -1   6  -8  142.39    5.90
  -1   6  -8  138.09    6.60
  -1   6  -8  140.59    6.80
  -1   6  -8  126.49    6.60
  -2   6  -8  287.97   12.30
  -2   6  -8  277.47   11.60
  -2   6  -8  270.67   12.40
  -3   6  -8    5.40    0.60
  -3   6  -8    6.10    1.10
  -3   6  -8    7.00    1.20
  -4   6  -8  279.97   12.50
  -4   6  -8  293.17   12.30
  -4   6  -8  269.07   12.40
  -4   6  -8  288.47   11.70
   4  -6   8  277.77   12.70
  -5   6  -8  590.84   24.40
  -5   6  -8  581.74   23.80
   5  -6   8  563.04   24.90
  -6   6  -8  225.18   11.00
  -6   6  -8  229.98    9.80
  -6   6  -8  250.77   10.50
   6  -6   8  219.98   10.90
  -7   6  -8    2.00    0.60
  -7   6  -8    0.80    0.90
  -7   6  -8    1.20    1.20
  -8   6  -8  276.17   12.00
  -8   6  -8  291.07   12.70
  -8   6  -8  285.57   13.50
  -9   6  -8  364.96   15.80
  -9   6  -8  387.86   16.50
  -9   6  -8  375.76   17.20
 -10   6  -8  251.37   12.00
 -10   6  -8  245.18   11.50
 -10   6  -8  261.67   11.50
 -11   6  -8  159.68    8.00
 -11   6  -8  161.78    7.00
 -11   6  -8  170.28    7.60
 -12   6  -8  186.48    7.80
  -8  -5   8   12.50    1.40
  -7  -5   8    1.40    0.90
   6   5  -8   48.60    2.90
  -6  -5   8   52.99    3.20
   5   5  -8  166.68    7.60
  -5  -5   8  165.58    7.80
   4   5  -8   90.49    4.50
   4   5  -8   94.49    4.70
   4   5  -8  107.69    5.30
   3   5  -8   48.60    3.10
   3   5  -8   49.50    2.80
   3   5  -8   47.40    3.20
   2   5  -8  332.47   14.90
   2   5  -8  317.87   14.00
   2   5  -8  330.87   14.40
   2   5  -8  331.07   14.40
   2   5  -8  334.47   13.90
   1   5  -8   80.29    3.90
   1   5  -8   87.79    4.40
   1   5  -8   95.29    4.60
   1   5  -8   83.89    4.70
   0   5  -8   63.89    2.80
   0   5  -8   57.09    3.20
   0   5  -8   59.99    3.50
   0   5  -8   58.19    3.30
  -1   5  -8  486.85   20.60
  -1   5  -8  497.85   21.10
  -1   5  -8  533.15   21.30
  -1   5  -8  494.25   21.30
  -2   5  -8   27.30    2.00
  -2   5  -8   31.80    2.10
  -2   5  -8   32.70    1.50
  -3   5  -8   56.79    2.90
  -3   5  -8   46.60    2.20
  -3   5  -8   51.79    2.90
   3  -5   8   47.10    2.90
  -4   5  -8  222.38   10.20
  -4   5  -8  234.08   10.20
  -4   5  -8  219.78    9.50
   4  -5   8  247.48   10.60
  -5   5  -8  910.61   38.50
  -5   5  -8  892.81   37.80
  -5   5  -8  965.40   38.40
   5  -5   8  938.61   39.00
  -6   5  -8    5.20    1.30
  -6   5  -8    6.20    1.10
  -6   5  -8    5.80    0.70
   6  -5   8    5.50    1.40
  -7   5  -8  141.39    6.70
  -7   5  -8  138.89    7.30
  -7   5  -8  135.59    6.00
  -8   5  -8   49.00    2.50
  -8   5  -8   43.10    3.70
  -8   5  -8   48.00    3.20
  -9   5  -8   31.60    2.60
  -9   5  -8   31.40    3.10
  -9   5  -8   28.60    1.80
 -10   5  -8  340.77   15.50
 -10   5  -8  361.26   15.00
 -10   5  -8  322.77   14.30
 -11   5  -8   77.29    3.50
 -11   5  -8   78.89    4.60
 -11   5  -8   77.09    4.10
 -12   5  -8   46.20    2.80
 -12   5  -8   49.80    2.20
   9   4  -8    8.80    1.00
  -9  -4   8   10.60    1.30
   8   4  -8   13.30    1.30
  -8  -4   8    9.90    1.30
   7   4  -8    4.20    1.50
  -7  -4   8    3.50    1.10
   6   4  -8  221.68    9.90
  -6  -4   8  229.28   10.30
   5   4  -8   78.89    3.90
  -5  -4   8   74.59    4.10
   4   4  -8  116.59    5.60
   4   4  -8  102.59    4.90
   4   4  -8  103.79    5.00
   3   4  -8   11.70    1.50
   3   4  -8   12.10    1.10
   3   4  -8   10.60    1.50
   3   4  -8   11.50    1.80
   3   4  -8   10.80    1.20
  -3  -4   8   11.40    1.60
   2   4  -8   49.00    2.30
   2   4  -8   39.90    2.90
   2   4  -8   47.60    2.80
   2   4  -8   44.00    2.70
  -2  -4   8   43.50    2.90
   1   4  -8  194.28    8.50
   1   4  -8  185.08    8.70
   1   4  -8  182.88    8.40
  -1  -4   8  187.28    8.50
   0   4  -8   59.49    3.10
   0   4  -8   53.59    2.90
   0   4  -8   54.19    2.50
   0   4  -8   59.49    3.10
   0  -4   8   51.39    2.90
  -1   4  -8  189.08    8.50
  -1   4  -8  173.48    7.80
  -1   4  -8  188.38    8.30
  -1   4  -8  199.68    8.40
   1  -4   8  198.38    8.30
  -2   4  -8  569.64   24.30
  -2   4  -8  592.14   24.20
  -3   4  -8   55.39    2.80
  -3   4  -8   54.09    2.90
   3  -4   8   49.50    3.00
  -4   4  -8  392.96   16.80
   4  -4   8  402.96   17.30
  -5   4  -8   15.20    0.90
  -5   4  -8   15.70    1.40
   5  -4   8   13.60    1.80
  -6   4  -8  138.69    5.90
  -6   4  -8  138.59    6.50
   6  -4   8  130.79    7.00
  -7   4  -8   20.30    1.90
  -7   4  -8   23.90    1.40
  -7   4  -8   24.00    2.60
   7  -4   8   20.90    2.40
  -8   4  -8  137.49    7.20
  -8   4  -8  123.49    5.80
  -8   4  -8  138.79    6.60
  -9   4  -8   44.60    3.70
  -9   4  -8   42.90    3.10
  -9   4  -8   45.10    2.40
 -10   4  -8   66.19    4.40
 -10   4  -8   75.39    4.10
 -10   4  -8   64.29    3.30
 -11   4  -8    0.30    0.80
 -11   4  -8    0.60    0.40
 -11   4  -8    1.40    1.00
 -12   4  -8    3.20    0.40
 -12   4  -8    3.20    0.80
  10   3  -8    2.00    0.60
 -10  -3   8    1.80    0.60
   9   3  -8    2.00    0.70
  -9  -3   8    2.00    0.80
   8   3  -8  218.78    9.80
  -8  -3   8  230.98   10.20
   7   3  -8  201.58    8.80
  -7  -3   8  196.08    9.20
   6   3  -8  121.49    5.50
   6   3  -8  112.49    5.50
  -6  -3   8  110.89    5.70
   5   3  -8  195.18    8.80
   5   3  -8  200.38    8.70
  -5  -3   8  202.98    9.10
   4   3  -8    8.60    1.60
   4   3  -8   10.70    1.10
   4   3  -8   14.00    1.50
   4   3  -8    9.30    1.10
   4   3  -8   11.20    1.40
   4   3  -8   10.30    1.50
  -4  -3   8   11.10    1.60
   3   3  -8    7.00    1.10
   3   3  -8    7.20    1.10
   3   3  -8    6.80    1.10
   3   3  -8    7.30    0.80
   3   3  -8    8.20    1.40
  -3  -3   8    7.00    1.20
   2   3  -8  417.06   17.30
   2   3  -8  411.26   17.80
   2   3  -8  436.86   18.10
   2   3  -8  449.95   17.90
   2   3  -8  395.86   17.70
  -2  -3   8  398.56   17.90
   1   3  -8  144.79    6.60
   1   3  -8  145.29    6.10
   1   3  -8  138.49    6.60
   1   3  -8  154.78    6.80
   1   3  -8  143.99    6.70
  -1  -3   8  138.19    6.60
   0   3  -8   53.19    2.60
   0   3  -8   48.10    2.50
   0   3  -8   49.30    2.70
   0   3  -8   41.70    2.10
   0  -3   8   44.70    2.40
  -1   3  -8 1008.60   40.40
  -1   3  -8  943.11   40.30
  -1   3  -8  972.00   40.60
   1  -3   8 1012.10   40.20
  -2   3  -8   21.30    1.30
  -2   3  -8   21.50    1.50
  -2   3  -8   19.90    1.20
   2  -3   8   21.40    1.60
  -3   3  -8   20.40    1.40
  -3   3  -8   19.90    1.20
   3  -3   8   20.90    1.70
  -4   3  -8  264.47   11.30
   4  -3   8  264.37   11.90
  -5   3  -8   26.00    1.60
  -5   3  -8   27.80    1.90
   5  -3   8   34.10    2.50
  -6   3  -8   57.99    2.70
  -6   3  -8   60.29    3.30
   6  -3   8   57.59    3.80
  -7   3  -8  109.49    6.00
  -7   3  -8  100.19    5.20
  -7   3  -8  105.19    4.70
   7  -3   8  107.89    6.10
  -8   3  -8   60.09    3.00
  -8   3  -8   61.29    4.30
  -8   3  -8   63.79    3.70
  -9   3  -8   27.90    1.80
  -9   3  -8   29.00    2.50
  -9   3  -8   30.40    3.10
 -10   3  -8   13.40    1.70
 -10   3  -8   12.90    1.90
 -10   3  -8   12.40    1.10
 -11   3  -8  101.09    5.40
 -11   3  -8  100.89    4.40
 -11   3  -8  103.19    5.00
 -12   3  -8  182.28    7.60
  10   2  -8    9.90    1.00
 -10  -2   8   10.70    1.20
   9   2  -8  326.57   14.70
  -9  -2   8  367.56   15.10
   8   2  -8  134.99    6.30
  -8  -2   8  135.59    6.60
   7   2  -8   43.60    2.60
  -7  -2   8   41.60    2.90
   6   2  -8    4.40    0.90
   6   2  -8    3.50    0.80
  -6  -2   8    2.20    0.90
   5   2  -8   19.00    1.40
   5   2  -8   19.50    1.60
  -5  -2   8   22.10    1.70
   4   2  -8   75.39    3.90
   4   2  -8   76.89    3.50
   4   2  -8   72.99    4.50
   4   2  -8   71.99    4.10
  -4  -2   8   74.39    3.80
  -4  -2   8   68.59    4.10
   3   2  -8  714.03   30.40
   3   2  -8  744.13   30.80
   3   2  -8  747.43   30.30
   3   2  -8  682.83   29.80
   3   2  -8  750.02   30.50
  -3  -2   8  724.53   30.50
   2   2  -8   10.10    1.20
   2   2  -8   11.70    1.30
   2   2  -8    8.50    1.10
   2   2  -8    9.80    0.80
   2   2  -8   11.00    1.10
  -2  -2   8    9.20    1.10
   1   2  -8   21.80    1.50
   1   2  -8   21.70    1.50
   1   2  -8   20.90    1.10
   1   2  -8   22.80    1.60
   1   2  -8   24.60    1.70
  -1  -2   8   22.40    1.40
   0   2  -8   47.50    2.40
   0   2  -8   46.60    2.40
   0   2  -8   46.40    2.60
   0   2  -8   42.90    2.40
   0  -2   8   47.80    2.20
  -1   2  -8  243.38   10.20
  -1   2  -8  245.48   10.00
  -1   2  -8  237.48   10.00
  -1   2  -8  228.58   10.20
  -1   2  -8  249.08   10.30
   1  -2   8  230.28   10.20
  -2   2  -8   28.30    1.60
  -2   2  -8   25.90    1.20
  -2   2  -8   26.00    1.60
   2  -2   8   24.00    1.50
   2  -2   8   25.10    1.80
  -3   2  -8   10.90    0.80
  -3   2  -8    9.20    0.90
   3  -2   8   10.70    1.00
   3  -2   8   10.50    1.30
  -4   2  -8  463.25   20.20
   4  -2   8  514.45   21.00
  -5   2  -8  105.69    5.00
   5  -2   8   99.39    5.50
  -6   2  -8   12.20    1.40
  -6   2  -8   13.20    0.90
   6  -2   8   11.20    1.80
  -7   2  -8   37.20    2.40
  -7   2  -8   32.60    1.90
  -7   2  -8   38.50    3.10
   7  -2   8   37.70    3.10
  -8   2  -8  352.26   14.80
  -8   2  -8  331.47   14.20
  -8   2  -8  327.87   15.50
  -9   2  -8   86.39    5.30
  -9   2  -8   77.89    4.40
  -9   2  -8   81.59    3.90
 -10   2  -8   11.30    1.00
 -10   2  -8   14.70    1.60
 -10   2  -8   12.00    1.20
 -10   2  -8   12.40    1.90
 -11   2  -8   11.70    1.70
 -11   2  -8   11.10    0.90
 -12   2  -8   13.50    0.80
  11   1  -8    1.70    0.60
 -11  -1   8    1.60    0.80
  10   1  -8   24.50    1.80
 -10  -1   8   23.00    1.90
   9   1  -8  111.59    5.40
  -9  -1   8  113.19    5.60
   8   1  -8   21.00    1.90
  -8  -1   8   21.00    2.10
   7   1  -8  116.09    5.70
  -7  -1   8  124.19    6.00
   6   1  -8  109.49    5.30
  -6  -1   8  112.79    5.50
   5   1  -8  375.96   17.30
   5   1  -8  416.86   16.60
   5   1  -8  401.86   17.00
   5   1  -8  402.46   17.90
  -5  -1   8  375.66   16.90
  -5  -1   8  410.36   17.50
  -5  -1   8  390.26   17.90
   4   1  -8   11.70    1.60
   4   1  -8   12.00    1.20
   4   1  -8    9.70    1.40
   4   1  -8    9.60    0.90
  -4  -1   8    9.50    1.30
  -4  -1   8   10.30    1.20
   3   1  -8  477.55   20.90
   3   1  -8  506.35   21.10
   3   1  -8  492.45   20.80
   3   1  -8  492.05   20.20
   3   1  -8  497.35   20.70
  -3  -1   8  485.85   20.90
   2   1  -8   60.49    3.10
   2   1  -8   57.79    3.20
   2   1  -8   62.69    3.20
   2   1  -8   61.69    3.20
   2   1  -8   59.09    2.60
  -2  -1   8   58.09    3.10
   1   1  -8   34.40    2.00
   1   1  -8   35.50    2.00
   1   1  -8   37.10    2.10
   1   1  -8   34.80    2.10
  -1  -1   8   35.20    1.90
   0   1  -8   82.59    3.90
   0   1  -8   77.19    3.50
   0   1  -8   79.89    3.80
   0   1  -8   78.09    3.60
   0   1  -8   82.69    3.90
  -1   1  -8    7.30    0.90
  -1   1  -8    7.00    0.80
  -1   1  -8    7.60    0.90
  -1   1  -8    6.90    0.90
  -2   1  -8  224.48    9.90
  -2   1  -8  225.98    9.60
   2  -1   8  218.48    9.60
  -3   1  -8  219.38   10.10
  -3   1  -8  225.28    9.40
   3  -1   8  224.68    9.70
  -4   1  -8    6.00    0.80
  -4   1  -8    6.90    1.20
   4  -1   8    4.30    0.80
  -5   1  -8    2.40    0.70
  -5   1  -8    2.20    0.40
  -5   1  -8    3.10    1.00
   5  -1   8    2.80    0.80
  -6   1  -8  473.05   19.40
   6  -1   8  468.25   20.70
  -7   1  -8  157.28    6.90
  -7   1  -8  162.88    8.20
   7  -1   8  159.58    8.40
  -8   1  -8   38.70    3.50
  -8   1  -8   38.60    2.20
  -9   1  -8    1.00    0.60
  -9   1  -8    2.60    1.30
   9  -1   8    1.30    0.70
 -10   1  -8    3.70    0.60
 -10   1  -8    3.80    1.30
 -11   1  -8    9.20    0.80
 -11   1  -8   10.80    1.60
  11   0  -8   63.89    3.30
 -11   0   8   72.19    3.50
  10   0  -8   15.80    1.60
 -10   0   8   14.80    1.70
   9   0  -8   35.40    2.40
  -9   0   8   36.60    2.60
   8   0  -8   86.09    4.40
  -8   0   8   87.89    4.60
   7   0  -8   83.59    4.20
  -7   0   8   86.69    4.40
   6   0  -8    4.00    0.70
  -6   0   8    4.50    0.90
   5   0  -8  131.89    6.70
   5   0  -8  134.99    6.40
   5   0  -8  134.39    7.00
   5   0  -8  149.29    6.00
  -5   0   8  127.89    6.20
  -5   0   8  131.79    6.70
   4   0  -8  512.55   21.00
   4   0  -8  486.45   21.60
   4   0  -8  506.05   21.90
   4   0  -8  515.15   21.40
  -4   0   8  508.45   21.70
  -4   0   8  517.55   21.40
   3   0  -8    2.60    0.70
   3   0  -8    1.60    0.50
   3   0  -8    2.00    0.70
   3   0  -8    2.40    0.40
  -3   0   8    2.80    0.70
  -3   0   8    2.50    0.70
   2   0  -8   39.90    2.30
   2   0  -8   34.50    1.70
   2   0  -8   38.40    2.20
   2   0  -8   38.80    2.30
  -2   0   8   37.70    2.20
  -2   0   8   38.20    2.10
   1   0  -8 2038.50   78.99
   1   0  -8 1933.51   79.19
   1   0  -8 1962.00   78.89
   1   0  -8 1831.72   78.99
  -1   0   8 1891.91   79.19
   0   0  -8    4.00    0.70
   0   0  -8    4.50    0.70
   0   0  -8    4.50    0.50
   0   0  -8    4.90    0.80
   0   0  -8    5.20    0.50
  -1   0  -8   39.10    1.80
  -1   0  -8   41.40    2.30
  -1   0  -8   37.60    2.10
  -1   0  -8   39.50    2.40
  -2   0  -8  253.37   11.50
  -2   0  -8  265.97   10.80
  -2   0  -8  248.08   10.80
   2   0   8  262.47   11.00
   2   0   8  271.67   11.30
  -3   0  -8    1.10    0.70
  -3   0  -8    1.50    0.40
   3   0   8    1.20    0.60
  -4   0  -8   86.39    4.10
  -4   0  -8   79.79    4.70
   4   0   8   83.99    4.30
  -5   0  -8    3.20    1.10
  -5   0  -8    3.80    0.50
  -5   0  -8    4.60    0.90
   5   0   8    3.10    0.90
  -6   0  -8  241.48   12.40
  -6   0  -8  223.58   10.70
  -6   0  -8  211.38    9.30
  -7   0  -8   27.20    1.70
  -7   0  -8   31.60    2.90
  -7   0  -8   26.00    1.90
  -8   0  -8   47.60    2.90
  -8   0  -8   45.70    3.80
  -8   0  -8   55.39    2.70
  -9   0  -8   34.80    3.20
  -9   0  -8   29.30    1.90
   9   0   8   30.00    2.10
 -10   0  -8   13.60    1.90
 -10   0  -8   14.40    1.10
  10   0   8   11.80    1.20
 -11   0  -8    1.80    0.80
 -11   0  -8    2.70    0.50
  11   0   8    3.30    0.60
  11  -1  -8  160.88    7.10
 -11   1   8  160.18    7.20
  10  -1  -8   25.10    2.00
 -10   1   8   28.00    2.20
   9  -1  -8   29.30    2.20
  -9   1   8   30.80    2.30
   8  -1  -8    2.10    0.80
  -8   1   8    1.60    0.90
   7  -1  -8    2.00    0.80
  -7   1   8    0.90    0.80
   6  -1  -8  390.96   16.40
  -6   1   8  400.76   16.80
  -6   1   8  386.56   16.70
   5  -1  -8  625.04   27.40
   5  -1  -8  642.74   27.70
   5  -1  -8  693.03   26.70
   5  -1  -8  661.63   27.00
  -5   1   8  623.04   26.90
  -5   1   8  629.34   27.50
   4  -1  -8    6.70    1.30
   4  -1  -8    6.80    1.00
   4  -1  -8    4.60    0.60
   4  -1  -8    4.60    1.00
  -4   1   8    5.90    0.90
  -4   1   8    5.30    1.00
   3  -1  -8  358.36   15.10
   3  -1  -8  378.76   15.80
   3  -1  -8  369.96   15.90
   3  -1  -8  382.16   15.60
  -3   1   8  363.06   15.70
  -3   1   8  350.46   15.50
   2  -1  -8   24.10    1.70
   2  -1  -8   26.30    1.70
   2  -1  -8   22.50    1.70
   2  -1  -8   23.40    1.20
  -2   1   8   26.90    1.60
  -2   1   8   26.90    1.70
   1  -1  -8  727.53   31.30
   1  -1  -8  791.92   31.40
   1  -1  -8  758.42   31.30
  -1   1   8  726.33   31.20
  -1   1   8  779.52   31.10
   0  -1  -8   31.30    2.00
   0  -1  -8   32.10    1.70
   0  -1  -8   31.10    2.00
   0   1   8   33.10    1.50
   0   1   8   33.50    1.80
  -1  -1  -8  597.84   26.40
  -1  -1  -8  639.84   25.90
  -1  -1  -8  655.43   26.40
   1   1   8  627.44   26.00
  -2  -1  -8  185.78    8.10
  -2  -1  -8  183.68    8.70
   2   1   8  199.28    8.50
  -3  -1  -8  249.68   10.60
  -3  -1  -8  237.88   11.10
   3   1   8  243.48   10.80
  -4  -1  -8  106.39    4.90
  -4  -1  -8  124.89    6.20
  -4  -1  -8  118.79    5.60
   4   1   8  120.99    5.80
  -5  -1  -8    6.00    1.10
  -5  -1  -8    8.00    0.70
  -5  -1  -8    7.30    1.50
   5   1   8    7.30    1.30
  -6  -1  -8  183.68    9.50
  -6  -1  -8  198.98    9.50
  -6  -1  -8  195.28    8.70
  -6  -1  -8  198.28    8.30
  -7  -1  -8    2.00    0.60
  -7  -1  -8    1.30    0.80
  -7  -1  -8    1.00    1.10
  -8  -1  -8   14.00    1.20
  -8  -1  -8   10.70    1.40
  -8  -1  -8   12.60    2.10
  -9  -1  -8  139.39    7.00
  -9  -1  -8  125.79    5.60
  -9  -1  -8  127.99    5.80
   9   1   8  125.29    6.00
 -10  -1  -8    2.10    0.50
 -10  -1  -8    1.30    1.00
  10   1   8    1.50    0.70
 -11  -1  -8   19.60    1.00
 -11  -1  -8   17.00    1.60
  11   1   8   18.40    1.30
  12  -2  -8  127.89    5.60
  11  -2  -8    3.40    0.80
 -11   2   8    2.00    0.80
  10  -2  -8  146.79    6.60
 -10   2   8  142.09    6.80
   9  -2  -8   25.00    2.10
  -9   2   8   28.80    2.20
   8  -2  -8    1.20    0.80
  -8   2   8    0.40    0.80
   7  -2  -8  399.86   16.40
   7  -2  -8  379.86   16.60
  -7   2   8  380.06   16.50
   6  -2  -8  727.83   31.20
  -6   2   8  787.12   31.60
   5  -2  -8  124.59    6.40
   5  -2  -8  119.89    6.10
   5  -2  -8  122.59    5.70
   5  -2  -8  128.19    5.40
  -5   2   8  119.89    5.70
  -5   2   8  112.09    6.10
   4  -2  -8   25.60    1.80
   4  -2  -8   24.70    2.20
   4  -2  -8   27.20    1.50
   4  -2  -8   27.30    2.00
  -4   2   8   27.30    1.80
  -4   2   8   26.30    2.00
   3  -2  -8  254.47   11.50
   3  -2  -8  255.17   10.90
   3  -2  -8  258.37   11.30
   3  -2  -8  256.27   11.60
  -3   2   8  273.27   11.50
  -3   2   8  276.57   11.40
   2  -2  -8  169.98    7.60
   2  -2  -8  153.78    7.50
   2  -2  -8  168.68    7.70
   2  -2  -8  173.28    7.50
   2  -2  -8  160.68    7.00
  -2   2   8  178.68    7.50
  -2   2   8  175.48    7.50
   1  -2  -8 1924.11   78.79
   1  -2  -8 1958.30   79.39
   1  -2  -8 2058.59   79.29
   1  -2  -8 1785.92   79.29
  -1   2   8 2057.89   79.19
  -1   2   8 1853.81   79.09
   0  -2  -8 1729.43   65.39
   0  -2  -8 1505.75   65.69
   0  -2  -8 1536.55   65.59
   0   2   8 1595.74   65.29
   0   2   8 1626.94   65.29
  -1  -2  -8  283.87   12.60
  -1  -2  -8  276.47   12.20
  -1  -2  -8  300.87   12.50
   1   2   8  277.37   12.00
   1   2   8  283.87   12.10
   1   2   8  298.97   12.40
  -2  -2  -8   32.40    2.00
  -2  -2  -8   34.50    1.50
  -2  -2  -8   33.10    2.40
   2   2   8   34.70    2.20
  -3  -2  -8  146.09    6.40
  -3  -2  -8  140.59    7.40
  -3  -2  -8  162.08    7.10
   3   2   8  162.78    7.20
  -4  -2  -8  115.59    6.20
  -4  -2  -8  119.19    5.00
  -4  -2  -8  111.09    5.70
   4   2   8  119.79    5.90
  -5  -2  -8  102.99    6.00
  -5  -2  -8  115.89    4.90
  -6  -2  -8   15.30    1.60
  -6  -2  -8   15.70    1.20
  -6  -2  -8   15.60    2.30
  -7  -2  -8    5.00    0.80
  -7  -2  -8    4.80    1.00
  -7  -2  -8    4.70    1.40
  -8  -2  -8  234.98   10.20
  -8  -2  -8  249.48   11.50
  -8  -2  -8  235.98   10.20
  -8  -2  -8  225.08   10.40
  -9  -2  -8   37.30    3.10
  -9  -2  -8   33.90    1.90
   9   2   8   35.30    2.20
 -10  -2  -8   36.50    1.80
 -10  -2  -8   37.70    2.70
  10   2   8   36.20    2.10
  12  -3  -8    3.20    0.60
  11  -3  -8  144.59    6.60
 -11   3   8  152.58    6.80
  10  -3  -8   74.49    3.80
 -10   3   8   72.79    3.90
   9  -3  -8    3.00    0.90
  -9   3   8    1.40    0.90
   8  -3  -8    4.20    0.90
   8  -3  -8    4.00    1.00
  -8   3   8    3.60    1.00
   7  -3  -8    8.40    1.30
   6  -3  -8   19.70    1.40
  -6   3   8   16.90    1.60
   5  -3  -8   23.80    2.00
   5  -3  -8   23.60    1.40
   5  -3  -8   22.90    2.20
  -5   3   8   20.30    1.70
  -5   3   8   21.10    1.90
   4  -3  -8  126.49    6.30
   4  -3  -8  128.09    6.10
   4  -3  -8  132.59    5.50
  -4   3   8  119.29    5.80
  -4   3   8  116.59    6.10
   3  -3  -8  304.47   12.30
   3  -3  -8  318.57   13.00
   3  -3  -8  290.27   12.90
   3  -3  -8  296.77   13.10
  -3   3   8  293.47   12.70
  -3   3   8  273.47   12.90
   2  -3  -8   46.20    2.30
   2  -3  -8   51.19    2.90
   2  -3  -8   44.50    2.80
   2  -3  -8   56.09    3.00
  -2   3   8   47.20    2.60
  -2   3   8   51.69    2.80
   1  -3  -8  302.77   13.20
   1  -3  -8  324.67   13.30
   1  -3  -8  312.57   13.10
   1  -3  -8  292.27   12.50
  -1   3   8  291.97   12.90
  -1   3   8  299.47   13.00
   0  -3  -8  326.87   13.20
   0  -3  -8  323.27   13.40
   0  -3  -8  289.37   12.60
   0  -3  -8  294.27   13.50
   0   3   8  311.07   13.20
   0   3   8  299.17   13.00
  -1  -3  -8   15.30    0.90
  -1  -3  -8   17.30    1.70
  -1  -3  -8   15.20    1.30
   1   3   8   15.50    1.30
   1   3   8   14.90    1.30
   1   3   8   17.10    1.50
  -2  -3  -8  300.87   12.10
  -2  -3  -8  287.67   13.20
  -2  -3  -8  293.37   12.80
   2   3   8  282.07   12.80
   2   3   8  300.47   12.80
  -3  -3  -8  273.47   12.20
  -3  -3  -8  281.87   12.60
  -3  -3  -8  276.97   11.40
   3   3   8  255.27   12.20
   3   3   8  286.77   12.30
  -4  -3  -8    3.70    0.60
  -4  -3  -8    4.20    1.10
  -4  -3  -8    5.70    1.40
  -5  -3  -8   62.59    3.40
  -5  -3  -8   64.39    4.30
  -5  -3  -8   66.59    3.10
  -5  -3  -8   63.09    4.20
  -6  -3  -8   12.20    1.20
  -6  -3  -8    9.60    1.80
  -6  -3  -8    9.60    1.30
  -7  -3  -8  111.99    5.50
  -7  -3  -8  114.39    5.20
  -7  -3  -8  111.29    6.40
  -8  -3  -8  225.68   10.30
  -8  -3  -8  213.68    8.90
  -8  -3  -8  224.68    9.40
  -8  -3  -8  182.38    9.00
  -9  -3  -8   51.69    2.40
  -9  -3  -8   51.39    3.50
   9   3   8   49.10    2.80
 -10  -3  -8   15.20    0.90
 -10  -3  -8   14.70    1.50
  10   3   8   15.20    1.20
  12  -4  -8   22.50    1.40
  11  -4  -8    2.20    0.70
  10  -4  -8   15.30    1.60
   9  -4  -8   98.09    4.60
  -9   4   8   87.59    4.50
   8  -4  -8  242.18   10.50
  -8   4   8  238.88   10.60
   7  -4  -8  148.69    7.00
   7  -4  -8  138.49    6.60
  -7   4   8  150.58    7.00
   6  -4  -8    2.80    0.60
  -6   4   8    3.60    0.90
   5  -4  -8   62.89    3.00
   5  -4  -8   57.89    3.90
   5  -4  -8   62.49    3.60
  -5   4   8   63.19    3.40
  -5   4   8   61.39    3.80
   4  -4  -8   73.39    3.40
   4  -4  -8   71.39    4.40
   4  -4  -8   75.69    4.30
   4  -4  -8   71.09    4.00
  -4   4   8   77.19    4.20
  -4   4   8   72.29    3.80
   3  -4  -8  272.87   12.00
   3  -4  -8  263.97   11.70
   3  -4  -8  261.57   11.80
   3  -4  -8  265.37   11.10
  -3   4   8  258.77   11.80
  -3   4   8  263.97   11.50
   2  -4  -8   95.79    4.20
   2  -4  -8   85.89    4.90
   2  -4  -8   99.69    4.90
   2  -4  -8   91.59    4.80
  -2   4   8   95.89    4.50
  -2   4   8   98.09    4.80
   1  -4  -8    7.40    1.10
   1  -4  -8    9.80    1.40
   1  -4  -8    8.10    1.20
   1  -4  -8    8.60    0.70
  -1   4   8    8.40    1.00
  -1   4   8   11.90    1.20
   0  -4  -8   64.19    2.90
   0  -4  -8   64.09    3.50
   0  -4  -8   69.19    3.80
   0   4   8   59.49    3.40
   0   4   8   58.29    3.10
   0   4   8   63.39    3.50
  -1  -4  -8  802.82   35.50
  -1  -4  -8  844.82   34.50
  -1  -4  -8  851.81   35.30
   1   4   8  875.41   35.20
   1   4   8  840.62   35.20
  -2  -4  -8  170.88    7.10
  -2  -4  -8  172.98    8.20
  -2  -4  -8  165.38    7.90
   2   4   8  163.38    7.90
   2   4   8  155.08    7.70
  -3  -4  -8  221.58   10.30
  -3  -4  -8  240.98    9.40
  -3  -4  -8  205.98   10.50
   3   4   8  215.28   10.30
  -4  -4  -8   45.00    3.50
  -4  -4  -8   43.60    3.50
  -4  -4  -8   46.90    2.70
  -4  -4  -8   49.70    2.50
  -5  -4  -8  101.99    5.30
  -5  -4  -8  112.99    5.00
  -5  -4  -8  112.49    6.20
  -6  -4  -8    1.60    0.60
  -6  -4  -8    1.70    1.20
  -6  -4  -8    0.70    0.90
  -7  -4  -8   52.79    3.00
  -7  -4  -8   48.80    2.60
  -7  -4  -8   49.90    3.80
  -7  -4  -8   46.10    2.50
  -8  -4  -8  105.49    5.90
  -8  -4  -8  109.79    5.20
  -8  -4  -8  107.59    4.70
  -9  -4  -8    3.90    0.50
  -9  -4  -8    4.80    1.10
   9   4   8    4.30    0.80
  11  -5  -8   20.10    1.50
  10  -5  -8   32.10    2.20
   9  -5  -8  103.09    4.80
  -9   5   8   91.59    4.70
   8  -5  -8    9.30    1.10
  -8   5   8    5.30    1.00
   7  -5  -8   11.20    1.20
  -7   5   8    8.70    1.30
  -7   5   8    7.20    1.10
   6  -5  -8   27.40    2.10
  -6   5   8   21.10    1.90
   5  -5  -8   72.19    3.40
   5  -5  -8   66.79    4.00
  -5   5   8   72.59    3.90
   4  -5  -8   96.69    5.40
   4  -5  -8   96.89    5.20
   4  -5  -8  103.39    5.10
   4  -5  -8   95.89    4.40
  -4   5   8  101.39    4.80
  -4   5   8   82.99    5.00
   3  -5  -8   83.89    4.40
   3  -5  -8   83.99    3.80
   3  -5  -8   86.09    4.70
   3  -5  -8   84.99    4.70
  -3   5   8   77.09    4.50
  -3   5   8   86.49    4.30
   2  -5  -8   16.60    1.70
   2  -5  -8   16.40    1.80
   2  -5  -8   19.40    1.20
   2  -5  -8   18.50    1.80
  -2   5   8   17.80    1.50
  -2   5   8   17.30    1.70
   1  -5  -8   14.60    1.50
   1  -5  -8   17.00    1.90
   1  -5  -8   14.50    1.00
   1  -5  -8   14.70    1.60
  -1   5   8   12.30    1.50
  -1   5   8   14.50    1.30
  -1   5   8   14.00    1.40
   0  -5  -8   15.40    1.70
   0  -5  -8   16.30    1.90
   0  -5  -8   17.40    1.10
   0   5   8   15.40    1.60
   0   5   8   16.10    1.60
   0   5   8   12.10    1.20
  -1  -5  -8   68.99    4.20
  -1  -5  -8   75.99    3.40
  -1  -5  -8   72.99    4.40
   1   5   8   81.29    4.30
   1   5   8   67.29    4.00
  -2  -5  -8   92.79    5.40
  -2  -5  -8   92.09    5.20
  -2  -5  -8   92.69    4.60
  -2  -5  -8  105.69    4.40
   2   5   8   92.19    5.20
  -3  -5  -8  150.58    7.50
  -3  -5  -8  136.39    7.30
  -3  -5  -8  134.59    6.40
  -3  -5  -8  146.29    6.20
   3   5   8  131.99    6.20
  -4  -5  -8   12.80    1.20
  -4  -5  -8   13.50    1.40
  -4  -5  -8   11.20    1.90
  -5  -5  -8  150.78    7.10
  -5  -5  -8  161.88    7.30
  -5  -5  -8  154.58    6.80
  -5  -5  -8  148.79    8.00
  -6  -5  -8  137.19    6.50
  -6  -5  -8  147.49    6.80
  -6  -5  -8  151.68    6.30
  -6  -5  -8  146.49    7.70
  -7  -5  -8   11.20    1.30
  -7  -5  -8   13.00    1.10
  -7  -5  -8   10.10    1.80
  -8  -5  -8   -0.20    0.80
  -8  -5  -8    0.60    0.40
   8   5   8    0.50    0.60
  -9  -5  -8   11.30    1.30
  -9  -5  -8   11.70    0.70
   9   5   8   10.70    1.00
 -10   6   8    9.40    1.20
  -9   6   8    3.80    1.00
  -8   6   8    5.00    1.00
  -7   6   8  157.78    7.30
  -6   6   8    1.70    0.80
  -6   6   8    1.20    0.80
   5  -6  -8  116.19    5.10
   5  -6  -8  106.29    6.00
  -5   6   8  110.39    5.60
   4  -6  -8  124.89    6.50
   4  -6  -8  116.69    5.40
   4  -6  -8  119.29    6.10
  -4   6   8  123.59    5.90
   3  -6  -8   57.19    3.40
   3  -6  -8   55.29    2.70
   3  -6  -8   52.79    3.60
   3  -6  -8   55.19    3.70
  -3   6   8   54.79    3.10
  -3   6   8   52.69    3.50
   2  -6  -8    0.80    0.70
   2  -6  -8    1.50    0.50
   2  -6  -8    1.20    0.80
   2  -6  -8    0.90    0.90
  -2   6   8    1.20    0.70
  -2   6   8    2.90    1.00
  -2   6   8    0.90    0.60
   1  -6  -8   72.09    4.30
   1  -6  -8   75.39    4.50
   1  -6  -8   76.79    3.40
  -1   6   8   72.19    4.00
  -1   6   8   73.89    3.70
  -1   6   8   65.79    4.20
   0  -6  -8  325.37   13.20
   0  -6  -8  310.47   13.50
   0  -6  -8  314.57   14.30
   0  -6  -8  311.67   14.30
   0   6   8  311.27   13.90
   0   6   8  307.97   14.20
  -1  -6  -8   86.29    5.30
  -1  -6  -8   97.89    4.30
  -1  -6  -8   92.49    4.50
  -2  -6  -8   38.20    3.10
  -2  -6  -8   38.80    2.10
  -2  -6  -8   33.50    2.30
  -2  -6  -8   38.40    3.10
   2   6   8   34.50    2.10
  -3  -6  -8   18.30    2.50
  -3  -6  -8   16.60    1.40
  -3  -6  -8   19.90    1.60
   3   6   8   15.40    1.40
  -4  -6  -8    2.50    0.60
  -4  -6  -8    3.10    0.70
  -4  -6  -8    3.90    1.00
  -4  -6  -8    2.40    1.30
   4   6   8    3.80    0.80
  -5  -6  -8  209.78    8.40
  -5  -6  -8  206.88    9.90
  -5  -6  -8  180.78    8.60
  -5  -6  -8  192.98    8.90
  -6  -6  -8   12.80    2.00
  -6  -6  -8   16.80    1.30
  -6  -6  -8   13.10    1.40
  -7  -6  -8    5.70    0.90
  -7  -6  -8    4.80    1.30
  -7  -6  -8    4.60    0.60
  -8  -6  -8   33.90    1.60
  -8  -6  -8   33.60    2.40
   8   6   8   35.00    1.90
 -11   7   8   37.30    2.40
 -10   7   8   81.79    4.10
  -9   7   8    3.20    1.00
   8  -7  -8   30.10    1.70
  -8   7   8   34.70    2.40
  -7   7   8    7.50    1.20
  -6   7   8    7.90    1.20
   5  -7  -8    4.10    1.30
  -5   7   8    4.20    1.00
  -5   7   8    5.30    1.00
   4  -7  -8   18.30    1.70
   4  -7  -8   22.00    2.30
   4  -7  -8   19.60    1.50
  -4   7   8   23.20    1.90
  -4   7   8   20.90    1.70
   3  -7  -8   99.99    5.80
   3  -7  -8  103.69    4.70
   3  -7  -8  100.39    4.90
  -3   7   8  101.89    5.10
   2  -7  -8   54.89    3.90
   2  -7  -8   57.09    2.90
   2  -7  -8   60.79    3.20
  -2   7   8   59.39    3.30
   1  -7  -8   64.09    3.30
   1  -7  -8   56.79    2.90
   1  -7  -8   56.09    3.90
   0  -7  -8  162.28    7.50
   0  -7  -8  158.78    8.40
   0  -7  -8  167.78    7.20
  -1  -7  -8   60.19    3.00
  -1  -7  -8   61.29    3.30
  -1  -7  -8   60.39    3.10
   1   7   8   64.49    3.20
  -2  -7  -8    2.20    0.70
  -2  -7  -8    0.60    1.00
  -2  -7  -8    1.50    0.60
  -2  -7  -8    1.40    0.80
   2   7   8    1.60    0.70
  -3  -7  -8    8.60    1.70
  -3  -7  -8   10.70    1.30
  -3  -7  -8    9.90    1.10
  -3  -7  -8    8.50    0.90
   3   7   8    8.40    1.10
  -4  -7  -8  321.17   14.80
  -4  -7  -8  322.87   13.90
  -4  -7  -8  325.17   13.50
   4   7   8  319.67   13.70
  -5  -7  -8  191.38    8.20
  -5  -7  -8  196.48    9.50
  -5  -7  -8  187.98    8.60
  -6  -7  -8   78.49    4.60
  -6  -7  -8   78.19    3.40
  -6  -7  -8   70.59    3.80
  -7  -7  -8    1.50    0.80
  -7  -7  -8    0.60    0.30
   7   7   8    1.60    0.50
 -11   8   8    2.20    0.70
 -10   8   8   27.90    2.00
  -9   8   8    2.90    1.00
  -8   8   8   43.40    2.80
   7  -8  -8   52.09    2.50
  -7   8   8   54.09    3.20
   6  -8  -8  550.54   22.10
  -6   8   8  521.05   22.60
   5  -8  -8   46.30    2.30
  -5   8   8   41.90    2.70
   4  -8  -8   25.80    1.70
   4  -8  -8   27.00    2.00
  -4   8   8   28.30    2.00
   3  -8  -8   17.60    1.70
   3  -8  -8   13.90    1.20
  -3   8   8   16.50    2.30
   2  -8  -8    9.20    1.30
   2  -8  -8   10.60    1.00
   2  -8  -8   10.30    1.10
  -2   8   8    8.60    1.30
   1  -8  -8  101.19    5.00
   1  -8  -8   99.59    4.70
   0  -8  -8    8.40    0.90
   0  -8  -8    7.10    0.90
   0   8   8    9.50    1.20
  -1  -8  -8   53.59    2.90
  -1  -8  -8   52.69    2.70
   1   8   8   56.09    3.10
  -2  -8  -8    1.80    1.20
  -2  -8  -8    1.60    0.60
   2   8   8    1.30    0.80
  -3  -8  -8  105.19    5.90
  -3  -8  -8  100.19    5.00
  -3  -8  -8  100.09    4.60
   3   8   8  105.59    4.90
  -4  -8  -8   75.99    3.50
  -4  -8  -8   75.29    3.80
  -4  -8  -8   72.39    4.60
   4   8   8   76.09    3.70
  -5  -8  -8   46.20    2.70
  -5  -8  -8   52.89    2.40
  -5  -8  -8   49.00    3.40
  -6  -8  -8    4.00    1.00
  -6  -8  -8    4.50    0.50
   6   8   8    3.90    0.60
 -11   9   8   18.70    1.40
 -10   9   8    3.90    0.90
  -9   9   8    5.40    1.10
  -8   9   8   19.00    1.90
  -7   9   8   99.79    5.10
   6  -9  -8   48.60    2.30
  -6   9   8   44.20    2.90
   5  -9  -8   22.10    1.50
  -5   9   8   22.60    1.90
   4  -9  -8   43.10    2.80
   4  -9  -8   41.30    2.20
  -4   9   8   41.00    2.60
   3  -9  -8  146.39    6.90
   3  -9  -8  144.09    6.30
   2  -9  -8    5.40    0.80
  -2   9   8    4.40    0.90
   1  -9  -8   31.40    1.90
  -1   9   8   33.30    2.20
   0  -9  -8   10.00    1.00
   0   9   8    8.60    1.20
  -1  -9  -8   34.50    1.90
   1   9   8   34.10    2.30
  -2  -9  -8  186.38    9.50
  -2  -9  -8  196.98    8.30
   2   9   8  200.18    8.70
  -3  -9  -8    4.20    0.70
  -3  -9  -8    4.10    1.30
   3   9   8    5.00    0.90
  -4  -9  -8   86.89    4.90
  -4  -9  -8   89.39    3.80
   4   9   8   88.29    4.20
  -5  -9  -8   39.50    2.70
 -10  10   8    2.40    0.70
  -9  10   8    4.90    1.00
  -8  10   8  170.88    7.80
  -7  10   8   66.99    3.70
  -6  10   8    0.60    0.90
   5 -10  -8    4.80    0.70
  -5  10   8    4.40    1.00
   4 -10  -8   68.49    3.20
  -4  10   8   68.79    3.60
   3 -10  -8  211.38    8.70
  -3  10   8  198.48    9.10
   2 -10  -8   76.79    3.60
  -2  10   8   77.59    4.00
   1 -10  -8   42.30    2.20
  -1  10   8   39.20    2.50
   0 -10  -8    5.10    0.70
   0  10   8    5.60    1.00
  -1 -10  -8   10.90    0.90
   1  10   8   13.60    1.40
  -2 -10  -8   31.70    1.60
  -2 -10  -8   26.80    2.50
   2  10   8   28.00    2.00
  -3 -10  -8    1.90    0.40
  -3 -10  -8    1.90    1.00
   3  10   8    4.20    0.80
  -4 -10  -8   81.39    4.20
 -10  11   8   24.40    1.60
  -9  11   8   36.40    2.20
  -8  11   8   83.69    4.20
  -7  11   8   10.50    1.30
  -6  11   8  256.17   11.20
  -5  11   8   14.70    1.60
  -4  11   8   60.79    3.20
   3 -11  -8    4.00    0.60
  -3  11   8    4.10    0.90
   2 -11  -8   53.89    2.50
  -2  11   8   56.49    3.00
   1 -11  -8   46.30    2.10
  -1  11   8   43.70    2.60
   0 -11  -8    2.30    0.50
   0  11   8    3.20    0.80
   1  11   8  117.29    5.40
  -2 -11  -8    1.30    0.80
   2  11   8    2.10    0.60
  -9  12   8    1.50    0.50
  -8  12   8   14.70    1.30
  -7  12   8   20.30    1.60
  -6  12   8    7.70    1.00
  -3  12   8    3.40    0.80
  -2  12   8    0.50    0.60
  -1  12   8  252.57   10.80
   0  12   8   87.09    4.10
  -3  13  -9   55.79    2.90
   3 -13   9   57.09    3.20
  -4  13  -9   45.70    2.50
   4 -13   9   42.10    2.80
  -5  13  -9    1.70    0.60
   5 -13   9    0.30    1.00
  -6  13  -9   12.20    1.20
   6 -13   9   11.50    1.80
   0 -12   9   21.20    1.80
   1 -12   9   19.00    1.90
  -2  12  -9    4.30    0.90
   2 -12   9    2.80    1.10
  -3  12  -9   83.09    4.30
   3 -12   9   86.49    5.00
  -4  12  -9   16.70    1.70
   4 -12   9   22.00    3.30
  -5  12  -9  117.09    5.50
   5 -12   9  108.69    7.10
  -6  12  -9   26.50    2.00
  -6  12  -9   29.30    3.20
  -6  12  -9   27.00    2.00
  -7  12  -9  120.59    6.40
  -7  12  -9  107.79    5.70
  -7  12  -9  123.89    5.50
  -8  12  -9    9.10    1.70
  -8  12  -9   10.30    1.10
   2  11  -9   43.60    2.40
   1  11  -9  185.28    8.10
   0  11  -9  118.09    5.60
   0 -11   9  122.29    6.20
  -1  11  -9   -0.50    0.90
  -1  11  -9    3.20    0.90
   1 -11   9    4.50    1.20
  -2  11  -9    3.30    1.00
  -2  11  -9    1.30    1.10
   2 -11   9    4.50    1.60
  -3  11  -9   32.80    2.50
  -3  11  -9   29.70    2.60
   3 -11   9   33.60    4.50
  -4  11  -9  213.98    9.80
  -4  11  -9  216.88   10.00
  -4  11  -9  222.58   11.00
  -5  11  -9  240.38   11.40
  -5  11  -9  275.77   11.40
  -5  11  -9  251.37   12.40
  -6  11  -9  344.97   15.60
  -6  11  -9  328.57   14.60
  -6  11  -9  331.77   14.50
  -7  11  -9    0.30    0.80
  -7  11  -9    3.10    1.60
  -7  11  -9    1.00    0.90
  -8  11  -9    2.60    1.50
  -8  11  -9    0.80    0.70
  -8  11  -9    2.70    0.80
  -9  11  -9    8.60    1.10
  -9  11  -9   10.30    1.70
   3  10  -9    4.50    0.80
   2  10  -9   59.19    3.10
  -2 -10   9   52.89    3.00
   1  10  -9  158.88    7.60
   1  10  -9  158.98    7.20
   0  10  -9   58.39    3.20
   0  10  -9   53.69    3.30
   0  10  -9   51.29    3.50
   0 -10   9   63.89    3.90
  -1  10  -9   93.79    5.30
  -1  10  -9   99.19    5.30
  -1  10  -9   98.09    4.70
  -1  10  -9  101.09    5.10
   1 -10   9  107.99    6.10
  -2  10  -9   17.10    1.90
  -2  10  -9   21.80    2.30
  -2  10  -9   16.50    1.50
   2 -10   9   14.00    3.30
  -3  10  -9   20.00    1.60
  -3  10  -9   15.20    2.70
  -3  10  -9   19.10    2.20
  -3  10  -9   19.90    2.10
  -4  10  -9   34.20    3.90
  -4  10  -9   30.20    2.50
  -4  10  -9   30.70    2.60
  -4  10  -9   28.30    1.90
  -5  10  -9   44.00    2.50
  -5  10  -9   42.50    3.00
  -5  10  -9   45.50    3.10
  -5  10  -9   45.70    4.30
  -6  10  -9   37.00    2.70
  -6  10  -9   37.40    2.20
  -6  10  -9   43.00    4.00
  -6  10  -9   37.60    2.80
  -7  10  -9  131.29    6.40
  -7  10  -9  129.49    7.40
  -7  10  -9  135.09    6.60
  -8  10  -9    3.00    0.60
  -8  10  -9    3.30    1.10
  -8  10  -9    2.50    1.50
  -8  10  -9    4.30    1.00
  -9  10  -9    5.10    0.60
  -9  10  -9    5.30    1.50
  -9  10  -9    4.50    1.00
 -10  10  -9   18.00    1.60
 -10  10  -9   18.40    2.10
   5   9  -9   80.29    3.80
   4   9  -9    2.20    0.80
  -4  -9   9    1.20    0.70
   3   9  -9    5.40    1.00
  -3  -9   9    5.10    1.00
   2   9  -9  110.09    5.80
   2   9  -9  116.19    5.50
   1   9  -9   26.40    2.20
   1   9  -9   24.10    2.00
   1   9  -9   21.90    2.40
   0   9  -9   81.09    4.30
   0   9  -9   77.29    4.60
   0   9  -9   80.39    4.10
   0   9  -9   73.59    3.90
   0  -9   9   83.69    5.00
  -1   9  -9   25.10    2.00
  -1   9  -9   25.70    1.80
  -1   9  -9   24.00    2.20
  -1   9  -9   27.00    2.60
   1  -9   9    8.70    3.10
  -2   9  -9   59.19    3.60
  -2   9  -9   57.49    3.70
  -2   9  -9   58.09    4.70
  -3   9  -9  458.35   19.30
  -3   9  -9  471.75   20.00
  -3   9  -9  463.15   19.80
  -3   9  -9  448.96   20.70
  -4   9  -9  192.18    8.90
  -4   9  -9  192.68    8.40
  -4   9  -9  190.98    9.00
  -4   9  -9  189.68    9.80
  -5   9  -9    0.50    0.60
  -5   9  -9    1.10    1.30
  -5   9  -9    1.20    1.10
  -5   9  -9    0.30    0.90
  -6   9  -9   97.29    4.60
  -6   9  -9  104.79    5.40
  -6   9  -9   98.89    6.10
  -6   9  -9   96.49    5.10
  -7   9  -9   31.00    2.40
  -7   9  -9   30.00    3.30
  -7   9  -9   29.70    1.80
  -7   9  -9   29.50    2.60
  -8   9  -9   76.29    3.80
  -8   9  -9   79.59    5.20
  -8   9  -9   84.09    4.50
  -9   9  -9    0.70    0.90
  -9   9  -9    1.10    1.20
  -9   9  -9    1.70    0.60
 -10   9  -9    3.20    0.90
 -10   9  -9    2.60    0.50
 -10   9  -9    3.00    1.20
 -11   9  -9    6.20    1.30
 -11   9  -9    5.90    0.60
   5   8  -9    1.80    0.70
  -5  -8   9    0.80    0.70
   4   8  -9    8.70    1.20
  -4  -8   9    9.70    1.30
   3   8  -9  417.36   17.90
   3   8  -9  424.06   18.40
   2   8  -9   26.30    2.10
   2   8  -9   25.50    2.40
   1   8  -9   27.80    2.30
   1   8  -9   32.80    2.20
   1   8  -9   30.20    2.70
   1   8  -9   29.70    2.00
   0   8  -9   30.90    2.80
   0   8  -9   39.70    2.20
   0   8  -9   34.90    2.40
   0   8  -9   38.50    2.60
   0  -8   9   26.90    3.70
  -1   8  -9    3.40    0.90
  -1   8  -9    2.60    1.60
  -1   8  -9    1.60    0.70
  -1   8  -9    1.30    1.00
  -1   8  -9    3.80    1.10
  -2   8  -9  227.08   10.70
  -2   8  -9  248.68   10.10
  -2   8  -9  237.38   10.60
  -2   8  -9  223.58   11.40
  -3   8  -9  309.27   13.00
  -3   8  -9  311.27   13.70
  -3   8  -9  301.57   14.40
  -3   8  -9  311.07   13.50
  -4   8  -9   42.00    2.30
  -4   8  -9   39.90    3.40
  -4   8  -9   44.00    2.80
  -4   8  -9   46.20    3.10
  -5   8  -9   98.59    5.10
  -5   8  -9   91.79    4.80
  -5   8  -9   94.09    4.30
  -5   8  -9   89.79    5.60
  -6   8  -9  108.29    4.90
  -6   8  -9  109.99    5.40
  -6   8  -9  100.69    6.20
  -6   8  -9  104.29    5.60
  -7   8  -9  258.27   11.40
  -7   8  -9  240.78   12.10
  -7   8  -9  248.28   10.70
  -8   8  -9  195.88    9.40
  -8   8  -9  202.08   10.20
  -8   8  -9  209.48    8.80
  -9   8  -9   31.40    2.50
  -9   8  -9   27.40    3.00
 -10   8  -9    8.30    1.30
 -10   8  -9    9.40    0.80
 -10   8  -9    9.00    1.60
 -11   8  -9    7.40    1.10
 -11   8  -9    4.60    1.10
 -11   8  -9    6.80    0.60
   6   7  -9    1.20    0.70
  -6  -7   9    1.20    0.70
   5   7  -9    1.50    0.80
  -5  -7   9    3.30    1.00
   4   7  -9   55.29    3.20
  -4  -7   9   55.49    3.40
   3   7  -9  122.69    6.00
   3   7  -9  129.19    6.50
   2   7  -9  108.19    5.20
   2   7  -9  100.49    4.90
   2   7  -9  110.89    5.70
   2   7  -9  100.59    5.20
   1   7  -9    3.90    1.00
   1   7  -9    3.20    1.30
   1   7  -9    4.20    0.80
   1   7  -9    5.10    1.20
   0   7  -9   54.89    2.70
   0   7  -9   44.60    2.80
   0   7  -9   47.50    3.50
   0   7  -9   52.49    3.30
   0   7  -9   53.59    3.10
  -1   7  -9   76.59    3.40
  -1   7  -9   73.69    3.70
  -1   7  -9   69.79    3.80
  -1   7  -9   69.19    4.00
  -1   7  -9   64.79    4.70
  -1   7  -9   68.69    4.10
  -2   7  -9  256.57   10.60
  -2   7  -9  253.97   11.40
  -2   7  -9  251.97   11.20
  -2   7  -9  250.57   11.10
  -2   7  -9  234.68   11.70
  -3   7  -9   56.79    2.80
  -3   7  -9   58.19    3.30
  -3   7  -9   56.99    3.40
  -3   7  -9   59.09    3.90
  -3   7  -9   59.89    3.60
  -4   7  -9   56.59    4.00
  -4   7  -9   61.29    2.90
  -4   7  -9   63.39    3.60
  -4   7  -9   63.29    3.80
  -4   7  -9   58.49    3.40
  -5   7  -9   28.90    2.30
  -5   7  -9   37.10    2.60
  -5   7  -9   35.20    3.10
  -5   7  -9   33.70    1.90
  -6   7  -9  261.97   12.40
  -6   7  -9  289.77   13.40
  -6   7  -9  298.27   12.70
  -6   7  -9  285.77   12.00
  -7   7  -9  108.39    4.90
  -7   7  -9  104.59    6.30
  -7   7  -9  105.29    5.60
  -8   7  -9  338.87   16.10
  -8   7  -9  344.27   14.60
  -8   7  -9  359.06   15.40
  -9   7  -9   18.00    2.70
  -9   7  -9   16.40    1.90
  -9   7  -9   18.90    1.40
 -10   7  -9   23.50    2.20
 -10   7  -9   24.80    2.60
 -11   7  -9  142.29    7.00
 -11   7  -9  140.49    6.60
 -11   7  -9  144.49    6.10
   7   6  -9   16.20    1.30
  -7  -6   9   17.60    1.60
   6   6  -9  309.37   12.90
  -6  -6   9  290.47   13.10
   5   6  -9    1.60    0.90
  -5  -6   9    2.50    1.00
   4   6  -9  207.08    9.40
   4   6  -9  214.18   10.00
   3   6  -9    6.90    1.00
   3   6  -9    6.20    1.10
   3   6  -9    6.20    1.40
   2   6  -9   30.40    2.50
   2   6  -9   33.00    2.00
   2   6  -9   33.20    2.40
   2   6  -9   33.30    2.20
   2   6  -9   33.10    2.70
   1   6  -9   99.09    4.40
   1   6  -9   94.59    4.70
   1   6  -9   93.99    4.50
   1   6  -9   84.39    4.90
   1   6  -9   90.89    5.00
   0   6  -9  127.69    5.70
   0   6  -9  131.29    6.30
   0   6  -9  135.19    6.50
   0   6  -9  127.49    6.00
  -1   6  -9  135.59    6.40
  -1   6  -9  133.79    5.80
  -1   6  -9  131.39    6.50
  -2   6  -9   15.80    1.00
  -2   6  -9   17.50    1.70
  -2   6  -9   15.10    1.70
  -3   6  -9   63.69    2.90
  -3   6  -9   61.09    3.70
  -3   6  -9   68.49    3.60
  -4   6  -9  172.48    8.30
  -4   6  -9  180.08    8.40
  -4   6  -9  186.08    7.60
  -5   6  -9  160.88    7.60
  -5   6  -9  157.18    7.40
  -5   6  -9  159.88    8.20
  -5   6  -9  174.48    6.90
   5  -6   9  153.58    8.00
  -6   6  -9  187.28    8.70
  -6   6  -9  182.28    9.30
  -6   6  -9  191.88    8.00
  -7   6  -9   17.90    1.30
  -7   6  -9   18.80    2.00
  -7   6  -9   16.30    2.50
  -8   6  -9   96.29    5.90
  -8   6  -9   90.49    4.30
  -8   6  -9   96.19    5.10
  -9   6  -9    1.70    0.60
  -9   6  -9    1.40    1.00
  -9   6  -9    2.70    1.40
 -10   6  -9  233.08   10.70
 -10   6  -9  238.98   11.30
 -11   6  -9  126.09    5.40
 -11   6  -9  123.39    6.40
 -11   6  -9  127.69    6.00
 -12   6  -9   44.00    2.00
  -8  -5   9   62.59    3.30
   7   5  -9   56.49    3.00
  -7  -5   9   58.79    3.30
   6   5  -9    2.60    0.90
  -6  -5   9    2.90    1.00
   5   5  -9  352.66   14.90
  -5  -5   9  342.17   15.20
   4   5  -9   68.49    3.60
   4   5  -9   64.89    3.40
   4   5  -9   72.09    4.20
   3   5  -9  120.89    6.20
   3   5  -9  137.19    6.10
   3   5  -9  132.69    6.60
   3   5  -9  122.79    6.50
   3   5  -9  137.19    5.90
   2   5  -9    2.40    0.80
   2   5  -9    2.40    0.70
   2   5  -9    2.10    1.10
   2   5  -9    3.20    1.00
   1   5  -9  374.26   16.80
   1   5  -9  415.86   15.80
   1   5  -9  376.16   16.00
   1   5  -9  347.97   16.30
   1   5  -9  381.46   16.50
  -1  -5   9  373.36   16.60
   0   5  -9  174.88    8.20
   0   5  -9  166.88    7.50
   0   5  -9  193.78    8.40
   0   5  -9  170.08    8.00
  -1   5  -9   17.40    1.00
  -1   5  -9   16.20    1.60
  -1   5  -9   18.40    1.70
  -1   5  -9   18.80    1.50
  -2   5  -9   63.99    3.40
  -2   5  -9   64.29    3.60
  -2   5  -9   63.79    2.80
  -3   5  -9   18.00    1.00
  -3   5  -9   19.40    1.50
  -3   5  -9   20.40    1.70
  -4   5  -9    4.80    0.50
  -4   5  -9    5.70    1.00
  -4   5  -9    4.80    1.00
  -4   5  -9    5.80    1.00
   4  -5   9    5.40    1.20
  -5   5  -9  344.57   14.60
  -5   5  -9  380.46   15.30
   5  -5   9  340.37   15.80
  -6   5  -9  256.97   11.70
  -6   5  -9  277.67   11.10
  -6   5  -9  251.37   12.30
   6  -5   9  263.77   12.40
  -7   5  -9    0.80    0.90
  -7   5  -9    2.60    1.30
  -7   5  -9    1.40    0.50
  -8   5  -9   18.40    2.60
  -8   5  -9   19.30    2.10
  -8   5  -9   21.90    1.40
  -9   5  -9   40.80    2.30
  -9   5  -9   41.20    3.60
  -9   5  -9   43.00    3.00
 -10   5  -9   10.90    1.90
 -10   5  -9    8.60    1.40
 -11   5  -9   18.30    1.80
 -11   5  -9   18.10    2.10
 -11   5  -9   18.80    1.20
 -12   5  -9   12.60    0.80
  -9  -4   9   13.20    1.30
  -8  -4   9   20.90    1.90
   7   4  -9  101.69    5.00
  -7  -4   9  102.79    5.20
   6   4  -9  122.59    5.80
  -6  -4   9  125.29    6.20
   5   4  -9   13.00    1.40
  -5  -4   9   11.80    1.50
   4   4  -9   24.10    2.60
   4   4  -9   26.40    2.30
   4   4  -9   29.00    2.80
   4   4  -9   24.90    1.90
   4   4  -9   28.30    1.80
   3   4  -9   41.30    2.40
   3   4  -9   47.80    2.30
   3   4  -9   36.60    2.80
   3   4  -9   39.50    2.80
   2   4  -9   67.59    3.10
   2   4  -9   62.29    3.70
   2   4  -9   61.29    3.50
   2   4  -9   66.99    4.00
  -2  -4   9   63.89    3.80
   1   4  -9   91.59    3.90
   1   4  -9   88.09    4.40
   1   4  -9   95.49    4.60
   1   4  -9   83.99    4.60
  -1  -4   9   81.39    4.50
   0   4  -9  191.38    8.70
   0   4  -9  183.48    7.90
   0   4  -9  184.88    8.50
   0   4  -9  202.78    8.70
   0  -4   9  191.18    8.50
  -1   4  -9   21.30    1.50
  -1   4  -9   18.40    1.50
  -1   4  -9   18.30    1.60
   1  -4   9   19.40    1.40
  -2   4  -9  414.96   16.80
  -2   4  -9  379.16   17.00
  -3   4  -9  174.28    7.40
  -3   4  -9  159.08    7.60
   3  -4   9  167.18    7.80
  -4   4  -9  316.47   13.80
   4  -4   9  337.77   14.50
  -5   4  -9  169.88    8.30
  -5   4  -9  193.08    7.90
  -5   4  -9  190.98    8.40
   5  -4   9  187.48    9.00
  -6   4  -9   10.20    1.80
  -6   4  -9    8.00    1.30
  -6   4  -9    9.20    0.80
   6  -4   9   10.20    1.70
  -7   4  -9    5.20    1.20
  -7   4  -9    5.50    1.50
  -7   4  -9    6.30    0.70
  -8   4  -9  340.07   14.20
  -8   4  -9  310.57   14.90
  -8   4  -9  313.87   13.50
  -9   4  -9    8.00    1.40
  -9   4  -9    7.40    1.70
  -9   4  -9    9.30    1.00
 -10   4  -9   13.30    1.70
 -10   4  -9    9.70    1.70
 -11   4  -9   69.19    3.70
 -11   4  -9   72.89    3.20
 -11   4  -9   72.29    4.20
 -12   4  -9   82.39    3.50
   9   3  -9    2.40    0.70
  -9  -3   9    2.10    0.80
   8   3  -9   11.00    1.20
  -8  -3   9   11.60    1.50
   7   3  -9   89.79    4.50
  -7  -3   9   91.39    4.90
   6   3  -9  183.48    8.40
   6   3  -9  196.08    8.40
  -6  -3   9  184.08    8.70
   5   3  -9   12.20    1.20
   5   3  -9   12.60    1.30
  -5  -3   9   13.60    1.60
   4   3  -9    4.50    1.10
   4   3  -9    6.00    0.80
   4   3  -9    3.50    0.80
   4   3  -9    5.10    1.10
   3   3  -9  133.59    6.50
   3   3  -9  141.89    6.60
   3   3  -9  134.39    6.00
  -3  -3   9  133.29    6.70
   2   3  -9   71.29    3.80
   2   3  -9   67.09    3.90
   2   3  -9   70.29    3.70
   2   3  -9   65.09    3.10
  -2  -3   9   68.99    3.80
   1   3  -9  169.98    7.90
   1   3  -9  182.58    8.00
   1   3  -9  174.28    7.80
   1   3  -9  172.18    7.20
  -1  -3   9  169.48    7.80
   0   3  -9  220.28   10.00
   0   3  -9  242.18   10.10
   0   3  -9  236.58   10.20
   0  -3   9  222.78    9.90
  -1   3  -9   43.80    2.30
  -1   3  -9   38.10    2.40
  -1   3  -9   43.40    2.20
   1  -3   9   41.60    2.10
  -2   3  -9   77.19    4.00
  -2   3  -9   79.69    3.60
  -2   3  -9   77.49    3.90
   2  -3   9   77.09    4.10
  -3   3  -9  303.57   12.70
  -3   3  -9  292.97   13.00
   3  -3   9  313.77   13.40
  -4   3  -9  296.77   12.50
   4  -3   9  292.37   13.20
  -5   3  -9  111.29    5.20
   5  -3   9  110.19    5.90
  -6   3  -9    1.30    1.00
  -6   3  -9    1.80    0.40
  -6   3  -9    1.50    0.80
   6  -3   9    1.40    1.00
  -7   3  -9   36.60    3.20
  -7   3  -9   40.30    2.00
  -7   3  -9   32.80    2.50
  -8   3  -9   45.80    3.10
  -8   3  -9   50.49    3.90
  -8   3  -9   48.50    2.50
  -9   3  -9   43.60    2.40
  -9   3  -9   44.50    3.00
  -9   3  -9   41.90    3.70
 -10   3  -9    2.30    1.20
 -10   3  -9    4.20    1.10
 -11   3  -9    2.00    0.80
 -11   3  -9    2.00    0.50
 -11   3  -9    1.80    1.00
 -12   3  -9   45.40    2.00
  10   2  -9    7.80    0.90
 -10  -2   9   10.30    1.20
   9   2  -9   48.90    2.80
  -9  -2   9   50.49    3.00
   8   2  -9  104.79    4.90
  -8  -2   9   95.99    5.10
   7   2  -9  417.86   17.70
  -7  -2   9  418.76   18.10
   6   2  -9  161.68    7.20
   6   2  -9  165.28    7.20
  -6  -2   9  149.59    7.50
   5   2  -9   22.90    1.80
   5   2  -9   21.40    1.60
   5   2  -9   22.00    1.70
  -5  -2   9   28.50    2.00
   4   2  -9  312.67   12.50
   4   2  -9  281.47   13.30
   4   2  -9  292.47   13.70
   4   2  -9  305.57   13.10
   4   2  -9  288.17   12.70
  -4  -2   9  296.67   13.40
  -4  -2   9  299.07   13.00
   3   2  -9   89.79    4.40
   3   2  -9   93.79    4.60
   3   2  -9   84.19    3.90
   3   2  -9   83.59    4.70
   3   2  -9   83.39    4.50
  -3  -2   9   86.39    4.60
   2   2  -9  324.27   14.70
   2   2  -9  324.47   14.90
   2   2  -9  367.66   14.20
   2   2  -9  365.76   14.90
   2   2  -9  341.07   14.90
  -2  -2   9  336.07   14.70
   1   2  -9  296.47   12.50
   1   2  -9  298.87   12.50
   1   2  -9  273.67   11.90
   1   2  -9  286.67   12.50
   1   2  -9  292.67   12.60
  -1  -2   9  291.17   12.30
   0   2  -9  297.77   12.40
   0   2  -9  272.57   12.20
   0   2  -9  275.07   12.30
   0   2  -9  299.97   12.20
   0  -2   9  284.77   12.00
  -1   2  -9   51.99    2.30
  -1   2  -9   45.50    2.60
  -1   2  -9   48.10    2.60
  -1   2  -9   47.10    2.70
  -2   2  -9  173.08    7.60
  -2   2  -9  177.08    7.80
   2  -2   9  165.48    7.70
   2  -2   9  182.08    7.90
  -3   2  -9  433.16   17.50
   3  -2   9  412.26   18.20
  -4   2  -9   27.30    1.60
   4  -2   9   30.80    2.40
  -5   2  -9  110.89    5.40
   5  -2   9  126.19    6.30
  -6   2  -9   18.50    2.10
  -6   2  -9   16.60    1.60
  -6   2  -9   17.10    1.10
   6  -2   9   17.90    2.20
  -7   2  -9  271.37   12.60
  -7   2  -9  294.97   13.50
  -7   2  -9  297.87   12.10
  -8   2  -9    5.80    1.20
  -8   2  -9    4.70    1.50
  -8   2  -9    4.10    0.70
  -9   2  -9   24.80    2.90
  -9   2  -9   24.80    1.60
  -9   2  -9   26.40    2.20
 -10   2  -9    3.00    1.20
 -11   2  -9    0.70    0.80
 -11   2  -9    1.40    0.40
  11   1  -9   22.30    1.40
  10   1  -9   17.80    1.50
 -10  -1   9   17.20    1.60
   9   1  -9  222.68    9.70
  -9  -1   9  216.58    9.90
   8   1  -9   11.00    1.30
  -8  -1   9   12.50    1.60
   7   1  -9    8.50    1.20
  -7  -1   9    6.90    1.20
   6   1  -9  144.69    6.50
   6   1  -9  147.09    6.70
   6   1  -9  151.28    6.60
  -6  -1   9  138.99    6.80
   5   1  -9   96.79    4.60
   5   1  -9  108.19    4.50
   5   1  -9   87.79    5.50
  -5  -1   9   95.89    4.80
  -5  -1   9   88.59    5.20
  -5  -1   9  101.99    4.90
   4   1  -9  354.96   13.70
   4   1  -9  328.67   14.40
   4   1  -9  327.87   14.10
   4   1  -9  332.57   14.70
  -4  -1   9  295.17   14.00
  -4  -1   9  312.47   14.40
   3   1  -9  383.56   17.80
   3   1  -9  405.76   18.30
   3   1  -9  437.56   18.20
   3   1  -9  435.26   17.40
  -3  -1   9  411.66   18.10
  -3  -1   9  452.85   17.90
   2   1  -9    6.70    1.10
   2   1  -9    6.50    1.10
   2   1  -9    6.60    1.00
   2   1  -9    8.00    1.00
   2   1  -9   10.30    0.70
  -2  -1   9    8.30    1.00
   1   1  -9   60.39    3.10
   1   1  -9   58.79    3.10
   1   1  -9   63.39    3.20
   1   1  -9   57.29    3.20
  -1  -1   9   58.59    2.90
   0   1  -9  281.27   11.40
   0   1  -9  255.67   11.20
   0   1  -9  262.67   11.00
   0   1  -9  243.18   11.30
  -1   1  -9  171.58    7.70
  -1   1  -9  172.18    7.80
  -1   1  -9  172.18    7.70
  -1   1  -9  174.88    7.60
  -2   1  -9  210.88    9.10
  -2   1  -9  212.88    9.40
   2  -1   9  199.48    9.10
  -3   1  -9    2.70    0.90
  -3   1  -9    2.70    0.40
   3  -1   9    1.80    0.60
  -4   1  -9   74.29    3.40
  -4   1  -9   71.19    4.10
   4  -1   9   60.99    3.60
  -5   1  -9    3.50    1.10
  -5   1  -9    3.40    0.80
  -6   1  -9   14.30    2.10
  -6   1  -9   15.30    1.00
   6  -1   9   14.70    2.10
  -7   1  -9    2.80    0.60
  -7   1  -9    1.70    1.20
  -8   1  -9    9.70    1.90
  -8   1  -9   10.30    1.10
  -9   1  -9   15.20    1.30
  -9   1  -9   15.50    2.30
 -10   1  -9  107.29    5.80
 -10   1  -9  101.69    4.60
 -11   1  -9   62.49    2.80
 -11   1  -9   61.99    3.60
  11   0  -9    1.30    0.60
 -11   0   9    1.50    0.60
  10   0  -9   15.50    1.50
 -10   0   9   18.30    1.70
   9   0  -9  332.47   14.00
  -9   0   9  318.17   14.20
   8   0  -9  108.99    5.10
  -8   0   9  101.69    5.30
   7   0  -9  150.08    6.70
  -7   0   9  139.29    6.80
   6   0  -9   73.79    4.10
   6   0  -9   74.99    3.70
   6   0  -9   80.39    3.90
  -6   0   9   82.49    4.10
   5   0  -9  312.37   14.80
   5   0  -9  309.37   14.10
   5   0  -9  351.06   13.70
  -5   0   9  349.27   14.10
  -5   0   9  301.67   14.50
   4   0  -9   70.19    4.20
   4   0  -9   70.39    3.70
   4   0  -9   71.29    4.00
   4   0  -9   72.29    3.30
  -4   0   9   76.09    3.70
  -4   0   9   64.59    3.90
   3   0  -9  312.77   13.10
   3   0  -9  282.57   12.20
   3   0  -9  296.87   12.70
   3   0  -9  284.77   12.90
  -3   0   9  287.87   12.60
  -3   0   9  289.27   12.70
   2   0  -9    8.50    1.10
   2   0  -9    7.10    1.00
   2   0  -9    6.40    0.60
   2   0  -9    7.60    1.10
  -2   0   9    8.30    1.00
  -2   0   9    7.30    0.90
   1   0  -9   16.00    1.30
   1   0  -9   17.30    1.40
   1   0  -9   17.30    1.40
  -1   0   9   16.90    1.30
  -1   0   9   17.20    1.10
   0   0  -9  104.59    4.90
   0   0  -9  101.89    4.70
   0   0  -9   98.59    4.50
   0   0   9  100.99    4.70
  -1   0  -9   28.10    2.00
  -1   0  -9   24.20    1.30
  -1   0  -9   27.10    1.30
  -1   0  -9   29.60    1.90
   1   0   9   28.40    1.70
  -2   0  -9   28.10    1.50
  -2   0  -9   32.90    2.20
   2   0   9   28.80    1.70
   2   0   9   31.40    2.00
  -3   0  -9   54.59    3.30
  -3   0  -9   52.39    2.60
   3   0   9   49.80    2.90
  -4   0  -9  293.97   13.80
  -4   0  -9  306.77   13.10
   4   0   9  313.37   13.40
  -5   0  -9  410.26   17.00
  -5   0  -9  434.16   17.80
  -5   0  -9  403.56   18.40
   5   0   9  402.76   17.90
  -6   0  -9   26.90    2.70
  -6   0  -9   24.70    1.90
  -6   0  -9   27.70    1.50
  -6   0  -9   27.20    2.70
  -7   0  -9  252.97   12.40
  -7   0  -9  268.97   11.10
  -7   0  -9  261.17   11.40
  -8   0  -9  175.48    7.80
  -8   0  -9  179.48    8.10
  -8   0  -9  184.98    9.20
  -9   0  -9   34.70    2.00
  -9   0  -9   38.10    3.30
   9   0   9   32.30    2.20
 -10   0  -9   18.00    2.20
 -10   0  -9   18.50    1.20
  10   0   9   18.10    1.50
 -11   0  -9    2.10    0.80
 -11   0  -9    2.20    0.40
  11  -1  -9  116.69    5.10
 -11   1   9  109.39    5.20
  10  -1  -9   20.30    1.80
 -10   1   9   24.40    1.90
   9  -1  -9    0.90    0.80
  -9   1   9    1.20    0.90
   8  -1  -9   59.09    3.30
  -8   1   9   60.49    3.50
   7  -1  -9  264.97   11.40
   7  -1  -9  262.67   11.10
  -7   1   9  237.48   11.20
   6  -1  -9  119.39    5.60
   6  -1  -9  117.79    5.40
  -6   1   9  122.79    5.80
  -6   1   9  118.09    5.70
   5  -1  -9   62.79    3.50
   5  -1  -9   66.69    4.10
   5  -1  -9   68.69    3.10
   5  -1  -9   60.69    3.80
  -5   1   9   59.99    3.80
  -5   1   9   60.89    3.40
   4  -1  -9  183.08    9.10
   4  -1  -9  187.08    8.70
   4  -1  -9  197.98    8.30
   4  -1  -9  209.08    9.10
  -4   1   9  195.78    8.70
  -4   1   9  193.38    9.00
   3  -1  -9  282.07   12.20
   3  -1  -9  283.47   12.90
   3  -1  -9  303.97   12.80
   3  -1  -9  296.87   13.00
  -3   1   9  312.17   12.80
  -3   1   9  292.57   12.80
   2  -1  -9  930.11   40.20
   2  -1  -9  989.90   40.80
   2  -1  -9  997.90   40.70
   2  -1  -9 1029.40   40.90
  -2   1   9  993.80   40.70
  -2   1   9  976.50   40.60
   1  -1  -9  725.13   29.40
   1  -1  -9  696.43   29.20
   1  -1  -9  733.83   29.20
  -1   1   9  673.33   29.00
  -1   1   9  694.23   29.20
   0  -1  -9   31.30    1.70
   0  -1  -9   33.00    2.10
   0  -1  -9   34.00    2.10
   0   1   9   29.70    1.80
   0   1   9   31.50    1.60
  -1  -1  -9  157.78    7.60
  -1  -1  -9  163.68    7.50
  -1  -1  -9  158.78    7.00
   1   1   9  169.68    7.10
  -2  -1  -9    6.50    0.70
  -2  -1  -9    5.80    1.10
   2   1   9    7.30    1.00
  -3  -1  -9  196.68    9.60
  -3  -1  -9  214.18    9.00
   3   1   9  200.98    9.30
  -4  -1  -9   14.60    1.90
  -4  -1  -9   13.40    1.30
  -4  -1  -9   12.90    0.80
   4   1   9   14.50    1.60
  -5  -1  -9  293.77   13.20
  -5  -1  -9  270.27   11.70
  -6  -1  -9  276.37   12.00
  -6  -1  -9  280.07   11.60
  -6  -1  -9  266.37   12.80
  -7  -1  -9   18.70    1.70
  -7  -1  -9   20.30    2.60
  -7  -1  -9   17.80    1.40
  -8  -1  -9   19.80    1.40
  -8  -1  -9   17.10    2.60
  -8  -1  -9   17.90    1.70
  -9  -1  -9   76.49    4.70
  -9  -1  -9   72.39    3.40
   9   1   9   71.79    3.70
 -10  -1  -9   19.90    2.10
 -10  -1  -9   20.60    1.30
  10   1   9   22.80    1.50
 -11  -1  -9    1.30    0.30
  11  -2  -9   39.30    2.20
 -11   2   9   37.10    2.30
  10  -2  -9   26.10    2.00
 -10   2   9   25.90    2.00
   9  -2  -9  274.37   12.10
  -9   2   9  280.67   12.20
   8  -2  -9    8.90    1.40
   8  -2  -9    9.90    1.30
  -8   2   9   10.00    1.40
   7  -2  -9   69.79    3.50
   7  -2  -9   66.39    3.80
  -7   2   9   63.19    3.70
   6  -2  -9  173.48    7.40
   6  -2  -9  176.98    7.70
  -6   2   9  158.28    7.80
   5  -2  -9  109.29    4.60
   5  -2  -9   99.19    5.70
   5  -2  -9  101.59    5.10
   5  -2  -9   95.39    5.40
  -5   2   9  110.29    5.10
  -5   2   9   94.39    5.40
   4  -2  -9  197.58    9.20
   4  -2  -9  188.28    8.20
   4  -2  -9  195.68    8.70
   4  -2  -9  207.38    9.00
  -4   2   9  188.88    8.60
  -4   2   9  182.18    8.90
   3  -2  -9   60.19    2.80
   3  -2  -9   58.99    3.20
   3  -2  -9   61.19    3.40
   3  -2  -9   59.29    3.50
  -3   2   9   62.99    3.20
  -3   2   9   59.59    3.30
   2  -2  -9  368.16   15.60
   2  -2  -9  396.06   16.40
   2  -2  -9  377.36   16.30
  -2   2   9  363.76   16.10
  -2   2   9  398.36   16.10
   1  -2  -9  630.14   28.10
   1  -2  -9  725.63   28.00
   1  -2  -9  658.13   27.40
   1  -2  -9  660.43   28.20
  -1   2   9  662.93   27.90
  -1   2   9  701.03   27.90
   0  -2  -9  457.55   18.70
   0  -2  -9  410.36   19.00
   0  -2  -9  447.46   19.00
   0   2   9  445.56   18.60
   0   2   9  458.35   18.60
  -1  -2  -9   52.59    2.70
  -1  -2  -9   50.39    3.00
  -1  -2  -9   50.39    3.10
   1   2   9   53.39    3.00
   1   2   9   48.40    2.60
   1   2   9   48.30    2.50
  -2  -2  -9  161.48    7.10
  -2  -2  -9  161.38    7.70
   2   2   9  145.79    7.30
  -3  -2  -9   42.10    1.90
  -3  -2  -9   43.00    3.10
  -3  -2  -9   40.30    2.50
   3   2   9   43.40    2.80
  -4  -2  -9  466.25   21.10
  -4  -2  -9  479.25   20.60
  -4  -2  -9  497.55   19.90
  -5  -2  -9   83.79    5.30
  -5  -2  -9   91.49    5.20
  -5  -2  -9   91.29    4.40
  -5  -2  -9   85.89    4.00
  -6  -2  -9    5.70    1.50
  -6  -2  -9    4.70    1.00
  -6  -2  -9    4.00    0.70
  -7  -2  -9   53.59    3.20
  -7  -2  -9   55.29    4.10
  -7  -2  -9   58.59    2.90
  -8  -2  -9  205.08   10.10
  -8  -2  -9  206.58    9.20
  -8  -2  -9  203.08    8.90
  -9  -2  -9   52.39    3.60
  -9  -2  -9   52.79    2.50
   9   2   9   48.20    2.80
 -10  -2  -9    2.80    0.50
 -10  -2  -9    2.20    0.90
  10   2   9    3.10    0.60
  11  -3  -9    6.20    0.90
  10  -3  -9    7.00    1.10
 -10   3   9    9.60    1.20
   9  -3  -9   88.89    4.50
   8  -3  -9    8.00    1.30
   8  -3  -9    7.30    1.10
   7  -3  -9   44.20    2.80
   7  -3  -9   38.90    2.50
   6  -3  -9  106.99    5.00
   6  -3  -9   98.69    4.70
  -6   3   9   99.29    5.10
   5  -3  -9   26.60    1.60
   5  -3  -9   24.80    2.40
   5  -3  -9   24.50    2.20
  -5   3   9   23.30    1.90
  -5   3   9   23.50    2.10
   4  -3  -9   87.69    4.90
   4  -3  -9   75.29    4.50
   4  -3  -9   85.49    4.00
  -4   3   9   94.19    4.50
  -4   3   9   93.29    4.70
   3  -3  -9  247.98   10.70
   3  -3  -9  256.67   11.40
   3  -3  -9  248.98   11.50
  -3   3   9  251.57   11.40
  -3   3   9  277.67   11.20
   2  -3  -9  275.97   12.10
   2  -3  -9  269.37   12.10
   2  -3  -9  268.37   11.40
   2  -3  -9  291.37   12.10
  -2   3   9  279.07   11.80
  -2   3   9  259.47   11.90
   1  -3  -9   22.70    1.20
   1  -3  -9   25.60    1.90
   1  -3  -9   22.40    1.90
   1  -3  -9   26.00    1.80
  -1   3   9   24.70    1.60
  -1   3   9   22.40    1.70
   0  -3  -9   58.49    2.60
   0  -3  -9   60.69    3.60
   0  -3  -9   60.89    3.40
   0  -3  -9   59.79    3.20
   0   3   9   57.69    3.10
   0   3   9   58.09    3.00
  -1  -3  -9  348.87   14.40
  -1  -3  -9  355.36   15.00
  -1  -3  -9  330.77   15.40
   1   3   9  339.17   15.00
   1   3   9  370.16   15.20
  -2  -3  -9   62.99    3.80
  -2  -3  -9   60.09    2.80
  -2  -3  -9   63.39    3.40
   2   3   9   61.39    3.40
   2   3   9   58.29    3.50
  -3  -3  -9   51.09    3.50
  -3  -3  -9   45.40    3.00
  -3  -3  -9   55.39    2.40
   3   3   9   52.09    3.30
   3   3   9   48.10    3.10
  -4  -3  -9   39.10    3.20
  -4  -3  -9   42.60    2.10
  -4  -3  -9   38.60    2.50
  -5  -3  -9  236.78   11.40
  -5  -3  -9  249.18   10.20
  -5  -3  -9  228.98   10.50
  -6  -3  -9   44.90    2.80
  -6  -3  -9   47.10    3.60
  -6  -3  -9   42.90    2.40
  -7  -3  -9  168.78    7.60
  -7  -3  -9  163.38    7.30
  -7  -3  -9  161.88    8.50
  -8  -3  -9   40.30    3.30
  -8  -3  -9   38.60    2.50
  -8  -3  -9   36.30    2.00
  -9  -3  -9  227.98   10.80
  -9  -3  -9  236.78    9.90
   9   3   9  246.28   10.20
 -10  -3  -9    6.30    1.00
 -10  -3  -9    7.80    0.60
  10   3   9    7.40    0.80
  11  -4  -9    1.70    0.70
   9  -4  -9   96.09    4.60
  -9   4   9   88.39    4.50
   8  -4  -9   90.79    4.40
  -8   4   9   82.19    4.30
   7  -4  -9   20.80    2.10
   7  -4  -9   22.20    1.70
   6  -4  -9   68.19    3.70
   6  -4  -9   79.09    3.70
   6  -4  -9   70.69    4.00
  -6   4   9   77.59    4.10
   5  -4  -9    1.70    1.00
   5  -4  -9    1.10    0.50
  -5   4   9    0.50    0.80
  -5   4   9    0.40    0.70
   4  -4  -9  189.68    9.50
   4  -4  -9  220.08    9.40
   4  -4  -9  198.08    8.50
  -4   4   9  209.08    9.00
  -4   4   9  182.08    9.30
   3  -4  -9  188.08    8.20
   3  -4  -9  168.08    7.30
   3  -4  -9  157.88    8.00
   3  -4  -9  172.48    8.20
  -3   4   9  166.88    8.10
  -3   4   9  172.48    7.80
   2  -4  -9   16.70    1.80
   2  -4  -9   18.90    1.80
   2  -4  -9   18.00    1.70
   2  -4  -9   18.30    1.10
  -2   4   9   18.40    1.50
  -2   4   9   16.70    1.60
   1  -4  -9   91.19    4.10
   1  -4  -9   87.69    4.90
   1  -4  -9   93.59    4.80
   1  -4  -9  101.39    4.90
  -1   4   9   92.59    4.50
  -1   4   9   90.09    4.70
   0  -4  -9   96.49    4.20
   0  -4  -9   97.39    4.90
   0  -4  -9   97.69    5.20
   0   4   9   89.69    4.80
   0   4   9   92.59    4.80
   0   4   9   92.29    4.40
  -1  -4  -9  266.07   11.40
  -1  -4  -9  297.77   12.60
  -1  -4  -9  277.87   12.20
   1   4   9  253.87   12.10
   1   4   9  270.97   12.20
  -2  -4  -9  166.28    8.20
  -2  -4  -9  178.28    7.40
  -2  -4  -9  169.18    8.50
   2   4   9  178.18    8.50
   2   4   9  172.98    8.30
  -3  -4  -9   86.79    5.10
  -3  -4  -9   84.29    3.90
  -4  -4  -9    7.30    1.60
  -4  -4  -9    5.90    0.80
  -4  -4  -9    4.70    1.00
  -4  -4  -9    4.50    1.40
  -5  -4  -9    0.80    0.80
  -5  -4  -9    1.40    0.60
  -5  -4  -9    2.90    1.30
  -6  -4  -9  175.68    8.90
  -6  -4  -9  169.98    8.00
  -6  -4  -9  177.08    7.70
  -7  -4  -9   88.29    4.50
  -7  -4  -9   85.29    4.00
  -7  -4  -9   90.39    5.30
  -7  -4  -9   85.29    4.10
  -8  -4  -9    2.60    0.60
  -8  -4  -9    2.70    1.20
  -8  -4  -9    3.70    0.90
  -9  -4  -9   13.80    1.60
  -9  -4  -9   12.30    0.90
   9   4   9   12.00    1.20
  11  -5  -9   13.90    1.30
  10  -5  -9    4.30    0.90
 -10   5   9    3.90    0.90
   9  -5  -9   97.89    4.60
  -9   5   9   87.29    4.60
   8  -5  -9   58.59    3.20
  -8   5   9   57.89    3.30
   7  -5  -9    1.10    0.70
  -7   5   9    1.80    0.80
   6  -5  -9    2.30    0.80
   6  -5  -9    3.20    1.10
  -6   5   9    2.10    0.90
   5  -5  -9   33.10    1.90
  -5   5   9   29.70    2.30
   4  -5  -9  140.39    6.70
   4  -5  -9  125.99    6.90
   4  -5  -9  137.69    5.90
  -4   5   9  126.09    6.70
  -4   5   9  138.39    6.40
   3  -5  -9  194.08    8.80
   3  -5  -9  191.68    9.00
   3  -5  -9  176.88    8.90
   3  -5  -9  197.88    8.00
  -3   5   9  171.48    8.80
  -3   5   9  185.58    8.50
   2  -5  -9  138.89    7.00
   2  -5  -9  142.69    6.00
   2  -5  -9  124.49    6.60
   2  -5  -9  137.19    6.90
  -2   5   9  136.29    6.80
  -2   5   9  140.49    6.40
   1  -5  -9    4.90    1.10
   1  -5  -9    4.20    1.00
   1  -5  -9    4.90    0.60
   1  -5  -9    6.70    1.30
  -1   5   9    5.00    1.00
  -1   5   9    5.00    1.20
  -1   5   9    5.50    0.90
   0  -5  -9   12.70    1.00
   0  -5  -9   12.20    1.80
   0  -5  -9   12.50    1.60
   0   5   9   13.50    1.60
   0   5   9   13.10    1.50
  -1  -5  -9  184.88    9.10
  -1  -5  -9  186.48    8.40
  -1  -5  -9  182.88    9.30
  -1  -5  -9  192.38    8.10
   1   5   9  203.38    9.20
  -2  -5  -9  344.57   15.20
  -2  -5  -9  377.26   14.90
  -2  -5  -9  351.36   16.10
  -2  -5  -9  347.87   16.20
  -3  -5  -9  116.59    5.20
  -3  -5  -9  108.39    6.20
  -3  -5  -9  103.39    4.90
  -3  -5  -9  105.59    5.90
   3   5   9  105.69    5.00
  -4  -5  -9  165.78    7.80
  -4  -5  -9  175.08    8.80
  -4  -5  -9  176.88    7.60
  -5  -5  -9    3.50    1.30
  -5  -5  -9    5.00    1.10
  -5  -5  -9    5.10    0.80
  -6  -5  -9   65.39    3.60
  -6  -5  -9   57.69    3.10
  -6  -5  -9   65.09    4.40
  -6  -5  -9   64.59    3.00
  -7  -5  -9   62.19    4.10
  -7  -5  -9   64.09    3.00
  -7  -5  -9   64.19    3.40
  -8  -5  -9   78.39    3.40
  -8  -5  -9   72.89    4.30
   8   5   9   76.19    3.60
  10  -6  -9    3.30    0.80
 -10   6   9    4.00    0.80
   9  -6  -9   49.60    2.70
  -9   6   9   42.30    2.70
   8  -6  -9    6.00    1.10
  -8   6   9    6.20    1.10
   7  -6  -9  336.07   14.70
  -7   6   9  351.36   14.80
   6  -6  -9   83.39    4.20
  -6   6   9   87.59    4.40
   5  -6  -9   27.40    1.80
   5  -6  -9   27.60    1.90
  -5   6   9   28.80    2.00
  -5   6   9   26.40    2.20
   4  -6  -9  225.88    9.10
   4  -6  -9  199.28   10.10
   4  -6  -9  204.08    9.30
  -4   6   9  211.68    9.60
   3  -6  -9   90.29    4.20
   3  -6  -9   85.49    5.20
   3  -6  -9   98.29    5.30
   3  -6  -9   93.19    4.40
  -3   6   9   93.79    4.60
  -3   6   9   81.39    5.00
   2  -6  -9  230.68   11.00
   2  -6  -9  219.48   10.80
   2  -6  -9  232.18   10.00
   2  -6  -9  237.58    9.70
  -2   6   9  211.58   10.60
  -2   6   9  235.18   10.20
   1  -6  -9   11.40    1.70
   1  -6  -9   10.30    1.00
   1  -6  -9   11.90    1.30
   1  -6  -9   10.80    1.70
  -1   6   9    9.50    1.20
  -1   6   9   10.30    1.60
   0  -6  -9  139.59    6.40
   0  -6  -9  139.69    7.30
   0  -6  -9  132.09    6.00
  -1  -6  -9   94.59    5.50
  -1  -6  -9   88.89    4.50
  -1  -6  -9   92.39    4.30
  -1  -6  -9   92.09    4.50
  -2  -6  -9   25.40    1.60
  -2  -6  -9   22.10    1.90
  -2  -6  -9   21.70    1.80
  -3  -6  -9   14.20    1.30
  -3  -6  -9   14.70    1.50
  -3  -6  -9   15.90    2.20
   3   6   9   11.50    1.30
  -4  -6  -9   60.79    3.30
  -4  -6  -9   58.99    4.20
  -4  -6  -9   59.39    3.00
  -4  -6  -9   53.49    2.80
  -5  -6  -9  131.39    6.10
  -5  -6  -9  133.89    5.70
  -5  -6  -9  128.29    5.80
  -5  -6  -9  121.89    6.90
  -6  -6  -9    4.60    1.40
  -6  -6  -9    2.40    0.90
  -6  -6  -9    3.10    0.60
  -7  -6  -9   21.90    1.30
  -7  -6  -9   23.20    2.30
  -7  -6  -9   25.80    1.80
  -8  -6  -9   14.50    0.80
  -8  -6  -9   17.40    1.60
   8   6   9   15.80    1.10
 -11   7   9   43.10    2.30
 -10   7   9  175.78    7.80
  -9   7   9    5.30    1.10
   8  -7  -9   26.00    1.50
  -8   7   9   28.70    2.20
  -7   7   9   51.89    3.10
  -6   7   9  358.96   15.40
  -5   7   9   34.90    2.30
   4  -7  -9    8.10    1.00
   4  -7  -9    9.80    1.30
   4  -7  -9   10.20    1.80
  -4   7   9    9.70    1.20
  -4   7   9    5.90    1.20
   3  -7  -9    9.50    1.10
   3  -7  -9   10.30    1.30
   3  -7  -9   12.90    2.00
  -3   7   9    9.90    1.40
   2  -7  -9    3.80    0.70
   2  -7  -9    3.10    1.00
   2  -7  -9    4.20    1.40
  -2   7   9    3.00    0.80
   1  -7  -9  648.34   26.10
   1  -7  -9  650.23   25.80
   1  -7  -9  578.34   27.00
   1  -7  -9  614.64   25.90
   0  -7  -9   70.79    3.80
   0  -7  -9   72.89    3.70
   0  -7  -9   73.19    3.50
  -1  -7  -9  115.89    5.60
  -1  -7  -9  116.09    5.70
  -1  -7  -9  121.79    5.40
  -2  -7  -9    0.40    0.60
  -2  -7  -9    2.00    0.80
  -2  -7  -9    0.90    0.60
  -2  -7  -9    2.30    1.20
   2   7   9    2.20    0.80
  -3  -7  -9   52.69    2.70
  -3  -7  -9   52.99    2.90
  -3  -7  -9   59.79    4.10
  -3  -7  -9   54.69    3.10
   3   7   9   54.09    3.00
  -4  -7  -9  366.26   16.20
  -4  -7  -9  361.16   15.30
  -4  -7  -9  339.47   15.10
  -4  -7  -9  362.56   14.90
   4   7   9  355.96   15.10
  -5  -7  -9  109.59    6.00
  -5  -7  -9  109.59    5.20
  -5  -7  -9  106.39    4.80
  -6  -7  -9   72.29    4.40
  -6  -7  -9   76.39    3.70
  -6  -7  -9   76.39    3.40
  -7  -7  -9    5.00    1.00
  -7  -7  -9    5.50    0.50
   7   7   9    5.00    0.60
 -11   8   9   56.89    2.80
 -10   8   9   27.30    2.00
  -9   8   9    4.70    1.00
  -8   8   9   14.00    1.60
   7  -8  -9    9.60    0.90
  -7   8   9   11.30    1.50
   6  -8  -9  443.66   18.40
  -6   8   9  446.76   19.00
   5  -8  -9    1.90    0.60
  -5   8   9    2.40    0.90
   4  -8  -9   88.29    4.00
   4  -8  -9   87.49    4.50
  -4   8   9   88.29    4.40
   3  -8  -9    4.70    1.10
   3  -8  -9    2.40    0.70
   2  -8  -9   27.40    1.80
   2  -8  -9   26.10    2.10
   2  -8  -9   27.90    1.70
   1  -8  -9   76.79    3.60
   1  -8  -9   76.09    4.10
   1  -8  -9   74.79    3.70
   0  -8  -9   62.39    3.10
   0  -8  -9   65.29    3.30
   0   8   9   66.89    3.50
  -1  -8  -9  163.88    8.10
  -1  -8  -9  167.58    7.30
  -1  -8  -9  166.98    7.50
   1   8   9  180.48    7.70
  -2  -8  -9   74.49    4.70
  -2  -8  -9   74.39    3.60
  -2  -8  -9   68.49    3.90
   2   8   9   87.79    4.00
  -3  -8  -9   48.60    2.50
  -3  -8  -9   50.39    2.90
  -3  -8  -9   51.49    3.70
   3   8   9   51.19    2.80
  -4  -8  -9   31.80    2.10
  -4  -8  -9   28.70    2.70
  -4  -8  -9   30.30    1.70
   4   8   9   30.10    1.90
  -5  -8  -9   84.39    3.60
  -5  -8  -9   81.29    4.60
  -5  -8  -9   80.79    3.90
  -6  -8  -9   11.40    0.70
  -6  -8  -9   11.80    1.50
   6   8   9   12.10    1.00
 -11   9   9    2.70    0.60
 -10   9   9   27.50    1.90
  -9   9   9  176.88    8.00
  -8   9   9  211.18    9.50
   7  -9  -9  215.08    9.10
  -7   9   9  222.08    9.80
   6  -9  -9    7.10    0.80
  -6   9   9    7.00    1.20
   5  -9  -9   24.10    1.60
  -5   9   9   24.70    2.00
   4  -9  -9    3.70    1.00
   4  -9  -9    3.00    0.70
  -4   9   9    2.70    0.90
   3  -9  -9    4.40    0.80
   3  -9  -9    5.60    1.20
   2  -9  -9  170.28    7.20
  -2   9   9  163.38    7.50
   1  -9  -9   42.70    2.30
  -1   9   9   43.20    2.60
   0  -9  -9    0.70    0.60
   0   9   9    0.60    0.80
  -1  -9  -9   63.59    3.20
   1   9   9   70.79    3.60
  -2  -9  -9    1.70    0.60
  -2  -9  -9    1.70    1.00
   2   9   9    1.50    0.80
  -3  -9  -9  228.98   11.00
  -3  -9  -9  245.58   10.00
   3   9   9  237.78   10.30
  -4  -9  -9   38.10    2.70
  -4  -9  -9   39.30    1.90
   4   9   9   36.30    2.10
  -5  -9  -9   53.49    3.10
 -10  10   9   82.39    3.90
  -9  10   9   49.99    2.80
  -8  10   9  373.66   16.00
  -7  10   9   56.89    3.30
  -6  10   9   10.80    1.30
   5 -10  -9    0.40    0.50
  -5  10   9    0.60    0.80
   4 -10  -9  429.36   17.30
  -4  10   9  408.36   17.70
   3 -10  -9  169.68    7.00
  -3  10   9  154.38    7.30
   2 -10  -9    1.70    0.60
  -2  10   9    1.90    0.80
   1 -10  -9  142.09    6.10
  -1  10   9  136.59    6.40
   0 -10  -9   17.70    1.30
   0  10   9   18.30    1.70
  -1 -10  -9    2.70    0.60
   1  10   9    1.30    0.80
  -2 -10  -9  162.98    7.00
   2  10   9  168.88    7.30
  -3 -10  -9    3.60    0.40
  -3 -10  -9    3.70    1.00
   3  10   9    3.70    0.70
  -9  11   9   28.10    1.80
  -8  11   9   67.19    3.50
  -7  11   9   16.00    1.60
  -6  11   9   15.60    1.60
  -4  11   9   38.90    2.30
   3 -11  -9   90.99    3.90
  -3  11   9   87.59    4.30
   2 -11  -9   11.30    1.00
  -2  11   9   14.40    1.40
   1 -11  -9    9.00    0.70
  -1  11   9    9.60    1.10
   0 -11  -9   82.09    3.50
   0  11   9   80.39    4.00
   1  11   9   27.20    1.80
   2  11   9   82.99    3.80
  -8  12   9    4.60    0.80
  -7  12   9   25.40    1.70
  -3  12   9    1.50    0.60
  -2  12   9   25.90    1.70
  -1  12   9    2.70    0.70
   0  12   9    4.50    0.70
  -1  12 -10   56.39    3.00
   1 -12  10   61.59    3.40
  -2  12 -10   40.70    2.40
   2 -12  10   41.70    2.80
  -3  12 -10   38.50    2.40
   3 -12  10   38.70    2.90
  -4  12 -10    3.80    0.90
  -4  12 -10    2.10    1.10
   4 -12  10    3.30    1.60
  -5  12 -10   37.20    2.50
  -5  12 -10   39.40    2.50
   5 -12  10   40.20    4.10
  -6  12 -10   42.20    2.40
  -6  12 -10   35.20    2.40
   6 -12  10   41.70    4.30
  -7  12 -10    8.90    1.00
  -7  12 -10    9.80    1.70
  -8  12 -10   30.10    2.60
   1  11 -10   32.50    1.90
   0  11 -10  193.58    8.70
   0  11 -10  189.78    8.40
   0  11 -10  193.08    8.60
  -1  11 -10  198.38    8.80
  -1  11 -10  196.48    9.00
   1 -11  10  195.08    9.20
  -2  11 -10   65.79    3.70
  -2  11 -10   65.69    4.00
   2 -11  10   71.49    4.40
  -3  11 -10    2.30    1.00
  -3  11 -10    1.30    1.10
   3 -11  10    1.70    2.00
  -4  11 -10  110.39    5.50
  -4  11 -10  108.79    5.60
  -4  11 -10  113.39    6.60
  -5  11 -10  296.07   13.60
  -5  11 -10  273.07   12.60
  -5  11 -10  290.17   12.60
  -6  11 -10   19.10    1.80
  -6  11 -10   17.70    2.50
  -6  11 -10   14.90    1.80
  -7  11 -10   35.40    2.50
  -7  11 -10   38.00    3.60
  -7  11 -10   34.10    2.30
  -8  11 -10    2.50    0.80
  -8  11 -10    2.10    1.40
  -8  11 -10    3.20    0.80
  -9  11 -10   87.19    4.90
   3  10 -10   12.90    1.20
   2  10 -10    9.80    1.10
  -2 -10  10    8.30    1.10
   1  10 -10  196.58    8.50
   1  10 -10  186.98    8.90
   0  10 -10  102.79    5.40
   0  10 -10   99.39    4.90
   0  10 -10   98.89    5.10
   0 -10  10  107.69    5.90
  -1  10 -10   41.20    2.50
  -1  10 -10   47.20    3.30
  -1  10 -10   46.50    3.00
   1 -10  10   45.20    3.60
  -2  10 -10   22.40    2.40
  -2  10 -10   24.40    2.20
  -2  10 -10   22.80    1.70
   2 -10  10   18.60    3.30
  -3  10 -10   29.80    3.80
  -3  10 -10   23.40    2.30
  -3  10 -10   27.10    1.90
  -3  10 -10   24.70    2.40
  -4  10 -10   70.99    4.10
  -4  10 -10   68.99    5.20
  -4  10 -10   63.99    3.40
  -4  10 -10   73.59    4.00
  -5  10 -10  132.39    6.60
  -5  10 -10  125.89    5.90
  -5  10 -10  147.69    7.80
  -5  10 -10  126.79    6.40
  -6  10 -10   43.30    3.90
  -6  10 -10   35.60    2.30
  -6  10 -10   32.80    2.60
  -6  10 -10   37.80    2.80
  -7  10 -10    0.90    0.80
  -7  10 -10    0.90    0.90
  -7  10 -10    1.80    1.50
  -8  10 -10   10.80    1.50
  -8  10 -10   10.50    2.00
  -9  10 -10  341.07   15.30
  -9  10 -10  369.06   15.90
 -10  10 -10  225.18   10.30
   4   9 -10    8.50    1.00
  -4  -9  10    7.00    1.00
   3   9 -10   42.00    2.50
  -3  -9  10   40.10    2.60
   2   9 -10   18.20    2.00
   2   9 -10   14.20    1.50
   1   9 -10   22.40    2.00
   1   9 -10   23.50    2.00
   1   9 -10   19.50    2.30
   0   9 -10   43.40    3.30
   0   9 -10   41.20    2.40
   0   9 -10   39.70    2.60
   0   9 -10   39.20    2.80
  -1   9 -10  105.89    5.50
  -1   9 -10  105.39    5.20
  -1   9 -10  106.79    4.80
   1  -9  10   73.29    6.50
  -2   9 -10  219.78    9.80
  -2   9 -10  209.88    9.90
  -2   9 -10  215.88    9.30
  -2   9 -10  205.08   10.70
  -3   9 -10   69.59    4.20
  -3   9 -10   64.29    3.90
  -3   9 -10   69.69    3.40
  -3   9 -10   68.09    5.00
  -4   9 -10   67.29    4.10
  -4   9 -10   73.39    5.10
  -4   9 -10   74.19    3.60
  -4   9 -10   75.09    4.30
  -5   9 -10  623.64   27.60
  -5   9 -10  624.04   26.10
  -5   9 -10  652.33   26.80
  -5   9 -10  619.54   26.60
  -6   9 -10    6.80    1.40
  -6   9 -10    6.90    0.90
  -6   9 -10    6.90    1.80
  -6   9 -10    5.90    1.20
  -7   9 -10   72.79    4.00
  -7   9 -10   67.59    3.50
  -7   9 -10   78.09    5.00
  -7   9 -10   74.69    4.30
  -8   9 -10  247.58   12.10
  -8   9 -10  259.37   11.50
  -9   9 -10  227.28   10.70
  -9   9 -10  251.27   11.40
 -10   9 -10   55.79    3.20
 -10   9 -10   59.19    2.70
 -10   9 -10   61.59    3.70
   5   8 -10    0.60    0.60
  -5  -8  10    1.10    0.70
   4   8 -10    9.30    1.20
  -4  -8  10    8.80    1.20
   3   8 -10  120.39    6.30
   3   8 -10  123.09    5.90
   2   8 -10  392.46   18.00
   2   8 -10  446.26   18.80
   2   8 -10  433.36   18.40
   2   8 -10  448.46   18.30
   1   8 -10    9.90    1.40
   1   8 -10    9.80    1.30
   1   8 -10    8.50    1.10
   1   8 -10    9.50    1.80
   0   8 -10   11.90    1.90
   0   8 -10   14.10    1.50
   0   8 -10   11.00    1.20
   0   8 -10   10.90    1.60
  -1   8 -10  231.28    9.70
  -1   8 -10  237.18   10.50
  -1   8 -10  224.08    9.90
  -1   8 -10  209.28   11.00
  -1   8 -10  220.08   10.20
  -2   8 -10  148.69    7.10
  -2   8 -10  132.59    7.70
  -2   8 -10  148.09    6.40
  -2   8 -10  140.19    6.90
  -3   8 -10   56.39    3.40
  -3   8 -10   49.30    4.00
  -3   8 -10   55.59    2.80
  -3   8 -10   62.99    3.60
  -4   8 -10   19.40    1.40
  -4   8 -10   21.70    2.00
  -4   8 -10   16.80    2.40
  -4   8 -10   21.90    2.20
  -5   8 -10   22.20    2.70
  -5   8 -10   26.80    1.60
  -5   8 -10   25.30    2.40
  -5   8 -10   26.60    2.20
  -6   8 -10  110.69    6.50
  -6   8 -10  105.89    5.60
  -6   8 -10  118.29    5.90
  -6   8 -10  112.79    5.10
  -7   8 -10  277.57   13.00
  -7   8 -10  259.47   12.10
  -7   8 -10  269.57   11.40
  -8   8 -10   19.80    1.50
  -8   8 -10   20.50    2.20
  -8   8 -10   22.20    2.90
  -9   8 -10   21.40    2.10
  -9   8 -10   23.70    2.70
 -10   8 -10  183.08    8.90
 -10   8 -10  185.78    8.40
 -11   8 -10  115.39    5.60
 -11   8 -10  109.79    4.80
   6   7 -10    3.90    0.80
  -6  -7  10    2.80    0.80
   5   7 -10    3.60    0.90
  -5  -7  10    2.60    0.90
   4   7 -10    4.70    1.10
  -4  -7  10    9.40    1.40
   3   7 -10  234.18   10.50
   3   7 -10  242.68   10.40
   3   7 -10  231.68   11.00
   2   7 -10   28.80    2.10
   2   7 -10   20.80    2.50
   2   7 -10   26.60    1.80
   2   7 -10   29.10    2.30
   1   7 -10    6.30    1.10
   1   7 -10    6.70    1.00
   1   7 -10    5.40    1.50
   1   7 -10    7.80    1.30
   0   7 -10    6.90    0.90
   0   7 -10    6.50    1.30
   0   7 -10    6.50    1.40
   0   7 -10    6.20    1.10
  -1   7 -10   56.09    3.10
  -1   7 -10   55.29    2.90
  -1   7 -10   62.99    3.60
  -1   7 -10   54.59    3.30
  -2   7 -10  191.88    7.90
  -2   7 -10  167.48    9.00
  -2   7 -10  191.48    8.60
  -2   7 -10  176.28    8.40
  -3   7 -10  113.79    4.90
  -3   7 -10  108.69    6.10
  -3   7 -10  115.19    5.60
  -3   7 -10  106.09    5.70
  -4   7 -10   18.90    2.40
  -4   7 -10   20.50    2.00
  -4   7 -10   19.40    1.30
  -4   7 -10   19.20    1.90
  -5   7 -10    3.20    1.00
  -5   7 -10    2.30    1.20
  -5   7 -10    2.80    0.60
  -5   7 -10    2.50    1.10
  -6   7 -10    7.20    1.70
  -6   7 -10    7.30    1.40
  -6   7 -10    9.00    0.90
  -7   7 -10    3.20    1.20
  -7   7 -10    3.90    1.50
  -7   7 -10    2.60    0.60
  -8   7 -10    6.20    1.70
  -8   7 -10    5.30    0.80
  -9   7 -10   93.49    5.70
  -9   7 -10   96.19    5.10
 -10   7 -10    3.90    1.30
 -10   7 -10    4.00    1.00
 -11   7 -10   94.79    4.90
 -11   7 -10   92.39    4.60
 -11   7 -10   92.39    4.00
   7   6 -10    0.50    0.50
  -7  -6  10    0.90    0.70
   6   6 -10   84.59    4.10
  -6  -6  10   83.09    4.40
   5   6 -10   41.10    2.70
  -5  -6  10   43.80    2.90
   4   6 -10   27.20    2.20
   4   6 -10   28.30    2.60
   3   6 -10   34.60    2.90
   3   6 -10   36.50    2.50
   3   6 -10   37.90    2.20
   3   6 -10   34.30    2.60
   2   6 -10    3.00    0.70
   2   6 -10    2.60    1.00
   2   6 -10   -0.90    1.10
   2   6 -10    2.50    0.90
   1   6 -10   17.90    1.60
   1   6 -10   20.30    2.20
   1   6 -10   18.00    1.50
   1   6 -10   20.40    2.20
   1   6 -10   19.70    1.90
   0   6 -10   92.69    5.10
   0   6 -10   95.89    4.60
   0   6 -10   97.39    5.00
   0   6 -10   95.39    4.80
  -1   6 -10  222.38    9.60
  -1   6 -10  231.78    9.90
  -1   6 -10  234.58   10.30
  -1   6 -10  224.88   10.10
  -1   6 -10  224.68   10.50
  -2   6 -10   13.50    1.00
  -2   6 -10   14.70    1.50
  -2   6 -10   13.60    1.70
  -2   6 -10   13.80    1.50
  -3   6 -10   30.90    2.30
  -3   6 -10   30.30    2.20
  -3   6 -10   30.60    3.30
  -3   6 -10   32.70    1.70
  -3   6 -10   32.50    2.50
  -4   6 -10    5.60    0.60
  -4   6 -10    6.80    1.30
  -4   6 -10    7.30    1.20
  -4   6 -10    5.90    1.10
  -4   6 -10    6.00    1.40
  -5   6 -10   56.19    4.00
  -5   6 -10   55.49    3.40
  -5   6 -10   62.09    2.80
  -5   6 -10   57.19    3.40
  -6   6 -10   13.10    1.00
  -6   6 -10   10.40    1.90
  -6   6 -10   10.80    1.50
  -7   6 -10  117.39    6.70
  -7   6 -10  117.59    5.20
  -7   6 -10  115.49    6.00
  -8   6 -10    9.00    1.60
  -8   6 -10    9.70    1.00
  -8   6 -10   10.40    2.00
  -9   6 -10   55.89    3.60
  -9   6 -10   57.69    4.30
  -9   6 -10   58.69    2.90
 -10   6 -10    5.60    1.20
 -10   6 -10    7.90    1.60
 -11   6 -10  100.69    5.00
 -11   6 -10  106.19    4.50
 -11   6 -10  105.59    5.40
  -8  -5  10    7.10    1.00
   7   5 -10   12.60    1.30
  -7  -5  10   12.90    1.40
   6   5 -10   67.29    3.70
  -6  -5  10   73.99    4.00
   5   5 -10   55.89    3.30
  -5  -5  10   58.59    3.50
   4   5 -10    2.60    0.90
   4   5 -10    2.60    1.20
   4   5 -10    1.90    0.70
   3   5 -10    4.60    1.00
   3   5 -10    6.70    0.90
   3   5 -10    4.10    1.30
   2   5 -10   29.70    2.30
   2   5 -10   25.70    2.50
   2   5 -10   30.70    2.10
   2   5 -10   33.80    1.90
   2   5 -10   29.80    2.50
   1   5 -10    9.70    1.40
   1   5 -10   10.80    1.60
   1   5 -10   11.70    1.10
   1   5 -10    9.70    1.10
   0   5 -10  165.58    6.90
   0   5 -10  155.68    7.20
   0   5 -10  161.88    7.50
   0   5 -10  157.98    7.70
  -1   5 -10  275.67   12.10
  -1   5 -10  270.47   12.00
  -1   5 -10  270.47   12.20
  -1   5 -10  276.47   11.40
  -2   5 -10    1.90    0.80
  -2   5 -10    1.50    0.60
  -2   5 -10    3.30    0.40
  -2   5 -10    3.20    0.90
  -3   5 -10  149.39    7.30
  -3   5 -10  160.98    7.30
  -3   5 -10  167.38    7.50
  -4   5 -10   86.59    4.50
  -5   5 -10   49.30    3.60
  -5   5 -10   45.50    3.00
  -5   5 -10   49.70    2.30
   5  -5  10   48.90    3.40
  -6   5 -10    2.90    1.00
  -6   5 -10    2.50    1.20
  -6   5 -10    2.50    0.50
  -7   5 -10   56.39    4.10
  -7   5 -10   55.39    3.40
  -7   5 -10   51.39    2.60
  -8   5 -10  175.68    8.90
  -8   5 -10  165.58    7.40
  -8   5 -10  171.48    8.10
  -9   5 -10   17.80    1.30
  -9   5 -10   19.70    2.70
  -9   5 -10   19.00    2.10
 -10   5 -10  140.29    7.60
 -10   5 -10  152.38    7.00
 -11   5 -10  101.09    5.30
 -11   5 -10  100.39    4.30
 -11   5 -10   99.19    4.90
  -9  -4  10   -0.30    0.50
  -8  -4  10   35.10    2.30
   7   4 -10   74.79    3.70
  -7  -4  10   67.29    3.90
   6   4 -10  157.98    7.20
  -6  -4  10  156.38    7.50
   5   4 -10   14.00    1.50
   5   4 -10   14.60    1.40
  -5  -4  10   15.20    1.80
   4   4 -10   13.90    1.90
   4   4 -10   17.40    1.80
   4   4 -10   13.00    1.30
   4   4 -10   12.30    1.40
   3   4 -10    3.90    1.10
   3   4 -10    3.40    0.90
   3   4 -10    3.30    0.70
   3   4 -10    1.40    1.10
   3   4 -10    2.50    0.90
   2   4 -10   78.69    4.40
   2   4 -10   77.39    4.40
   2   4 -10   83.39    3.70
   2   4 -10   78.09    4.00
   1   4 -10   27.90    1.60
   1   4 -10   32.50    2.30
   1   4 -10   25.30    2.00
   1   4 -10   27.90    2.20
  -1  -4  10   28.70    2.10
   0   4 -10   13.60    1.40
   0   4 -10   16.50    1.50
   0   4 -10   16.20    0.90
   0   4 -10   13.50    1.60
   0  -4  10   15.50    1.40
  -1   4 -10   62.19    3.40
  -1   4 -10   55.99    3.10
  -1   4 -10   56.49    3.20
   1  -4  10   62.99    3.10
  -2   4 -10    8.40    0.90
  -2   4 -10    9.80    1.30
   2  -4  10    8.00    0.90
  -3   4 -10  182.48    8.20
  -3   4 -10  175.28    7.80
  -4   4 -10   16.20    1.30
  -4   4 -10   15.70    1.50
   4  -4  10   15.30    1.80
  -5   4 -10    9.10    1.30
  -5   4 -10   13.40    2.80
   5  -4  10    9.20    1.60
  -6   4 -10    4.10    1.30
  -6   4 -10    4.60    1.10
  -6   4 -10    3.60    0.50
   6  -4  10    4.90    1.30
  -7   4 -10   14.20    2.10
  -7   4 -10   14.60    1.70
  -7   4 -10   14.40    1.10
  -8   4 -10  105.99    5.60
  -8   4 -10  109.89    5.00
  -8   4 -10  114.49    6.40
  -9   4 -10   19.10    1.40
  -9   4 -10   20.20    2.10
  -9   4 -10   19.80    2.60
 -10   4 -10   75.09    4.60
 -10   4 -10   70.89    4.00
 -11   4 -10   14.00    1.40
 -11   4 -10   12.40    1.00
 -11   4 -10   13.50    1.80
   9   3 -10    9.90    1.00
  -9  -3  10    9.70    1.20
   8   3 -10    5.50    0.90
  -8  -3  10    5.20    1.10
   7   3 -10   64.59    3.40
   7   3 -10   63.79    3.40
  -7  -3  10   62.69    3.70
   6   3 -10  112.59    5.30
   6   3 -10  113.09    5.30
  -6  -3  10  106.59    5.60
   5   3 -10    1.70    1.00
   5   3 -10    2.00    0.70
   5   3 -10    4.30    0.90
  -5  -3  10    2.90    1.00
   4   3 -10  133.59    6.10
   4   3 -10  128.99    6.40
   4   3 -10  137.49    6.60
   4   3 -10  141.89    6.00
  -4  -3  10  121.29    6.40
   3   3 -10    1.90    0.60
   3   3 -10    0.40    0.90
   3   3 -10    1.60    0.90
   3   3 -10    1.00    0.60
   2   3 -10   92.79    4.10
   2   3 -10   94.59    4.90
   2   3 -10   87.59    4.90
   2   3 -10   90.69    4.70
  -2  -3  10   92.99    4.80
   1   3 -10   40.00    2.60
   1   3 -10   42.80    2.70
   1   3 -10   42.90    2.80
  -1  -3  10   43.80    2.60
   0   3 -10  210.28    9.60
   0   3 -10  208.18    9.70
   0   3 -10  228.18    9.60
   0  -3  10  216.28    9.40
  -1   3 -10    1.10    0.50
  -1   3 -10    4.00    0.90
  -1   3 -10    2.40    0.70
   1  -3  10    2.00    0.50
  -2   3 -10  248.68   10.50
  -2   3 -10  248.68   11.00
  -3   3 -10   73.29    3.80
  -3   3 -10   72.29    3.30
   3  -3  10   71.39    4.00
  -4   3 -10    6.30    0.70
   4  -3  10    7.90    1.40
  -5   3 -10   11.10    1.40
   5  -3  10   21.00    2.20
  -6   3 -10   16.80    1.00
  -6   3 -10   13.30    2.00
  -6   3 -10   17.80    1.70
   6  -3  10   14.10    2.10
  -7   3 -10   38.40    2.90
  -7   3 -10   47.50    3.70
  -7   3 -10   49.80    2.30
  -8   3 -10   53.99    4.10
  -8   3 -10   48.50    3.30
  -8   3 -10   53.99    2.70
  -9   3 -10    7.60    1.70
  -9   3 -10    7.40    1.30
  -9   3 -10    7.10    0.90
 -10   3 -10   17.90    2.30
 -10   3 -10   17.60    1.90
 -11   3 -10   54.39    2.60
 -11   3 -10   59.09    3.50
  10   2 -10   55.69    2.70
 -10  -2  10   52.79    2.80
   9   2 -10  119.69    5.40
  -9  -2  10  113.99    5.60
   8   2 -10  284.57   12.50
  -8  -2  10  294.77   12.70
   7   2 -10   50.89    3.00
  -7  -2  10   52.29    3.30
   6   2 -10   89.99    4.60
   6   2 -10   97.49    4.70
  -6  -2  10   97.59    5.00
   5   2 -10   21.00    1.70
   5   2 -10   18.80    1.50
   5   2 -10   18.30    1.60
   5   2 -10   16.90    1.80
  -5  -2  10   18.20    1.80
  -5  -2  10   20.40    2.20
   4   2 -10   11.60    1.10
   4   2 -10   11.20    1.30
   4   2 -10   11.00    1.50
  -4  -2  10   13.20    1.50
   3   2 -10  258.37   11.30
   3   2 -10  241.18   11.50
   3   2 -10  272.57   11.50
   3   2 -10  250.37   10.70
   3   2 -10  249.58   11.70
  -3  -2  10  249.88   11.50
   2   2 -10  128.29    5.80
   2   2 -10  138.39    6.60
   2   2 -10  130.09    6.50
   2   2 -10  134.49    6.40
   2   2 -10  145.49    6.60
  -2  -2  10  136.69    6.40
   1   2 -10    3.00    0.80
   1   2 -10    3.80    0.80
   1   2 -10    2.80    0.40
   1   2 -10    4.70    1.00
   1   2 -10    4.40    0.90
  -1  -2  10    3.30    0.70
   0   2 -10    3.50    0.80
   0   2 -10    4.60    0.70
   0   2 -10    2.90    0.80
   0   2 -10    2.90    0.70
   0  -2  10    3.40    0.60
  -1   2 -10  539.95   21.90
  -1   2 -10  524.35   22.20
  -1   2 -10  530.25   22.40
  -2   2 -10  195.68    8.80
  -2   2 -10  200.88    9.00
   2  -2  10  205.38    9.10
   3  -2  10  190.28    8.90
  -4   2 -10   27.70    1.60
   4  -2  10   29.00    2.40
   5  -2  10  132.49    6.90
  -6   2 -10    4.80    0.60
  -6   2 -10    4.40    1.30
   6  -2  10    4.50    1.40
  -7   2 -10  137.39    7.20
  -7   2 -10  128.99    5.80
  -8   2 -10   32.30    3.10
  -8   2 -10   32.60    1.90
  -9   2 -10    6.60    0.80
  -9   2 -10    5.00    1.60
 -10   2 -10   16.80    2.20
 -11   2 -10    3.00    0.90
 -11   2 -10    3.00    0.50
  10   1 -10   23.30    1.60
 -10  -1  10   22.80    1.70
   9   1 -10  338.57   14.00
  -9  -1  10  319.77   14.20
   8   1 -10  279.47   12.30
  -8  -1  10  290.97   12.60
   7   1 -10    6.60    1.10
  -7  -1  10    6.10    1.20
   6   1 -10    5.10    1.00
   6   1 -10    5.00    1.00
   6   1 -10    6.90    0.90
   6   1 -10    4.80    1.20
  -6  -1  10    5.70    1.10
   5   1 -10  116.59    5.40
   5   1 -10  110.69    5.40
   5   1 -10  127.49    5.80
   5   1 -10  110.59    5.30
  -5  -1  10  115.89    5.70
   4   1 -10  212.48    9.00
   4   1 -10  200.08   10.00
   4   1 -10  206.78    9.20
   4   1 -10  237.68   11.70
  -4  -1  10  193.48    9.80
  -4  -1  10  226.78    9.60
   3   1 -10  455.55   19.70
   3   1 -10  456.65   20.10
   3   1 -10  467.95   20.00
   3   1 -10  461.25   19.10
  -3  -1  10  443.36   19.80
  -3  -1  10  496.05   19.70
   2   1 -10   20.90    1.80
   2   1 -10   21.20    1.80
   2   1 -10   18.10    1.10
   2   1 -10   20.90    1.70
   2   1 -10   21.60    1.80
  -2  -1  10   21.10    1.60
   1   1 -10   14.60    1.50
   1   1 -10   11.90    1.20
   1   1 -10   12.80    1.30
   1   1 -10   11.00    1.20
  -1  -1  10   12.10    1.00
   0   1 -10   90.19    4.30
   0   1 -10   83.99    4.40
   0   1 -10   88.59    4.10
   0   1 -10   91.59    4.50
  -1   1 -10  103.39    5.20
  -1   1 -10  104.89    5.00
  -1   1 -10  114.89    5.20
  -2   1 -10  276.47   11.70
  -2   1 -10  268.77   12.00
   2  -1  10  263.97   11.70
  -3   1 -10  740.43   32.00
   3  -1  10  773.02   31.60
  -4   1 -10    2.20    0.50
  -4   1 -10    2.30    1.00
   5  -1  10  150.98    7.70
  -6   1 -10  378.26   15.00
  -6   1 -10  345.27   16.30
   6  -1  10  355.26   16.50
  -7   1 -10    6.50    1.60
  -7   1 -10    5.20    0.70
  -8   1 -10   10.90    2.00
  -8   1 -10   10.10    1.10
  -9   1 -10   77.59    4.90
  -9   1 -10   73.59    3.60
 -10   1 -10   62.99    4.00
 -11   1 -10    2.20    0.80
 -11   1 -10    2.70    0.40
  11   0 -10   31.40    1.70
  10   0 -10   14.10    1.40
 -10   0  10   11.50    1.40
   9   0 -10    2.00    0.80
  -9   0  10    3.30    1.00
   8   0 -10  153.38    6.90
  -8   0  10  146.69    7.10
   7   0 -10   21.40    2.10
   7   0 -10   19.50    1.80
  -7   0  10   21.40    2.00
   6   0 -10    0.70    0.70
   6   0 -10    0.30    0.60
   6   0 -10    0.30    0.90
   6   0 -10    2.40    0.70
  -6   0  10    2.00    0.80
   5   0 -10   69.19    3.70
   5   0 -10   72.49    3.50
  -5   0  10   74.79    3.80
  -5   0  10   74.29    4.00
   4   0 -10  713.93   30.50
   4   0 -10  693.63   30.00
   4   0 -10  746.13   29.50
   4   0 -10  697.93   30.30
  -4   0  10  709.53   29.90
  -4   0  10  729.33   30.30
   3   0 -10    4.40    1.00
   3   0 -10    4.10    0.90
   3   0 -10    4.80    1.00
   3   0 -10    3.80    0.50
  -3   0  10    5.00    1.00
  -3   0  10    5.50    1.00
   2   0 -10  401.26   16.90
   2   0 -10  403.96   17.60
   2   0 -10  391.46   17.60
   2   0 -10  413.26   17.50
  -2   0  10  445.76   17.50
  -2   0  10  409.56   17.40
   1   0 -10   15.60    1.30
   1   0 -10   15.50    1.50
   1   0 -10   15.10    1.40
  -1   0  10   15.50    1.10
  -1   0  10   16.50    1.40
   0   0 -10   84.59    4.20
   0   0 -10   86.49    4.40
   0   0 -10   86.49    4.00
   0   0  10   92.79    4.30
  -1   0 -10  355.26   14.80
  -1   0 -10  342.77   15.40
  -1   0 -10  374.56   15.50
   1   0  10  356.76   15.10
  -2   0 -10  206.38    9.50
  -2   0 -10  208.58    8.60
   2   0  10  196.28    9.10
  -3   0 -10   23.00    2.10
  -3   0 -10   21.00    1.30
   3   0  10   21.60    1.80
  -4   0 -10   89.09    5.10
  -4   0 -10   91.49    4.30
   4   0  10   85.69    4.70
  -5   0 -10  606.44   26.90
  -5   0 -10  633.74   25.50
  -6   0 -10  537.75   23.10
  -6   0 -10  509.05   22.10
  -6   0 -10  530.15   21.70
  -7   0 -10    2.70    1.30
  -7   0 -10    3.90    0.90
  -7   0 -10    2.80    0.60
  -8   0 -10   19.40    2.70
  -8   0 -10   18.40    1.70
  -8   0 -10   19.20    1.40
  -9   0 -10   61.59    4.20
   9   0  10   61.09    3.20
 -10   0 -10    3.50    0.60
 -10   0 -10    3.50    1.10
  10   0  10    4.40    0.80
 -11   0 -10    2.20    0.70
 -11   0 -10    2.30    0.40
  11  -1 -10   39.50    2.10
  10  -1 -10   61.09    3.30
 -10   1  10   65.69    3.40
   9  -1 -10    9.40    1.30
  -9   1  10    9.90    1.40
   8  -1 -10    7.10    1.20
  -8   1  10    8.20    1.30
   7  -1 -10   17.70    1.60
   7  -1 -10   13.90    1.70
  -7   1  10   15.70    1.70
   6  -1 -10  463.65   18.90
   6  -1 -10  454.95   18.60
   6  -1 -10  457.65   18.50
   6  -1 -10  397.06   19.00
  -6   1  10  418.26   18.70
  -6   1  10  443.96   18.90
   5  -1 -10   53.29    3.70
   5  -1 -10   50.49    2.80
   5  -1 -10   52.89    2.60
  -5   1  10   51.79    3.10
  -5   1  10   48.00    3.40
   4  -1 -10    5.30    1.00
   4  -1 -10    5.30    1.20
   4  -1 -10    4.40    1.00
   4  -1 -10    5.00    0.70
  -4   1  10    4.60    0.90
  -4   1  10    4.80    1.10
   3  -1 -10   55.49    3.30
   3  -1 -10   53.99    3.30
   3  -1 -10   49.99    3.00
   3  -1 -10   55.39    2.60
  -3   1  10   55.69    3.10
  -3   1  10   54.19    3.10
   2  -1 -10  386.46   16.10
   2  -1 -10  389.66   16.20
   2  -1 -10  378.46   15.50
   2  -1 -10  355.56   16.30
  -2   1  10  379.76   16.10
  -2   1  10  370.96   16.00
   1  -1 -10  123.69    6.30
   1  -1 -10  133.29    6.20
   1  -1 -10  132.69    6.10
  -1   1  10  142.49    6.20
  -1   1  10  132.29    5.90
   0  -1 -10  333.47   15.00
   0  -1 -10  344.77   14.60
   0  -1 -10  357.26   15.10
   0   1  10  341.77   14.70
   0   1  10  359.16   14.50
  -1  -1 -10  399.46   16.00
  -1  -1 -10  344.17   15.70
  -1  -1 -10  354.96   15.20
   1   1  10  382.56   15.70
   1   1  10  341.27   15.30
  -2  -1 -10  155.98    7.20
  -2  -1 -10  140.39    6.30
   2   1  10  137.39    6.80
  -3  -1 -10   20.60    1.50
  -3  -1 -10   20.90    2.10
   3   1  10   18.10    1.80
  -4  -1 -10  110.29    5.40
  -4  -1 -10  108.69    4.80
  -4  -1 -10  118.19    6.20
  -5  -1 -10  421.36   17.50
  -5  -1 -10  398.06   17.80
  -5  -1 -10  432.16   18.70
  -5  -1 -10  436.16   19.10
  -6  -1 -10  108.69    4.90
  -6  -1 -10  106.49    5.30
  -6  -1 -10  111.49    6.20
  -7  -1 -10    8.30    0.90
  -7  -1 -10    7.00    1.60
  -7  -1 -10    8.40    1.20
  -8  -1 -10  111.19    4.90
  -8  -1 -10  107.59    6.20
  -8  -1 -10  102.19    5.20
  -9  -1 -10  101.09    5.60
   9   1  10   96.99    4.70
 -10  -1 -10   65.09    3.80
 -10  -1 -10   65.99    3.00
  10   1  10   66.59    3.20
  11  -2 -10   21.20    1.50
 -11   2  10   19.30    1.90
  10  -2 -10    3.20    0.80
 -10   2  10    2.30    0.80
   9  -2 -10    1.90    0.90
  -9   2  10    2.90    0.90
   8  -2 -10   22.30    2.10
   8  -2 -10   19.70    1.90
  -8   2  10   21.40    2.60
   7  -2 -10   13.70    1.50
   7  -2 -10   13.00    1.70
   6  -2 -10  195.18    8.90
   6  -2 -10  210.18    8.50
   6  -2 -10  188.38    8.60
  -6   2  10  182.28    8.90
   5  -2 -10   47.30    2.70
   5  -2 -10   50.29    2.60
   5  -2 -10   49.70    3.50
  -5   2  10   49.20    3.00
  -5   2  10   49.50    3.30
   4  -2 -10   16.10    1.20
   4  -2 -10   15.20    1.50
   4  -2 -10   14.20    1.80
   4  -2 -10   13.90    1.70
  -4   2  10   16.10    1.70
  -4   2  10   18.30    1.60
   3  -2 -10   10.00    0.80
   3  -2 -10    8.90    1.10
   3  -2 -10    7.50    1.30
   3  -2 -10    8.10    1.30
  -3   2  10    8.60    1.20
  -3   2  10    9.90    1.20
   2  -2 -10   28.20    2.10
   2  -2 -10   26.20    1.50
   2  -2 -10   29.80    2.10
  -2   2  10   28.70    1.90
  -2   2  10   30.80    2.00
   1  -2 -10    6.20    1.10
   1  -2 -10    4.60    0.50
   1  -2 -10    4.60    1.00
   1  -2 -10    5.30    0.90
  -1   2  10    5.10    0.80
  -1   2  10    4.80    0.80
   0  -2 -10  564.74   25.40
   0  -2 -10  584.94   25.00
   0  -2 -10  662.73   25.50
   0   2  10  574.54   25.00
   0   2  10  627.34   25.10
  -1  -2 -10    2.00    0.90
  -1  -2 -10    3.10    0.70
   1   2  10    3.10    0.80
   1   2  10    3.30    0.70
  -2  -2 -10   13.10    1.20
  -2  -2 -10   11.60    1.80
   2   2  10   13.80    1.20
   2   2  10   11.30    1.50
  -3  -2 -10  405.26   18.10
  -3  -2 -10  412.06   17.40
  -3  -2 -10  408.06   16.80
   3   2  10  402.76   17.70
  -4  -2 -10  497.65   20.50
  -4  -2 -10  497.45   22.00
  -5  -2 -10   25.00    1.50
  -5  -2 -10   23.20    1.90
  -5  -2 -10   24.70    2.50
  -6  -2 -10   45.00    2.40
  -6  -2 -10   44.00    3.50
  -6  -2 -10   42.30    2.80
  -7  -2 -10   93.29    4.90
  -7  -2 -10  101.99    5.90
  -7  -2 -10  103.79    4.60
  -8  -2 -10    2.30    0.60
  -8  -2 -10    1.50    1.30
  -8  -2 -10    1.30    0.80
  -9  -2 -10  162.88    6.90
  -9  -2 -10  160.68    8.00
   9   2  10  167.08    7.20
 -10  -2 -10  156.28    7.30
 -10  -2 -10  156.18    6.50
  10   2  10  155.58    6.70
  11  -3 -10    1.10    0.60
  10  -3 -10   48.90    2.80
   9  -3 -10   63.19    3.40
  -9   3  10   60.19    3.30
   8  -3 -10    5.90    1.10
   8  -3 -10    7.60    1.30
   7  -3 -10  230.18    9.90
   7  -3 -10  220.48   10.20
   6  -3 -10   67.29    3.50
   6  -3 -10   66.99    3.80
   6  -3 -10   66.79    3.40
  -6   3  10   70.09    3.90
   5  -3 -10   65.29    3.50
   5  -3 -10   68.59    4.40
   5  -3 -10   76.89    3.50
  -5   3  10   71.19    4.30
  -5   3  10   68.99    3.90
   4  -3 -10  244.58    9.90
   4  -3 -10  231.38   10.80
   4  -3 -10  226.28   10.90
  -4   3  10  243.08   10.50
  -4   3  10  221.78   10.70
   3  -3 -10   35.20    2.50
   3  -3 -10   30.30    2.50
   3  -3 -10   36.10    1.90
  -3   3  10   36.80    2.50
  -3   3  10   37.90    2.30
   2  -3 -10   32.40    2.30
   2  -3 -10   31.00    1.60
   2  -3 -10   31.90    2.40
  -2   3  10   31.00    2.10
  -2   3  10   33.00    2.10
   1  -3 -10   10.60    1.20
   1  -3 -10   11.00    1.50
   1  -3 -10   11.60    1.50
   1  -3 -10   11.90    0.80
  -1   3  10   11.50    1.20
  -1   3  10   11.70    1.20
   0  -3 -10   80.19    3.50
   0  -3 -10   82.09    4.20
   0  -3 -10   81.89    4.60
   0  -3 -10   82.39    4.40
   0   3  10   81.39    4.00
   0   3  10   78.79    4.10
  -1  -3 -10   11.80    1.30
  -1  -3 -10   10.40    0.70
  -1  -3 -10   13.10    1.70
   1   3  10   11.50    1.50
   1   3  10   10.20    1.20
  -2  -3 -10  265.67   10.80
  -2  -3 -10  271.67   11.60
  -2  -3 -10  248.78   12.10
   2   3  10  251.67   11.50
   2   3  10  261.77   11.80
  -3  -3 -10    4.40    0.60
  -3  -3 -10    6.80    1.50
  -4  -3 -10   36.00    3.20
  -4  -3 -10   34.60    2.40
  -4  -3 -10   42.10    2.10
  -4  -3 -10   38.70    3.10
  -5  -3 -10   60.39    4.30
  -5  -3 -10   70.29    3.20
  -5  -3 -10   61.09    3.50
  -6  -3 -10   60.49    3.00
  -6  -3 -10   58.69    3.40
  -6  -3 -10   56.79    4.20
  -7  -3 -10    1.50    1.20
  -7  -3 -10    2.00    0.90
  -7  -3 -10    2.20    0.70
  -8  -3 -10  131.09    6.10
  -8  -3 -10  153.68    6.60
  -8  -3 -10  146.39    7.40
  -9  -3 -10   40.70    2.90
  -9  -3 -10   42.50    2.10
   9   3  10   46.80    2.40
  11  -4 -10   12.70    1.20
  10  -4 -10   10.50    1.20
   9  -4 -10  152.38    7.00
  -9   4  10  154.18    7.00
   8  -4 -10   40.10    2.50
   7  -4 -10   23.80    1.90
   7  -4 -10   22.40    2.20
   6  -4 -10    4.80    0.90
   6  -4 -10    3.60    0.80
   6  -4 -10    5.90    1.30
  -6   4  10    4.70    1.10
   5  -4 -10   31.90    2.10
   5  -4 -10   33.00    2.50
   5  -4 -10   34.40    1.90
  -5   4  10   30.40    2.30
   4  -4 -10   74.39    3.50
   4  -4 -10   73.09    4.60
   4  -4 -10   67.89    4.40
  -4   4  10   73.79    4.00
  -4   4  10   78.79    4.40
   3  -4 -10  130.39    6.50
   3  -4 -10  124.19    5.60
   3  -4 -10  126.19    6.40
  -3   4  10  127.29    6.40
  -3   4  10  128.69    6.10
   2  -4 -10   37.40    1.90
   2  -4 -10   37.30    2.60
   2  -4 -10   39.10    2.70
   2  -4 -10   34.60    2.50
  -2   4  10   30.80    2.40
  -2   4  10   35.00    2.30
   1  -4 -10    4.30    1.10
   1  -4 -10    7.70    1.30
   1  -4 -10    5.70    0.60
   1  -4 -10    5.00    1.00
  -1   4  10    4.90    1.00
  -1   4  10    5.20    0.90
   0  -4 -10   11.10    1.40
   0  -4 -10   10.20    1.60
   0  -4 -10    8.90    0.80
   0   4  10    9.30    1.40
   0   4  10    8.00    1.20
   0   4  10    9.30    1.10
  -1  -4 -10    4.50    1.00
  -1  -4 -10    6.10    1.30
  -1  -4 -10    5.20    0.60
   1   4  10    4.90    1.70
   1   4  10    5.10    1.10
  -2  -4 -10   55.69    3.00
  -2  -4 -10   58.99    2.70
  -2  -4 -10   50.69    3.80
  -3  -4 -10   74.09    4.60
  -3  -4 -10   68.99    3.30
  -3  -4 -10   64.39    4.20
  -3  -4 -10   68.29    3.60
  -4  -4 -10    7.40    1.20
  -4  -4 -10    7.30    0.90
  -4  -4 -10    8.60    1.70
  -5  -4 -10    1.30    1.20
  -5  -4 -10    2.90    0.90
  -5  -4 -10    2.30    0.60
  -6  -4 -10   63.09    3.30
  -6  -4 -10   53.89    2.90
  -6  -4 -10   53.89    4.10
  -7  -4 -10  205.98    9.00
  -7  -4 -10  204.68    9.80
  -7  -4 -10  192.28    8.50
  -8  -4 -10   42.20    2.10
  -8  -4 -10   42.60    3.10
  -8  -4 -10   44.40    2.50
  -9  -4 -10    1.80    0.40
  -9  -4 -10    2.10    0.80
   9   4  10    2.60    0.60
  11  -5 -10    3.50    0.70
  10  -5 -10   54.29    2.90
 -10   5  10   49.30    2.80
   9  -5 -10   72.29    3.90
  -9   5  10   78.19    3.90
   8  -5 -10  182.58    8.10
  -8   5  10  173.98    8.10
   7  -5 -10   16.50    1.70
  -7   5  10   13.20    1.50
   6  -5 -10    7.20    1.40
   6  -5 -10    5.70    0.90
   6  -5 -10    5.90    1.00
   5  -5 -10  163.28    7.10
   5  -5 -10  160.58    7.50
   5  -5 -10  151.88    7.20
   5  -5 -10  160.68    7.20
  -5   5  10  159.38    7.60
   4  -5 -10  891.61   37.60
   4  -5 -10  923.51   37.50
   4  -5 -10  893.91   41.10
  -4   5  10  928.91   38.00
   3  -5 -10  327.97   14.20
   3  -5 -10  338.77   13.90
   3  -5 -10  316.17   15.00
   3  -5 -10  337.17   15.00
  -3   5  10  340.57   14.50
  -3   5  10  327.47   14.90
   2  -5 -10  139.19    8.50
   2  -5 -10  144.99    6.20
   2  -5 -10  137.39    7.10
   2  -5 -10  161.58    7.40
   2  -5 -10  136.59    6.50
  -2   5  10  136.09    6.60
  -2   5  10  135.39    7.00
   1  -5 -10   70.09    4.60
   1  -5 -10   78.39    4.50
   1  -5 -10   88.69    3.70
   1  -5 -10   78.89    3.90
  -1   5  10   78.89    4.00
  -1   5  10   76.39    4.40
   0  -5 -10   20.30    2.30
   0  -5 -10   16.60    1.50
   0  -5 -10   19.50    3.00
   0  -5 -10   16.50    1.20
  -1  -5 -10  163.48    7.40
  -1  -5 -10  156.38    8.40
  -1  -5 -10  171.88    7.10
  -2  -5 -10  364.66   15.60
  -2  -5 -10  377.36   15.90
  -2  -5 -10  384.56   17.00
  -2  -5 -10  362.86   15.80
  -3  -5 -10  188.78    8.50
  -3  -5 -10  196.38    8.30
  -3  -5 -10  187.68    8.60
  -3  -5 -10  187.68    9.40
  -4  -5 -10   13.30    2.00
  -4  -5 -10   14.10    1.50
  -4  -5 -10   13.80    1.30
  -5  -5 -10   39.60    2.20
  -5  -5 -10   37.10    3.30
  -5  -5 -10   38.70    2.70
  -6  -5 -10  301.17   12.80
  -6  -5 -10  301.87   13.70
  -6  -5 -10  291.57   12.50
  -6  -5 -10  286.37   12.30
  -7  -5 -10   15.60    1.60
  -7  -5 -10   16.70    2.10
  -7  -5 -10   14.70    1.20
  -8  -5 -10   12.40    0.90
  -8  -5 -10   11.50    1.60
   8   5  10   11.20    1.10
  10  -6 -10   20.90    1.60
 -10   6  10   18.10    1.60
   9  -6 -10   19.30    1.70
  -9   6  10   17.30    1.70
   8  -6 -10  134.49    6.20
  -8   6  10  131.99    6.30
   7  -6 -10    2.00    0.80
  -7   6  10    3.30    0.90
   6  -6 -10  254.37   11.10
  -6   6  10  253.37   11.20
   5  -6 -10    9.20    1.10
   5  -6 -10   12.30    1.30
   5  -6 -10   10.80    1.30
  -5   6  10   12.80    1.40
   4  -6 -10  153.58    7.00
   4  -6 -10  158.48    6.90
   4  -6 -10  159.08    7.20
  -4   6  10  157.58    7.10
  -4   6  10  152.88    7.40
   3  -6 -10  130.09    6.10
   3  -6 -10  123.59    7.00
   3  -6 -10  144.09    5.90
  -3   6  10  125.79    6.30
   2  -6 -10   15.60    2.10
   2  -6 -10   14.80    1.50
   2  -6 -10   16.30    1.30
  -2   6  10   15.10    1.60
   1  -6 -10  318.37   13.40
   1  -6 -10  286.37   14.30
   1  -6 -10  310.47   13.50
   1  -6 -10  327.47   13.10
   0  -6 -10  192.38    9.10
   0  -6 -10  211.28   10.30
   0  -6 -10  213.38    8.90
   0  -6 -10  210.58    9.30
  -1  -6 -10   13.40    1.40
  -1  -6 -10   12.90    1.20
  -1  -6 -10   12.90    1.50
  -2  -6 -10   29.80    2.20
  -2  -6 -10   29.50    2.20
  -2  -6 -10   30.90    1.90
  -3  -6 -10    5.40    1.10
  -3  -6 -10    5.70    0.90
  -3  -6 -10    4.50    1.40
   3   6  10    5.90    1.00
  -4  -6 -10  110.89    5.20
  -4  -6 -10  116.59    6.40
  -4  -6 -10  115.29    5.60
  -5  -6 -10  188.88    9.20
  -5  -6 -10  185.98    7.80
  -5  -6 -10  176.18    8.00
  -5  -6 -10  181.38    8.30
  -6  -6 -10  120.39    6.40
  -6  -6 -10  121.89    5.30
  -6  -6 -10  121.49    5.70
  -7  -6 -10   23.10    1.30
  -7  -6 -10   20.70    2.00
  -7  -6 -10   21.20    1.60
 -11   7  10  115.19    5.20
 -10   7  10   55.09    3.00
  -9   7  10   18.90    1.80
  -8   7  10   77.29    4.10
  -7   7  10    3.40    1.00
  -6   7  10  198.38    8.90
   5  -7 -10    3.50    1.30
   5  -7 -10    4.50    1.00
  -5   7  10    2.10    0.80
   4  -7 -10  233.58   10.40
   4  -7 -10  243.88   10.30
   4  -7 -10  234.38   10.50
  -4   7  10  239.88   10.40
   3  -7 -10    3.40    1.00
   3  -7 -10    1.00    0.60
   3  -7 -10    1.00    0.70
   2  -7 -10  327.17   13.50
   2  -7 -10  321.47   13.20
   2  -7 -10  304.57   13.30
  -2   7  10  288.47   13.50
   1  -7 -10    9.50    1.00
   1  -7 -10    8.80    1.30
   1  -7 -10    8.50    1.20
   0  -7 -10  197.18    8.50
   0  -7 -10  188.38    8.60
   0  -7 -10  194.88    8.80
  -1  -7 -10    4.10    1.00
  -1  -7 -10    5.20    1.00
  -1  -7 -10    5.30    0.90
  -2  -7 -10  151.98    6.80
  -2  -7 -10  161.28    7.00
  -2  -7 -10  154.78    7.20
   2   7  10  161.08    7.10
  -3  -7 -10   85.09    3.90
  -3  -7 -10   87.19    4.10
  -3  -7 -10   83.79    4.40
  -3  -7 -10   86.39    5.20
   3   7  10   81.39    4.20
  -4  -7 -10  230.68   10.00
  -4  -7 -10  241.38   10.80
  -4  -7 -10  201.58    9.60
  -4  -7 -10  229.18    9.50
  -5  -7 -10   36.60    1.80
  -5  -7 -10   28.70    2.10
  -5  -7 -10   34.60    2.90
  -6  -7 -10   10.90    1.10
  -6  -7 -10   11.90    0.90
  -6  -7 -10   11.10    1.50
  -7  -7 -10   38.20    2.60
  -7  -7 -10   41.90    1.80
 -11   8  10   82.69    3.80
 -10   8  10   28.30    1.90
  -9   8  10   73.89    3.80
   8  -8 -10    6.40    0.70
  -8   8  10    6.10    1.10
   7  -8 -10   64.79    3.00
  -7   8  10   62.19    3.60
   6  -8 -10  292.47   12.10
  -6   8  10  285.77   12.60
   5  -8 -10  167.98    7.80
  -5   8  10  172.98    7.80
   4  -8 -10    4.00    0.70
   4  -8 -10    3.80    1.00
  -4   8  10    4.20    1.00
   3  -8 -10  107.39    4.90
   3  -8 -10  106.99    5.40
   3  -8 -10  109.09    5.10
   2  -8 -10    8.80    0.90
   2  -8 -10    9.10    1.10
   2  -8 -10    9.10    1.40
   1  -8 -10  163.98    7.20
   1  -8 -10  163.38    7.40
   1  -8 -10  175.88    7.80
   0  -8 -10   35.30    2.10
   0  -8 -10   39.40    2.30
   0  -8 -10   37.60    2.40
   0   8  10   41.70    2.50
  -1  -8 -10   39.30    2.60
  -1  -8 -10   41.60    2.40
  -1  -8 -10   40.70    2.20
   1   8  10   41.30    2.50
  -2  -8 -10   24.60    2.00
  -2  -8 -10   23.10    1.60
  -2  -8 -10   26.00    1.70
   2   8  10   27.10    1.90
  -3  -8 -10  143.09    6.30
  -3  -8 -10  141.39    7.30
  -3  -8 -10  144.69    6.60
   3   8  10  147.69    6.50
  -4  -8 -10   56.89    3.70
  -4  -8 -10   53.49    3.00
  -4  -8 -10   59.99    2.70
  -5  -8 -10    3.50    0.70
  -5  -8 -10    4.00    1.10
  -5  -8 -10    5.00    0.60
  -6  -8 -10    7.20    0.60
  -6  -8 -10    7.80    1.40
 -10   9  10   53.99    2.80
  -9   9  10    0.70    0.70
  -8   9  10   46.50    2.90
   7  -9 -10  225.28    9.70
  -7   9  10  242.78   10.30
   6  -9 -10   78.09    3.40
  -6   9  10   70.59    3.90
   5  -9 -10   75.89    3.50
  -5   9  10   75.19    3.90
   4  -9 -10  269.47   11.40
   4  -9 -10  271.57   11.90
   3  -9 -10   71.49    3.40
   3  -9 -10   74.69    4.00
   2  -9 -10   17.30    1.40
   1  -9 -10  125.89    5.60
  -1   9  10  128.09    6.00
   0  -9 -10   31.00    1.90
   0   9  10   34.30    2.30
  -1  -9 -10   43.90    2.30
   1   9  10   41.50    2.60
  -2  -9 -10  112.89    5.00
   2   9  10  113.09    5.30
  -3  -9 -10    3.40    1.10
  -3  -9 -10    3.90    0.60
   3   9  10    3.90    0.80
  -4  -9 -10    3.30    1.00
  -4  -9 -10    4.10    0.50
 -10  10  10   32.50    1.90
  -9  10  10  131.49    6.00
  -8  10  10   97.89    4.80
  -7  10  10   36.50    2.40
   6 -10 -10    0.20    0.40
  -6  10  10    0.10    0.70
   5 -10 -10   83.39    3.70
  -5  10  10   80.49    4.10
   4 -10 -10   70.99    3.30
  -4  10  10   72.59    3.70
   3 -10 -10  298.77   12.30
  -3  10  10  290.87   12.70
   2 -10 -10   32.70    1.90
  -2  10  10   33.00    2.20
   1 -10 -10  104.69    4.70
  -1  10  10  105.89    5.00
   0 -10 -10   18.40    1.30
   0  10  10   20.10    1.70
  -1 -10 -10   67.39    3.10
   1  10  10   69.79    3.50
  -2 -10 -10  142.79    6.00
   2  10  10  143.59    6.40
  -3 -10 -10    3.70    0.40
   3  10  10    3.00    0.80
  -9  11  10   68.29    3.30
  -8  11  10   46.50    2.50
  -7  11  10    1.10    0.70
  -6  11  10    6.40    1.00
   4 -11 -10  270.47   11.10
  -4  11  10  266.77   11.50
   3 -11 -10   21.00    1.20
  -3  11  10   19.60    1.60
   2 -11 -10   10.30    0.90
  -2  11  10   11.30    1.20
   1 -11 -10  103.09    4.50
  -1  11  10  107.99    4.90
   0 -11 -10    8.10    0.60
   0  11  10    8.80    1.00
   1  11  10   60.19    3.00
  -7  12  10   32.50    1.80
  -3  12  10   37.60    2.10
  -2  12  10    0.80    0.50
  -1  12  10   56.49    2.80
  -2  12 -11    8.60    1.10
   2 -12  11   11.10    1.30
  -3  12 -11  112.59    5.20
   3 -12  11  107.39    5.50
  -4  12 -11    5.40    0.90
   4 -12  11    6.20    1.40
  -5  12 -11   47.30    2.70
   5 -12  11   50.99    3.90
  -6  12 -11   89.39    4.30
   6 -12  11   85.19    5.50
   7 -12  11   44.80    3.90
   0  11 -11    1.60    0.70
   0  11 -11    3.00    0.80
  -1  11 -11    1.80    1.00
  -1  11 -11    0.40    0.70
  -2  11 -11    9.00    1.50
  -2  11 -11    8.20    1.20
   2 -11  11    8.40    1.40
  -3  11 -11   17.40    1.80
   3 -11  11   13.10    2.30
  -4  11 -11   85.99    4.30
  -4  11 -11   87.69    4.50
   4 -11  11   65.29    5.80
  -5  11 -11  257.27   11.30
  -5  11 -11  252.07   11.40
  -5  11 -11  258.17   12.20
  -6  11 -11  170.58    8.60
  -6  11 -11  161.28    7.80
  -6  11 -11  175.08    7.70
  -7  11 -11    4.20    1.00
  -7  11 -11    8.20    1.80
  -7  11 -11    7.50    1.00
  -8  11 -11   63.49    4.10
  -8  11 -11   63.19    3.70
   2  10 -11  103.79    4.70
  -2 -10  11   95.29    4.70
   1  10 -11   71.79    3.60
   1  10 -11   70.59    3.80
   1  10 -11   72.69    4.00
   0  10 -11  224.68   10.20
   0  10 -11  231.08   10.40
   0  10 -11  249.97   10.80
  -1  10 -11   10.50    1.50
  -1  10 -11   13.80    1.90
   1 -10  11   19.70    2.00
  -2  10 -11   85.99    4.70
  -2  10 -11   86.79    4.40
   2 -10  11   66.09    5.40
  -3  10 -11    1.70    1.10
  -3  10 -11    1.50    0.70
  -3  10 -11    1.80    1.00
  -3  10 -11    3.60    1.90
  -4  10 -11    9.10    2.20
  -4  10 -11    5.40    1.30
  -4  10 -11    7.20    1.00
  -4  10 -11    7.60    1.40
  -5  10 -11  187.48    8.80
  -5  10 -11  189.18    8.90
  -5  10 -11  196.28    9.90
  -6  10 -11   45.30    2.90
  -6  10 -11   49.60    4.10
  -6  10 -11   42.60    3.00
  -7  10 -11    9.10    1.30
  -7  10 -11   10.00    1.40
  -7  10 -11   10.40    2.00
  -8  10 -11  217.98    9.90
  -8  10 -11  224.38   10.60
  -9  10 -11  137.99    7.00
  -9  10 -11  139.29    6.40
   4   9 -11   46.90    2.40
  -4  -9  11   43.60    2.50
   3   9 -11   55.29    3.00
  -3  -9  11   55.49    3.10
   2   9 -11   22.80    2.20
   2   9 -11   21.50    1.80
   1   9 -11  170.38    7.90
   1   9 -11  173.28    8.30
   1   9 -11  168.18    7.70
   0   9 -11    3.00    0.80
   0   9 -11    3.50    1.10
   0   9 -11    3.80    1.00
   0   9 -11    2.80    1.50
  -1   9 -11   29.30    2.90
  -1   9 -11   28.20    2.50
  -1   9 -11   28.10    2.00
   1  -9  11   24.70    3.60
  -2   9 -11   67.89    4.10
  -2   9 -11   64.59    3.90
  -2   9 -11   61.99    4.90
  -2   9 -11   65.09    3.30
  -3   9 -11   71.89    4.10
  -3   9 -11   74.49    5.20
  -3   9 -11   69.99    3.50
  -3   9 -11   70.99    4.30
  -4   9 -11   37.00    2.90
  -4   9 -11   36.50    2.20
  -4   9 -11   39.70    3.80
  -4   9 -11   37.60    2.80
  -5   9 -11    3.00    1.20
  -5   9 -11    3.80    1.70
  -5   9 -11    2.60    0.70
  -5   9 -11    3.30    1.10
  -6   9 -11   14.00    2.20
  -6   9 -11   14.60    1.80
  -6   9 -11   14.50    1.30
  -6   9 -11   15.40    1.70
  -7   9 -11   47.20    3.80
  -7   9 -11   45.70    2.90
  -7   9 -11   46.90    3.20
  -8   9 -11   76.09    4.90
  -8   9 -11   78.39    4.30
  -9   9 -11   36.60    3.00
  -9   9 -11   38.50    2.50
 -10   9 -11   71.69    3.20
 -10   9 -11   73.19    4.10
 -10   9 -11   72.59    4.10
   5   8 -11    7.50    0.90
  -5  -8  11    6.30    0.90
   4   8 -11   16.40    1.60
  -4  -8  11   18.20    1.70
   3   8 -11   13.20    1.50
   2   8 -11   38.90    2.30
   2   8 -11   38.50    2.60
   2   8 -11   39.70    2.70
   2   8 -11   41.40    3.20
   1   8 -11   19.80    1.90
   1   8 -11   22.40    2.10
   1   8 -11   18.90    1.50
   1   8 -11   14.40    2.10
   0   8 -11   57.59    3.60
   0   8 -11   62.79    3.20
   0   8 -11   62.19    4.10
   0   8 -11   62.29    3.50
  -1   8 -11    2.50    0.80
  -1   8 -11    1.80    1.10
  -1   8 -11    1.80    1.20
  -2   8 -11  202.18    8.80
  -2   8 -11  206.98    9.50
  -2   8 -11  202.68    9.30
  -2   8 -11  196.38   10.10
  -3   8 -11   34.80    3.50
  -3   8 -11   38.70    2.10
  -3   8 -11   39.80    3.00
  -3   8 -11   34.40    2.70
  -4   8 -11  130.69    6.70
  -4   8 -11  135.39    6.50
  -4   8 -11  131.59    7.30
  -4   8 -11  129.49    5.90
  -5   8 -11  188.38    8.80
  -5   8 -11  182.78    9.60
  -5   8 -11  193.38    8.20
  -5   8 -11  195.28    9.10
  -6   8 -11   34.10    2.70
  -6   8 -11   29.80    1.80
  -6   8 -11   33.00    2.50
  -6   8 -11   32.70    3.30
  -7   8 -11  148.89    7.80
  -7   8 -11  169.68    7.20
  -7   8 -11  169.68    8.70
  -8   8 -11  558.44   24.00
  -8   8 -11  567.14   24.70
  -9   8 -11   42.90    2.80
  -9   8 -11   40.60    3.30
 -10   8 -11   20.20    1.80
 -10   8 -11   22.20    2.20
   6   7 -11    6.90    0.90
  -6  -7  11    7.40    1.00
   5   7 -11   62.19    3.40
  -5  -7  11   69.79    3.60
   4   7 -11   40.90    2.60
  -4  -7  11   36.70    2.70
   3   7 -11  177.88    8.10
   3   7 -11  184.48    8.60
   3   7 -11  162.48    7.70
   3   7 -11  177.58    8.00
   2   7 -11   53.59    2.90
   2   7 -11   56.99    3.40
   2   7 -11   51.99    3.90
   2   7 -11   57.59    3.30
   1   7 -11   88.49    4.60
   1   7 -11   88.39    4.30
   1   7 -11   96.79    5.30
   1   7 -11   81.69    4.70
   0   7 -11   20.40    1.60
   0   7 -11   20.50    2.40
   0   7 -11   14.50    1.80
   0   7 -11   19.10    1.70
  -1   7 -11  432.36   19.40
  -1   7 -11  450.85   19.80
  -1   7 -11  461.75   19.70
  -1   7 -11  467.45   18.90
  -2   7 -11   15.40    1.30
  -2   7 -11   18.40    1.90
  -2   7 -11   17.80    2.00
  -2   7 -11   14.00    2.20
  -3   7 -11    3.70    1.20
  -3   7 -11    2.90    1.00
  -3   7 -11    2.20    0.60
  -3   7 -11    3.60    1.30
  -4   7 -11    1.30    0.90
  -4   7 -11    1.50    1.10
  -4   7 -11    1.90    1.20
  -4   7 -11    2.10    0.50
  -5   7 -11  144.09    7.50
  -5   7 -11  157.48    8.20
  -5   7 -11  158.38    7.40
  -5   7 -11  160.88    6.80
  -6   7 -11   36.80    2.00
  -6   7 -11   34.80    2.80
  -6   7 -11   32.40    3.20
  -7   7 -11  135.69    7.40
  -7   7 -11  138.49    6.70
  -7   7 -11  127.79    5.90
  -8   7 -11  273.67   12.40
  -8   7 -11  287.87   13.30
  -8   7 -11  270.97   11.70
  -9   7 -11  111.69    5.70
  -9   7 -11  112.09    6.30
 -10   7 -11    3.90    1.00
 -10   7 -11    4.90    1.30
 -11   7 -11  129.19    5.50
 -11   7 -11  128.59    6.20
  -7  -6  11    0.50    0.60
   6   6 -11    1.70    0.70
  -6  -6  11    3.50    0.90
   5   6 -11   38.00    2.50
  -5  -6  11   38.00    2.70
   4   6 -11    7.70    1.30
  -4  -6  11    8.40    1.40
   3   6 -11   11.00    1.20
   3   6 -11    7.40    1.60
   3   6 -11    9.40    1.30
   3   6 -11    7.80    1.40
   2   6 -11   44.20    2.50
   2   6 -11   37.80    3.20
   2   6 -11   43.20    2.90
   2   6 -11   47.60    2.80
   1   6 -11    5.10    1.20
   1   6 -11    4.00    1.40
   1   6 -11    4.50    1.00
   1   6 -11    5.20    0.90
   0   6 -11   38.90    2.70
   0   6 -11   38.30    2.10
   0   6 -11   35.00    2.40
   0   6 -11   39.90    2.80
  -1   6 -11   49.00    3.00
  -1   6 -11   41.30    3.10
  -1   6 -11   49.60    2.40
  -1   6 -11   48.10    3.00
  -1   6 -11   48.00    3.10
  -2   6 -11   78.09    4.50
  -2   6 -11   80.19    4.20
  -2   6 -11   78.79    3.50
  -2   6 -11   72.79    4.20
  -3   6 -11   57.19    3.90
  -3   6 -11   55.39    3.50
  -3   6 -11   60.29    3.70
  -3   6 -11   61.19    2.80
  -3   6 -11   61.09    3.40
  -4   6 -11  155.48    7.50
  -4   6 -11  153.08    7.90
  -4   6 -11  154.98    6.70
  -4   6 -11  164.38    7.40
  -5   6 -11    8.50    1.70
  -5   6 -11   10.00    0.90
  -5   6 -11    7.80    1.30
  -6   6 -11   10.50    1.90
  -6   6 -11    9.50    1.50
  -6   6 -11   11.20    1.00
  -7   6 -11   20.20    2.80
  -7   6 -11   18.70    1.30
  -7   6 -11   20.60    2.10
  -8   6 -11   38.50    2.10
  -8   6 -11   36.00    2.80
  -8   6 -11   40.30    3.60
  -9   6 -11  144.89    6.90
  -9   6 -11  139.99    7.60
 -10   6 -11  361.26   15.70
 -10   6 -11  333.77   15.00
 -11   6 -11   34.70    1.70
 -11   6 -11   36.40    2.50
  -8  -5  11    5.40    0.80
   7   5 -11   10.20    1.10
  -7  -5  11    7.70    1.10
   6   5 -11   16.70    1.60
  -6  -5  11   16.60    1.80
   5   5 -11  255.67   11.20
  -5  -5  11  254.57   11.40
   4   5 -11    2.80    1.10
   4   5 -11    3.70    0.80
   4   5 -11    3.00    1.00
   4   5 -11    3.80    1.30
   3   5 -11   40.00    2.50
   3   5 -11   33.50    2.10
   3   5 -11   30.80    2.90
   3   5 -11   35.80    2.60
   2   5 -11    8.90    1.70
   2   5 -11    7.80    1.20
   2   5 -11    6.10    1.20
   2   5 -11    8.70    1.00
   1   5 -11  235.58   10.70
   1   5 -11  221.78    9.90
   1   5 -11  236.48   10.50
   1   5 -11  237.98   10.90
   1   5 -11  240.48   10.30
   0   5 -11  188.38    7.70
   0   5 -11  181.78    8.60
   0   5 -11  172.48    8.20
   0   5 -11  176.48    8.00
   0   5 -11  172.38    8.30
  -1   5 -11   34.80    1.80
  -1   5 -11   37.10    2.60
  -1   5 -11   36.90    2.70
  -1   5 -11   31.80    2.40
  -1   5 -11   37.60    3.40
  -2   5 -11    6.00    0.60
  -2   5 -11    3.70    0.90
  -2   5 -11    4.30    1.10
  -3   5 -11   12.30    1.50
  -3   5 -11    9.70    1.50
  -4   5 -11    6.10    1.10
  -4   5 -11    5.40    1.30
  -5   5 -11   34.20    3.10
  -5   5 -11   36.30    1.80
  -5   5 -11   41.20    2.70
  -6   5 -11   12.60    1.60
  -6   5 -11   12.70    1.00
  -6   5 -11   11.20    1.90
  -7   5 -11  292.77   11.90
  -7   5 -11  268.87   12.60
  -7   5 -11  281.17   13.40
  -8   5 -11    0.40    0.90
  -8   5 -11    0.30    1.20
  -8   5 -11    0.50    0.50
  -9   5 -11   13.60    1.10
  -9   5 -11   13.10    1.70
  -9   5 -11   10.50    2.00
 -10   5 -11   11.40    1.80
 -10   5 -11   10.20    1.40
 -11   5 -11    3.20    1.00
 -11   5 -11    2.30    0.40
  -8  -4  11   20.80    1.70
   7   4 -11   14.20    1.50
  -7  -4  11   15.60    1.70
   6   4 -11  125.49    5.90
  -6  -4  11  124.49    6.10
   5   4 -11  170.48    7.60
   5   4 -11  172.28    7.80
  -5  -4  11  173.38    8.10
   4   4 -11  201.08    9.00
   4   4 -11  215.68    9.20
   4   4 -11  201.68    9.40
   4   4 -11  206.18    9.80
   3   4 -11    7.80    1.60
   3   4 -11    7.70    0.90
   3   4 -11    6.40    1.30
   3   4 -11    8.00    1.10
   2   4 -11    7.50    1.40
   2   4 -11    7.00    0.90
   2   4 -11    6.10    1.40
   2   4 -11    5.30    1.20
   2   4 -11    8.70    1.10
   1   4 -11  159.78    8.00
   1   4 -11  179.38    7.40
   1   4 -11  175.68    8.30
   1   4 -11  171.88    7.70
   0   4 -11  210.18    9.80
   0   4 -11  220.78    9.80
   0   4 -11  209.38    9.80
   0   4 -11  217.28    9.40
   0   4 -11  225.98   10.00
   0   4 -11  212.08    9.00
   0  -4  11  221.18    9.80
  -1   4 -11   92.69    4.60
  -1   4 -11   91.99    4.90
  -1   4 -11   97.19    4.90
   1  -4  11   93.99    4.60
  -2   4 -11   35.30    2.40
  -2   4 -11   34.90    2.40
  -2   4 -11   30.80    1.90
  -3   4 -11  212.68    9.20
  -3   4 -11  219.18    9.60
  -3   4 -11  210.08    9.70
  -4   4 -11  192.38    8.70
  -5   4 -11    2.90    1.00
  -5   4 -11    1.80    1.10
   5  -4  11    2.80    1.10
  -6   4 -11  174.08    9.10
  -6   4 -11  182.68    8.60
  -6   4 -11  191.28    7.80
  -7   4 -11   77.09    4.20
  -7   4 -11   70.49    4.80
  -7   4 -11   72.59    3.40
  -8   4 -11    6.50    1.70
  -8   4 -11    6.20    0.80
  -8   4 -11    6.40    1.30
  -9   4 -11  196.98    8.60
  -9   4 -11  198.48    9.30
  -9   4 -11  210.98   10.00
 -10   4 -11    2.30    1.10
 -10   4 -11    2.10    0.90
 -11   4 -11  183.08    7.90
 -11   4 -11  195.68    8.80
  -9  -3  11   19.40    1.50
   8   3 -11   18.60    1.60
  -8  -3  11   23.70    1.90
   7   3 -11   28.40    2.10
   7   3 -11   27.30    2.00
  -7  -3  11   31.80    2.40
   6   3 -11   28.70    2.20
  -6  -3  11   34.10    2.50
   5   3 -11    2.20    0.70
   5   3 -11    1.00    1.00
   5   3 -11    1.70    0.90
  -5  -3  11    2.40    1.00
   4   3 -11  133.39    6.10
   4   3 -11  146.39    6.90
   4   3 -11  131.59    6.60
   4   3 -11  135.09    6.30
   3   3 -11  176.18    8.80
   3   3 -11  207.68    8.20
   3   3 -11  184.08    8.40
   3   3 -11  181.88    8.90
   2   3 -11  195.28    8.00
   2   3 -11  181.38    8.60
   2   3 -11  184.68    8.30
   2   3 -11  181.58    8.80
   1   3 -11   27.40    2.10
   1   3 -11   26.80    1.40
   1   3 -11   28.20    2.20
   1   3 -11   26.10    2.00
  -1  -3  11   26.70    2.00
   0   3 -11  390.26   17.40
   0   3 -11  417.66   17.60
   0   3 -11  412.46   17.80
   0  -3  11  422.36   17.40
  -1   3 -11  291.47   12.80
  -1   3 -11  314.27   13.40
  -1   3 -11  298.97   13.10
   1  -3  11  308.97   12.80
  -2   3 -11   28.10    1.50
  -2   3 -11   28.30    2.10
  -4   3 -11   19.10    1.20
  -4   3 -11   16.60    1.60
   4  -3  11   19.10    2.00
  -5   3 -11   57.09    3.30
  -5   3 -11   59.49    3.90
   5  -3  11   62.89    4.00
  -6   3 -11   63.89    3.70
  -6   3 -11   68.09    4.40
  -6   3 -11   64.59    3.00
  -7   3 -11    5.10    1.50
  -7   3 -11    5.90    1.20
  -7   3 -11    6.20    0.70
  -8   3 -11    4.30    1.50
  -8   3 -11    2.90    1.00
  -8   3 -11    3.10    0.60
  -9   3 -11    3.00    1.30
  -9   3 -11    4.00    0.70
 -10   3 -11   37.00    3.00
 -11   3 -11   18.30    1.80
 -11   3 -11   18.50    1.10
   9   2 -11   20.30    1.50
  -9  -2  11   17.90    1.60
   8   2 -11    3.20    0.80
  -8  -2  11    2.20    0.90
   7   2 -11  153.38    7.00
   7   2 -11  143.29    7.00
  -7  -2  11  163.38    7.30
   6   2 -11   96.79    4.70
   6   2 -11   94.99    4.60
   6   2 -11   91.39    5.00
   6   2 -11   97.99    4.80
  -6  -2  11   99.89    5.00
   5   2 -11  120.39    5.70
   5   2 -11  120.29    6.00
   5   2 -11  116.09    5.50
   5   2 -11  115.29    5.70
  -5  -2  11  130.19    6.00
   4   2 -11   24.50    2.30
   4   2 -11   30.00    1.70
   4   2 -11   28.10    2.20
   4   2 -11   27.00    1.90
  -4  -2  11   23.90    2.10
   3   2 -11   13.20    1.10
   3   2 -11   15.40    1.80
   3   2 -11   12.60    1.20
  -3  -2  11   14.10    1.60
   2   2 -11    6.90    1.20
   2   2 -11    5.80    1.00
   2   2 -11    6.40    0.70
   2   2 -11    7.20    1.30
  -2  -2  11    8.10    1.20
   1   2 -11   74.89    3.90
   1   2 -11   74.39    3.90
   1   2 -11   70.19    3.20
   1   2 -11   78.39    4.10
  -1  -2  11   74.49    3.80
   0   2 -11    1.80    0.70
   0   2 -11    1.80    0.80
   0  -2  11    3.20    0.60
  -1   2 -11    3.70    0.90
  -1   2 -11    2.50    0.70
  -1   2 -11    1.90    0.40
  -2   2 -11  597.74   25.20
   3  -2  11  171.98    8.20
   4  -2  11    3.00    1.00
  -5   2 -11   11.00    1.70
   5  -2  11   14.20    2.00
  -6   2 -11   12.90    2.00
  -6   2 -11   16.30    1.00
  -7   2 -11   17.40    1.20
  -7   2 -11   15.30    2.30
  -8   2 -11   53.49    4.10
  -8   2 -11   52.99    2.70
  -9   2 -11    3.80    0.70
  -9   2 -11    4.60    1.40
 -10   2 -11   13.70    2.00
 -11   2 -11    3.70    0.90
 -11   2 -11    3.90    0.50
  10   1 -11    0.00    0.50
 -10  -1  11    0.40    0.50
   9   1 -11  106.39    4.90
  -9  -1  11  100.19    5.00
   8   1 -11   48.90    2.90
  -8  -1  11   53.09    3.10
   7   1 -11    1.40    0.80
  -7  -1  11    1.70    0.90
   6   1 -11   10.50    1.30
   6   1 -11   10.80    1.50
   6   1 -11    9.10    1.30
   6   1 -11   10.60    1.20
  -6  -1  11    8.20    1.30
   5   1 -11  222.98    9.80
   5   1 -11  206.98    9.50
   5   1 -11  218.98    9.50
   5   1 -11  237.58    9.40
  -5  -1  11  193.38    9.70
  -5  -1  11  211.08    9.60
   4   1 -11  225.88    9.20
   4   1 -11  210.98    9.40
   4   1 -11  214.38    9.70
  -4  -1  11  197.68    9.70
   3   1 -11   90.99    3.80
   3   1 -11   83.29    4.10
   3   1 -11   70.99    4.50
   3   1 -11   84.29    4.70
  -3  -1  11   81.29    4.50
  -3  -1  11   86.49    4.40
   2   1 -11  118.19    5.60
   2   1 -11  111.39    5.80
   2   1 -11  109.09    5.70
   2   1 -11  123.19    5.00
  -2  -1  11  112.99    5.50
  -2  -1  11  111.39    5.60
   1   1 -11   20.60    1.70
   1   1 -11   25.00    2.00
   1   1 -11   21.50    1.80
   1   1 -11   22.50    1.70
  -1  -1  11   23.10    1.60
   0   1 -11   14.40    1.50
   0   1 -11   16.20    1.60
   0   1 -11   19.20    1.50
   0   1 -11   14.80    1.10
   0  -1  11   16.00    1.00
  -1   1 -11  438.46   18.40
  -1   1 -11  434.96   18.30
  -1   1 -11  421.16   18.40
  -2   1 -11  157.98    7.80
   2  -1  11  162.88    7.60
   2  -1  11  174.38    7.40
  -3   1 -11  189.68    9.10
  -4   1 -11   19.00    2.10
  -4   1 -11   19.10    1.30
  -5   1 -11  110.49    6.10
   5  -1  11  117.19    6.40
  -6   1 -11   17.40    2.30
  -6   1 -11   18.90    1.20
  -7   1 -11   71.59    4.70
  -7   1 -11   67.59    3.30
  -8   1 -11   98.89    4.50
  -8   1 -11  100.89    5.90
  -9   1 -11   16.20    2.40
 -10   1 -11  271.47   12.40
 -11   1 -11  101.79    4.90
 -11   1 -11   97.99    4.20
  10   0 -11   86.39    4.00
 -10   0  11   82.69    4.10
   9   0 -11   50.89    2.80
  -9   0  11   47.20    2.90
   8   0 -11   67.69    3.60
  -8   0  11   64.29    3.70
   7   0 -11  118.59    5.70
   7   0 -11  123.39    6.00
  -7   0  11  115.59    5.80
   6   0 -11   26.50    2.00
   6   0 -11   25.00    2.00
   6   0 -11   27.70    2.30
   6   0 -11   31.80    1.90
  -6   0  11   22.50    2.00
   5   0 -11    5.90    0.90
   5   0 -11    6.90    1.30
   5   0 -11    5.00    1.00
   5   0 -11    4.50    0.90
  -5   0  11    4.50    1.00
  -5   0  11    4.80    1.10
   4   0 -11  593.74   25.10
   4   0 -11  635.94   24.90
  -4   0  11  576.64   25.40
   3   0 -11    3.10    1.00
   3   0 -11    2.10    0.50
   3   0 -11    2.20    0.80
   3   0 -11    1.60    0.70
  -3   0  11    2.90    0.90
  -3   0  11    1.80    0.80
   2   0 -11    1.80    0.70
   2   0 -11    1.80    0.40
   2   0 -11    1.90    0.70
   2   0 -11    1.50    0.80
  -2   0  11    1.90    0.70
  -2   0  11    2.60    0.70
   1   0 -11   23.50    1.90
   1   0 -11   22.70    1.60
   1   0 -11   21.90    1.70
  -1   0  11   22.80    1.50
  -1   0  11   21.70    1.70
   0   0 -11  540.25   21.50
   0   0 -11  503.95   20.90
   0   0 -11  487.95   21.20
   0   0  11  491.35   21.10
   0   0  11  491.15   20.70
  -1   0 -11  462.95   18.90
  -1   0 -11  425.06   19.50
   1   0  11  481.95   19.30
  -2   0 -11  162.58    6.80
  -2   0 -11  163.48    7.80
   2   0  11  151.28    7.40
  -3   0 -11    4.20    0.60
  -3   0 -11    5.10    1.30
   3   0  11    3.90    0.90
  -4   0 -11  748.43   32.10
  -5   0 -11   90.19    4.00
  -5   0 -11   87.99    5.20
  -5   0 -11   93.39    5.50
  -5   0 -11   89.79    4.40
  -6   0 -11  214.68    9.10
  -6   0 -11  207.78   10.40
  -6   0 -11  217.48    9.50
  -7   0 -11  129.49    6.00
  -7   0 -11  126.89    7.00
  -7   0 -11  122.99    5.60
  -8   0 -11   16.30    1.60
  -8   0 -11   18.30    2.60
  -8   0 -11   14.60    1.30
  -9   0 -11   13.20    1.90
   9   0  11    9.30    1.10
 -10   0 -11   17.90    1.10
 -10   0 -11   19.40    2.00
  11  -1 -11   67.99    3.20
  10  -1 -11    9.10    1.00
 -10   1  11    7.30    1.00
   9  -1 -11   19.90    1.80
  -9   1  11   24.10    1.90
   8  -1 -11   41.90    2.80
   8  -1 -11   40.00    2.60
  -8   1  11   42.50    2.80
   7  -1 -11   33.90    2.60
   7  -1 -11   38.70    2.40
  -7   1  11   30.10    2.30
   6  -1 -11   39.70    2.20
   6  -1 -11   35.80    2.70
   6  -1 -11   36.40    2.30
   6  -1 -11   33.60    2.30
   5  -1 -11  154.18    7.10
   5  -1 -11  156.98    6.90
   5  -1 -11  152.38    7.10
   5  -1 -11  160.48    7.40
  -5   1  11  157.88    7.40
   4  -1 -11    4.00    0.70
   4  -1 -11    4.50    1.20
   4  -1 -11    2.70    0.80
  -4   1  11    3.80    1.30
  -4   1  11    2.50    0.90
   3  -1 -11   14.10    1.70
   3  -1 -11   13.90    1.50
   3  -1 -11   17.50    1.10
   3  -1 -11   14.70    1.80
  -3   1  11   17.10    1.60
  -3   1  11   14.00    1.50
   2  -1 -11    8.50    1.20
   2  -1 -11    8.90    0.70
   2  -1 -11    9.10    1.20
   2  -1 -11    7.50    1.20
  -2   1  11    9.60    1.20
  -2   1  11    8.90    1.10
   1  -1 -11  433.66   18.40
   1  -1 -11  418.56   18.10
  -1   1  11  436.36   18.10
  -1   1  11  420.96   17.90
   0  -1 -11  354.56   15.30
   0  -1 -11  363.46   15.80
   0   1  11  366.06   15.40
   0   1  11  364.06   15.10
  -1  -1 -11   39.70    2.10
  -1  -1 -11   38.80    2.70
  -1  -1 -11   40.70    2.70
   1   1  11   36.60    2.50
   1   1  11   38.90    2.00
   1   1  11   39.20    2.30
  -2  -1 -11   16.90    2.00
  -2  -1 -11   15.90    1.20
   2   1  11   17.30    1.70
  -3  -1 -11   98.49    4.60
  -3  -1 -11   95.59    5.50
   3   1  11   95.59    5.10
  -4  -1 -11  129.59    5.70
  -4  -1 -11  124.59    6.90
  -5  -1 -11  441.36   17.50
  -5  -1 -11  400.76   18.70
  -5  -1 -11  421.96   17.90
  -6  -1 -11   51.79    3.10
  -6  -1 -11   54.49    2.70
  -6  -1 -11   52.29    3.90
  -7  -1 -11  379.66   16.30
  -7  -1 -11  409.56   16.70
  -7  -1 -11  384.06   17.70
  -8  -1 -11  201.38    9.60
  -8  -1 -11  186.48    8.20
  -8  -1 -11  181.68    8.50
  -9  -1 -11   20.60    2.40
   9   1  11   23.60    1.60
 -10  -1 -11  127.59    5.50
 -10  -1 -11  134.99    6.40
  10   1  11  131.49    5.70
  11  -2 -11    8.90    0.90
  10  -2 -11    9.10    1.10
   9  -2 -11    2.70    0.90
   8  -2 -11   26.50    2.30
   8  -2 -11   24.50    2.00
   7  -2 -11    9.90    1.50
   7  -2 -11    9.70    1.30
   6  -2 -11  176.98    7.80
   6  -2 -11  175.68    8.10
   6  -2 -11  171.48    7.70
   6  -2 -11  163.88    7.60
   5  -2 -11   20.80    1.90
   5  -2 -11   22.10    1.50
   5  -2 -11   18.80    1.60
   5  -2 -11   18.50    1.60
  -5   2  11   20.10    1.90
   4  -2 -11  161.48    6.50
   4  -2 -11  141.79    7.40
   4  -2 -11  144.99    6.70
  -4   2  11  145.89    7.00
  -4   2  11  140.59    8.00
   3  -2 -11   32.30    1.70
   3  -2 -11   29.20    2.30
   3  -2 -11   26.70    2.30
  -3   2  11   28.40    2.20
  -3   2  11   32.30    2.20
   2  -2 -11  752.92   30.20
   2  -2 -11  698.83   30.00
   2  -2 -11  708.83   29.20
  -2   2  11  721.13   29.80
  -2   2  11  689.33   29.80
   1  -2 -11   49.90    3.10
   1  -2 -11   48.80    2.80
   1  -2 -11   47.50    2.20
  -1   2  11   47.50    2.70
  -1   2  11   45.80    2.60
   0  -2 -11  618.64   27.60
   0  -2 -11  682.13   27.10
   0  -2 -11  653.63   27.60
   0   2  11  630.44   27.00
   0   2  11  664.33   27.10
  -1  -2 -11    9.50    1.10
  -1  -2 -11   10.40    1.60
   1   2  11    9.40    1.40
   1   2  11   11.00    1.10
  -2  -2 -11    3.20    0.70
  -2  -2 -11    3.20    1.10
   2   2  11    2.90    0.90
   2   2  11    2.90    0.70
  -3  -2 -11  302.67   14.20
  -3  -2 -11  313.27   12.80
  -4  -2 -11  482.45   22.10
  -4  -2 -11  526.15   23.00
  -4  -2 -11  580.64   21.80
  -4  -2 -11  513.45   23.30
  -5  -2 -11   46.70    3.60
  -5  -2 -11   49.40    2.90
  -5  -2 -11   52.59    2.50
  -6  -2 -11   30.80    2.20
  -6  -2 -11   28.70    1.80
  -6  -2 -11   29.90    3.00
  -7  -2 -11   30.00    2.30
  -7  -2 -11   30.50    3.10
  -7  -2 -11   32.00    1.90
  -8  -2 -11  284.57   12.60
  -8  -2 -11  299.27   13.50
  -9  -2 -11  115.69    4.90
  -9  -2 -11  118.19    5.90
   9   2  11  106.09    5.10
 -10  -2 -11   31.00    1.50
 -10  -2 -11   32.40    2.50
  11  -3 -11   78.99    3.70
  10  -3 -11    3.10    0.80
   9  -3 -11   18.30    1.80
  -9   3  11   22.00    1.70
   8  -3 -11   29.00    2.20
   8  -3 -11   30.60    2.50
   7  -3 -11    6.10    1.30
   7  -3 -11    7.30    1.20
   6  -3 -11  235.58   10.40
   6  -3 -11  225.18    9.90
   6  -3 -11  225.78   10.00
   5  -3 -11    3.60    0.90
   5  -3 -11    4.40    0.80
   5  -3 -11    5.90    1.00
   5  -3 -11    3.70    1.00
  -5   3  11    5.30    1.10
   4  -3 -11   92.19    4.30
   4  -3 -11   94.19    4.50
  -4   3  11   94.59    4.90
   3  -3 -11   74.19    4.60
   3  -3 -11   76.19    4.30
   3  -3 -11   67.99    3.40
  -3   3  11   70.69    3.90
  -3   3  11   75.99    4.10
   2  -3 -11   99.59    4.50
   2  -3 -11  107.19    5.30
   2  -3 -11  102.39    5.40
  -2   3  11  103.69    5.00
  -2   3  11   94.09    5.00
   1  -3 -11   25.40    2.20
   1  -3 -11   25.80    2.00
   1  -3 -11   27.80    1.40
   1  -3 -11   26.40    2.30
  -1   3  11   26.50    1.90
  -1   3  11   25.30    1.90
   0  -3 -11  246.08   10.80
   0  -3 -11  228.68   10.40
   0  -3 -11  229.88    9.70
   0  -3 -11  251.37   11.00
   0   3  11  221.28   10.30
   0   3  11  222.28   10.60
   0   3  11  233.38   10.20
  -1  -3 -11    9.20    1.20
  -1  -3 -11   10.40    1.70
  -1  -3 -11    8.60    0.70
   1   3  11   10.10    1.20
  -2  -3 -11   48.10    2.80
  -2  -3 -11   60.39    3.90
  -2  -3 -11   53.89    2.50
  -3  -3 -11  190.78    9.20
  -3  -3 -11  170.68    8.00
  -3  -3 -11  179.58    7.70
  -4  -3 -11  485.95   20.60
  -4  -3 -11  512.25   21.90
  -5  -3 -11  120.99    5.30
  -5  -3 -11  111.89    6.40
  -5  -3 -11  115.49    5.60
  -6  -3 -11  115.49    5.70
  -6  -3 -11  117.39    5.30
  -6  -3 -11  119.99    6.60
  -7  -3 -11  280.47   11.80
  -7  -3 -11  282.77   13.00
  -7  -3 -11  269.87   12.10
  -8  -3 -11    0.60    0.70
  -8  -3 -11    2.90    0.60
  -8  -3 -11    1.50    1.00
  -9  -3 -11  160.78    6.80
  -9  -3 -11  155.38    7.60
   9   3  11  169.48    7.00
  11  -4 -11   19.50    1.40
  10  -4 -11   92.69    4.30
 -10   4  11   82.19    4.10
   9  -4 -11    7.40    1.20
  -9   4  11    8.40    1.10
   8  -4 -11  239.48   10.50
   7  -4 -11   64.39    3.80
   7  -4 -11   62.49    3.50
   6  -4 -11  108.59    5.20
   6  -4 -11  101.09    5.40
   6  -4 -11  109.09    5.00
   5  -4 -11  256.17   11.70
   5  -4 -11  282.07   11.60
   5  -4 -11  272.27   11.80
   5  -4 -11  273.97   12.10
  -5   4  11  271.87   12.10
   4  -4 -11  255.77   12.20
   4  -4 -11  274.97   11.90
   4  -4 -11  279.37   11.70
  -4   4  11  283.27   12.20
   3  -4 -11   46.70    3.50
   3  -4 -11   47.90    2.40
   3  -4 -11   46.20    2.70
  -3   4  11   49.60    3.00
   2  -4 -11   39.40    2.80
   2  -4 -11   44.50    2.10
   2  -4 -11   39.90    2.40
  -2   4  11   39.00    2.70
  -2   4  11   39.80    2.50
   1  -4 -11  227.48   10.30
   1  -4 -11  226.98    9.50
   1  -4 -11  224.68    9.80
   1  -4 -11  215.28   10.60
  -1   4  11  224.68    9.90
  -1   4  11  221.08   10.20
   0  -4 -11  327.77   15.60
   0  -4 -11  345.97   14.30
   0  -4 -11  360.76   15.70
   0  -4 -11  345.17   14.70
  -1  -4 -11   91.69    4.70
  -1  -4 -11  100.89    4.40
  -1  -4 -11  100.39    5.70
  -2  -4 -11  246.48   10.20
  -2  -4 -11  241.68   10.60
  -2  -4 -11  235.58   10.50
  -2  -4 -11  241.68   11.70
  -3  -4 -11  555.74   23.10
  -3  -4 -11  560.84   23.50
  -4  -4 -11   54.89    3.20
  -4  -4 -11   51.29    3.90
  -4  -4 -11   54.89    2.80
  -5  -4 -11   37.40    3.30
  -5  -4 -11   42.30    2.70
  -5  -4 -11   42.10    2.30
  -6  -4 -11  326.07   13.50
  -6  -4 -11  303.47   13.10
  -6  -4 -11  305.47   14.40
  -7  -4 -11   43.00    2.60
  -7  -4 -11   42.80    3.30
  -7  -4 -11   42.00    2.20
  -8  -4 -11   40.70    2.90
  -8  -4 -11   40.20    2.00
  -8  -4 -11   44.50    2.40
  -9  -4 -11    3.40    0.40
  11  -5 -11   15.90    1.20
  10  -5 -11   19.10    1.60
 -10   5  11   18.90    1.60
   9  -5 -11  149.09    7.10
  -9   5  11  165.68    7.20
   8  -5 -11    4.50    1.00
  -8   5  11    3.20    1.00
   7  -5 -11   20.80    1.90
   6  -5 -11  276.17   12.60
   6  -5 -11  288.27   12.20
   6  -5 -11  280.17   12.10
   5  -5 -11    5.00    1.00
   5  -5 -11    4.80    1.20
   5  -5 -11    7.90    0.90
   5  -5 -11    4.70    1.00
   4  -5 -11  110.29    5.20
   4  -5 -11  107.59    5.40
   4  -5 -11  108.09    4.90
   4  -5 -11   98.79    5.00
  -4   5  11  110.69    5.50
   3  -5 -11   56.79    3.10
   3  -5 -11   59.49    3.00
   3  -5 -11   58.69    3.20
  -3   5  11   59.59    3.50
   2  -5 -11  129.09    6.00
   2  -5 -11  112.89    6.70
   2  -5 -11  142.59    5.80
  -2   5  11  128.79    6.20
   1  -5 -11    2.30    0.80
   1  -5 -11    3.70    1.30
   1  -5 -11    3.20    0.60
  -1   5  11    2.00    0.70
   0  -5 -11    1.10    0.50
   0  -5 -11    1.40    1.10
   0  -5 -11    2.30    0.80
   0  -5 -11    2.00    0.80
  -1  -5 -11  330.37   13.70
  -1  -5 -11  312.07   15.10
  -1  -5 -11  336.37   14.10
  -2  -5 -11  178.68    7.80
  -2  -5 -11  165.08    7.80
  -2  -5 -11  171.58    7.50
  -3  -5 -11    3.60    1.00
  -3  -5 -11    3.90    1.00
  -3  -5 -11    4.80    0.80
  -4  -5 -11    2.90    0.90
  -4  -5 -11    1.00    1.20
  -4  -5 -11    1.50    0.60
  -5  -5 -11    7.40    1.20
  -5  -5 -11    2.70    1.40
  -5  -5 -11    4.00    0.80
  -6  -5 -11   85.59    4.10
  -6  -5 -11   91.29    4.50
  -6  -5 -11   94.59    5.30
  -7  -5 -11   48.20    3.20
  -7  -5 -11   43.50    2.20
  -7  -5 -11   44.70    2.60
  -8  -5 -11    1.10    0.40
  -8  -5 -11    0.70    0.70
   8   5  11    0.80    0.50
  10  -6 -11   84.59    4.00
 -10   6  11   81.89    4.00
   9  -6 -11  143.39    6.70
  -9   6  11  151.88    6.80
   8  -6 -11  145.69    6.60
  -8   6  11  141.39    6.70
   7  -6 -11    5.20    1.00
  -7   6  11    5.40    1.10
   6  -6 -11   82.49    4.20
  -6   6  11   83.09    4.30
   5  -6 -11    6.10    1.10
   5  -6 -11    6.70    0.90
   5  -6 -11    6.10    1.10
  -5   6  11    7.20    1.10
   4  -6 -11  146.29    6.80
   4  -6 -11  144.89    6.70
   4  -6 -11  144.99    6.50
  -4   6  11  146.79    6.70
   3  -6 -11   50.79    4.90
   3  -6 -11   57.19    2.80
   3  -6 -11   52.29    2.90
   3  -6 -11   53.09    3.10
  -3   6  11   49.60    3.20
  -3   6  11   51.59    3.00
   2  -6 -11   47.00    2.50
   2  -6 -11   47.30    2.70
   2  -6 -11   46.90    2.80
   2  -6 -11   49.60    3.60
  -2   6  11   44.50    2.90
   1  -6 -11    0.80    0.50
   1  -6 -11    1.00    1.10
   1  -6 -11    1.00    0.70
   1  -6 -11    1.20    0.80
   0  -6 -11  476.65   20.30
   0  -6 -11  482.95   20.50
   0  -6 -11  488.25   20.10
  -1  -6 -11  176.88    7.90
  -1  -6 -11  171.98    8.00
  -1  -6 -11  174.08    7.60
  -2  -6 -11  273.97   11.70
  -2  -6 -11  292.67   12.10
  -2  -6 -11  256.87   11.90
  -3  -6 -11    2.00    0.90
  -3  -6 -11    5.10    0.90
   3   6  11    3.50    0.80
  -4  -6 -11    3.10    1.00
  -4  -6 -11    3.80    0.80
  -4  -6 -11    5.30    1.50
  -5  -6 -11   13.70    1.20
  -5  -6 -11   14.00    1.50
  -5  -6 -11   13.50    1.90
  -6  -6 -11   37.60    2.40
  -6  -6 -11   40.30    2.00
  -6  -6 -11   39.40    3.00
  -7  -6 -11   27.90    1.40
  -7  -6 -11   25.10    2.10
  -7  -6 -11   26.60    1.70
 -10   7  11  172.08    7.60
  -9   7  11    2.00    0.80
   8  -7 -11   48.40    2.70
  -8   7  11   44.80    2.90
   7  -7 -11  231.98   10.20
  -7   7  11  233.48   10.40
   6  -7 -11   76.49    3.90
  -6   7  11   72.19    3.90
   5  -7 -11   22.40    1.90
   5  -7 -11   23.30    2.00
  -5   7  11   23.70    1.90
   4  -7 -11  218.38    9.60
   4  -7 -11  215.98    9.50
   4  -7 -11  221.48    9.80
  -4   7  11  217.28    9.60
   3  -7 -11   15.80    1.60
   3  -7 -11   15.80    1.40
   3  -7 -11   14.80    1.60
   2  -7 -11    9.80    1.40
   2  -7 -11   10.30    1.30
   2  -7 -11   10.40    1.10
   1  -7 -11  129.39    6.20
   1  -7 -11  130.89    6.00
   1  -7 -11  140.29    6.40
   0  -7 -11    3.90    0.80
   0  -7 -11    4.70    1.10
   0  -7 -11    7.20    1.10
  -1  -7 -11  113.69    5.10
  -1  -7 -11  107.69    5.30
  -1  -7 -11  102.09    5.30
  -2  -7 -11   17.40    1.80
  -2  -7 -11   19.30    1.50
   2   7  11   21.30    1.70
  -3  -7 -11    3.90    0.80
  -3  -7 -11    3.80    0.70
  -3  -7 -11    4.70    1.00
   3   7  11    5.10    0.90
  -4  -7 -11   71.39    4.40
  -4  -7 -11   67.59    3.70
  -4  -7 -11   71.09    3.30
  -5  -7 -11   15.80    1.20
  -5  -7 -11   15.50    1.50
  -5  -7 -11   17.60    2.00
  -6  -7 -11    8.00    1.20
  -6  -7 -11    8.60    0.70
  -6  -7 -11    8.00    0.90
 -10   8  11    6.00    0.90
  -9   8  11   19.10    1.70
   8  -8 -11   83.99    3.70
  -8   8  11   84.69    4.30
   7  -8 -11   82.69    3.80
  -7   8  11   88.59    4.50
  -6   8  11  595.14   25.00
   5  -8 -11  232.48   10.20
  -5   8  11  227.48   10.20
   4  -8 -11    8.40    1.30
   4  -8 -11    8.20    0.90
  -4   8  11    8.40    1.20
   3  -8 -11   35.90    2.10
   3  -8 -11   35.40    2.20
   3  -8 -11   39.70    2.60
   2  -8 -11   12.20    1.30
   2  -8 -11   13.00    1.60
   2  -8 -11   10.70    1.30
   2  -8 -11    9.90    1.00
   1  -8 -11  102.59    4.70
   1  -8 -11   97.89    4.50
   1  -8 -11   93.59    4.80
   1  -8 -11  102.89    5.10
   0  -8 -11   35.60    2.30
   0  -8 -11   35.40    2.00
   0  -8 -11   32.30    2.10
  -1  -8 -11    0.10    0.60
  -1  -8 -11    0.40    0.80
  -1  -8 -11    1.20    0.60
   1   8  11    0.70    0.80
  -2  -8 -11    4.30    1.00
  -2  -8 -11    3.50    0.80
  -2  -8 -11    3.00    0.70
   2   8  11    2.60    0.80
  -3  -8 -11  112.59    5.40
  -3  -8 -11  110.29    5.00
   3   8  11  122.69    5.30
  -4  -8 -11  166.88    7.50
  -4  -8 -11  173.08    7.10
  -4  -8 -11  164.28    8.00
  -5  -8 -11    5.30    0.70
  -5  -8 -11    5.60    1.00
 -10   9  11    5.30    0.80
  -9   9  11    6.60    1.00
  -8   9  11    6.70    1.10
   7  -9 -11  214.98    9.20
  -7   9  11  227.08    9.80
   6  -9 -11   42.10    2.20
  -6   9  11   42.30    2.60
   5  -9 -11   85.29    3.70
   5  -9 -11   80.49    4.10
  -5   9  11   72.59    4.00
   4  -9 -11  241.08   10.10
   4  -9 -11  238.08   10.60
   3  -9 -11   36.10    2.10
   3  -9 -11   35.90    2.60
   2  -9 -11    5.40    0.80
   2  -9 -11    2.90    1.10
   1  -9 -11   59.99    3.00
  -1   9  11   61.09    3.30
   0  -9 -11    4.10    0.70
   0   9  11    3.70    1.00
  -1  -9 -11    2.10    0.60
   1   9  11    2.40    0.80
  -2  -9 -11   20.80    1.40
   2   9  11   21.00    1.60
  -3  -9 -11   74.99    3.30
   3   9  11   70.59    3.50
  -4  -9 -11   34.40    1.60
  -9  10  11    1.30    0.60
  -8  10  11   51.59    2.80
  -7  10  11   10.10    1.20
   6 -10 -11   52.89    2.50
  -6  10  11   54.29    3.00
   5 -10 -11    1.80    0.50
   4 -10 -11  419.06   17.00
  -4  10  11  401.66   17.30
   3 -10 -11   28.80    1.70
  -3  10  11   29.90    2.00
   2 -10 -11    3.20    0.70
  -2  10  11    3.70    0.90
   1 -10 -11   11.80    1.00
  -1  10  11   10.30    1.20
   0 -10 -11    2.40    0.60
   0  10  11    1.80    0.80
  -1 -10 -11   59.59    2.80
   1  10  11   60.39    3.10
  -2 -10 -11   83.79    3.60
   2  10  11   82.69    3.90
  -3 -10 -11  140.69    5.80
  -8  11  11    1.20    0.60
  -7  11  11    4.00    0.80
  -6  11  11    1.80    0.70
   4 -11 -11   68.89    3.00
  -4  11  11   69.89    3.40
   3 -11 -11  146.29    6.20
  -3  11  11  148.99    6.60
   2 -11 -11   82.49    3.60
  -2  11  11   83.19    4.00
   1 -11 -11    9.50    0.80
  -1  11  11    8.10    1.00
   0 -11 -11    0.50    0.30
   0  11  11    0.30    0.50
   1  11  11   55.79    3.00
  -3  12 -12   19.40    1.50
  -4  12 -12   57.29    3.00
   4 -12  12   55.39    3.20
  -5  12 -12   52.09    2.80
   5 -12  12   54.69    3.40
   0  11 -12    3.40    0.70
  -1  11 -12   44.80    2.80
  -1  11 -12   42.40    2.50
  -2  11 -12    0.70    0.70
  -2  11 -12    1.70    1.10
  -3  11 -12   21.30    1.80
  -3  11 -12   19.60    2.20
   3 -11  12   20.20    2.40
  -4  11 -12  113.49    5.40
  -4  11 -12  114.59    5.50
   4 -11  12   98.39    6.40
  -5  11 -12   36.40    2.60
  -5  11 -12   38.20    2.50
  -5  11 -12   39.10    3.50
  -6  11 -12   67.49    3.60
  -6  11 -12   74.09    4.60
  -6  11 -12   69.49    3.80
  -7  11 -12  179.58    8.00
  -7  11 -12  171.88    7.80
  -7  11 -12  176.88    8.60
  -8  11 -12    4.10    1.30
   2  10 -12   46.90    2.40
  -2 -10  12   44.40    2.70
   1  10 -12   17.60    1.80
   1  10 -12   15.70    1.40
   1  10 -12   17.10    1.50
   0  10 -12  168.88    7.90
   0  10 -12  164.78    7.40
   0  10 -12  168.38    7.70
  -1  10 -12   91.09    5.10
  -1  10 -12   97.19    4.90
  -2  10 -12    2.80    1.30
  -2  10 -12    0.90    0.90
   2 -10  12    0.70    1.40
  -3  10 -12   29.10    2.40
  -3  10 -12   31.90    2.70
  -4  10 -12  128.29    6.20
  -4  10 -12  125.39    7.10
  -4  10 -12  125.79    6.30
  -5  10 -12   14.80    1.70
  -5  10 -12   14.30    2.30
  -5  10 -12   14.70    1.80
  -6  10 -12   34.40    2.50
  -6  10 -12   38.90    3.60
  -6  10 -12   35.70    2.60
  -7  10 -12    5.00    1.10
  -7  10 -12    4.70    1.60
  -7  10 -12    4.10    0.90
  -8  10 -12   23.30    1.90
  -8  10 -12   23.80    2.70
  -9  10 -12   62.39    3.80
   3   9 -12   14.00    1.30
  -3  -9  12   13.30    1.40
   2   9 -12  177.38    8.00
   2   9 -12  183.18    8.40
   1   9 -12    5.40    1.10
   1   9 -12    6.20    1.50
   1   9 -12    5.30    1.00
   0   9 -12    4.70    1.50
   0   9 -12    3.30    0.90
   0   9 -12    2.30    1.00
  -1   9 -12   88.29    4.70
  -1   9 -12   80.89    4.10
  -1   9 -12   91.19    5.10
  -2   9 -12  113.79    6.80
  -2   9 -12  116.29    5.40
  -2   9 -12  128.09    6.30
  -2   9 -12  116.09    6.00
  -3   9 -12    8.00    2.10
  -3   9 -12    7.30    1.50
  -3   9 -12    8.10    1.00
  -3   9 -12   10.10    1.50
  -4   9 -12   98.79    4.70
  -4   9 -12  105.69    5.60
  -4   9 -12  104.69    6.30
  -4   9 -12  105.99    5.40
  -5   9 -12   37.70    2.70
  -5   9 -12   35.30    2.10
  -5   9 -12   40.40    3.70
  -5   9 -12   38.70    2.90
  -6   9 -12  105.29    5.40
  -6   9 -12  100.09    6.10
  -6   9 -12  102.49    5.20
  -7   9 -12  128.99    7.20
  -7   9 -12  137.59    6.60
  -8   9 -12   58.49    3.40
  -8   9 -12   57.99    4.00
  -9   9 -12    6.10    1.30
  -9   9 -12    6.30    1.10
 -10   9 -12   11.00    2.20
   4   8 -12    0.80    0.70
  -4  -8  12    0.90    0.70
   3   8 -12  130.89    6.00
  -3  -8  12  124.69    6.10
   2   8 -12   11.90    1.50
   2   8 -12   12.70    1.90
   2   8 -12   11.50    1.40
   1   8 -12    3.10    1.00
   1   8 -12    3.60    0.80
   1   8 -12    1.90    1.10
   1   8 -12    2.10    1.40
   0   8 -12  100.49    4.90
   0   8 -12  102.49    5.10
   0   8 -12  103.19    5.40
   0   8 -12  113.79    5.90
  -1   8 -12  161.88    7.60
  -1   8 -12  154.98    7.00
  -1   8 -12  159.48    7.90
  -2   8 -12   23.40    2.30
  -2   8 -12   23.60    2.50
  -3   8 -12   33.60    2.70
  -3   8 -12   37.70    2.90
  -3   8 -12   40.40    3.70
  -3   8 -12   37.70    2.10
  -4   8 -12   34.70    2.00
  -4   8 -12   36.00    2.70
  -4   8 -12   35.60    2.90
  -4   8 -12   31.90    3.30
  -5   8 -12   29.00    3.00
  -5   8 -12   26.10    1.60
  -5   8 -12   27.00    2.50
  -5   8 -12   26.70    2.30
  -6   8 -12    0.80    1.20
  -6   8 -12    1.10    1.00
  -6   8 -12    0.70    0.50
  -6   8 -12    1.00    0.90
  -7   8 -12  276.97   12.70
  -7   8 -12  301.57   13.50
  -7   8 -12  277.37   12.00
  -8   8 -12   64.39    3.80
  -8   8 -12   64.69    4.40
  -9   8 -12    3.00    1.20
  -9   8 -12    3.40    0.90
 -10   8 -12   27.80    2.50
 -10   8 -12   25.40    2.20
  -6  -7  12    1.10    0.80
   5   7 -12   47.00    2.70
  -5  -7  12   53.09    2.90
   4   7 -12    9.90    1.20
  -4  -7  12   10.70    1.40
   3   7 -12    5.80    1.50
   3   7 -12    7.50    1.00
   3   7 -12    6.60    1.10
   2   7 -12   32.40    3.10
   2   7 -12   31.60    2.50
   2   7 -12   38.00    2.50
   2   7 -12   32.80    2.10
   1   7 -12   20.70    1.60
   1   7 -12   20.90    2.50
   1   7 -12   18.90    1.90
   1   7 -12   19.70    2.10
   0   7 -12   26.40    2.10
   0   7 -12   27.90    2.40
   0   7 -12   29.20    2.00
   0   7 -12   26.90    2.80
  -1   7 -12    5.80    1.30
  -1   7 -12    3.40    1.20
  -1   7 -12    4.20    0.80
  -2   7 -12    3.60    1.20
  -2   7 -12    5.00    0.80
  -2   7 -12    4.30    1.20
  -3   7 -12    3.60    0.70
  -3   7 -12    5.90    1.40
  -3   7 -12    1.60    1.00
  -3   7 -12    3.90    1.40
  -4   7 -12  176.88    7.80
  -4   7 -12  194.28    8.70
  -4   7 -12  180.38    9.20
  -4   7 -12  179.68    8.50
  -5   7 -12  159.68    7.70
  -5   7 -12  160.48    8.40
  -5   7 -12  163.68    7.00
  -5   7 -12  166.28    7.90
  -6   7 -12  187.68    8.00
  -6   7 -12  183.68    8.80
  -6   7 -12  181.28    9.40
  -7   7 -12   26.90    2.50
  -7   7 -12   27.00    1.70
  -7   7 -12   28.40    3.10
  -8   7 -12    4.20    1.20
  -8   7 -12    7.10    1.70
  -9   7 -12    1.30    1.10
  -9   7 -12    2.00    0.90
 -10   7 -12   38.20    2.40
 -10   7 -12   38.60    2.90
   6   6 -12    3.90    0.80
  -6  -6  12    4.30    0.90
   5   6 -12   79.39    4.00
  -5  -6  12   75.09    4.10
   4   6 -12    8.60    1.30
   4   6 -12   13.10    1.50
  -4  -6  12    8.90    1.40
   3   6 -12   73.79    3.70
   3   6 -12   74.49    4.20
   3   6 -12   77.39    4.00
   3   6 -12   73.09    4.60
   2   6 -12  140.29    6.80
   2   6 -12  124.29    6.30
   2   6 -12  116.89    5.70
   2   6 -12  126.69    6.00
   1   6 -12  197.78    9.10
   1   6 -12  193.98    9.40
   1   6 -12  189.88    8.60
   1   6 -12  205.18    8.90
   0   6 -12  177.98    7.70
   0   6 -12  179.78    8.30
   0   6 -12  171.68    8.00
   0   6 -12  182.58    8.60
  -1   6 -12   34.30    2.70
  -1   6 -12   35.10    2.60
  -1   6 -12   35.20    1.90
  -2   6 -12   41.40    2.80
  -2   6 -12   38.30    2.00
  -2   6 -12   41.80    2.90
  -3   6 -12  176.08    7.40
  -3   6 -12  174.78    8.10
  -3   6 -12  159.98    8.50
  -3   6 -12  183.48    8.30
  -4   6 -12  102.29    5.40
  -4   6 -12  112.59    4.70
  -4   6 -12  110.99    5.60
  -4   6 -12  103.09    6.00
  -5   6 -12   55.89    4.00
  -5   6 -12   55.79    2.70
  -5   6 -12   62.29    3.60
  -6   6 -12    4.20    1.20
  -6   6 -12    3.70    1.40
  -6   6 -12    4.90    0.70
  -7   6 -12    2.90    0.60
  -7   6 -12    2.60    1.40
  -7   6 -12    2.40    1.10
  -8   6 -12    1.70    0.50
  -8   6 -12    1.10    1.00
  -8   6 -12    1.20    1.30
  -9   6 -12   28.40    2.90
  -9   6 -12   31.10    2.40
 -10   6 -12    0.30    0.70
 -10   6 -12    1.10    1.00
 -11   6 -12   32.20    2.40
   7   5 -12    1.80    0.60
  -7  -5  12    2.80    0.80
   6   5 -12    6.10    1.00
  -6  -5  12    7.10    1.20
   5   5 -12  176.68    7.90
  -5  -5  12  172.38    8.10
   4   5 -12   44.60    2.70
   4   5 -12   40.80    2.40
   4   5 -12   39.30    2.90
   4   5 -12   44.60    3.30
   3   5 -12   -0.10    1.20
   3   5 -12    1.40    1.00
   3   5 -12    0.40    0.80
   3   5 -12    1.40    0.70
   2   5 -12  148.29    7.10
   2   5 -12  167.28    7.70
   2   5 -12  145.99    6.80
   2   5 -12  153.88    7.30
   1   5 -12   22.60    1.60
   1   5 -12   21.30    2.00
   1   5 -12   21.30    2.40
   1   5 -12   22.70    1.90
   0   5 -12 1271.77   50.49
   0   5 -12 1247.18   51.19
   0   5 -12 1198.78   50.69
   0   5 -12 1188.48   50.89
  -1   5 -12  245.18   10.40
  -1   5 -12  252.37   11.20
  -1   5 -12  246.28   11.10
  -1   5 -12  251.47   11.40
  -2   5 -12    6.10    1.20
  -2   5 -12    5.80    1.30
  -2   5 -12    6.20    0.60
  -2   5 -12    7.10    1.20
  -3   5 -12    1.90    0.90
  -3   5 -12    3.30    1.00
  -3   5 -12    3.60    1.00
  -4   5 -12   57.19    3.40
  -4   5 -12   56.99    3.90
  -5   5 -12   15.00    2.20
  -5   5 -12   14.10    1.70
  -6   5 -12   19.10    2.60
  -6   5 -12   23.10    2.20
  -6   5 -12   20.70    1.30
  -7   5 -12  117.29    5.40
  -7   5 -12  124.29    6.20
  -7   5 -12  129.29    7.00
  -8   5 -12  114.59    5.30
  -8   5 -12  121.29    6.80
  -8   5 -12  126.99    6.10
  -9   5 -12   85.89    5.10
  -9   5 -12   77.39    4.30
 -10   5 -12   32.30    2.20
 -10   5 -12   31.60    2.70
 -11   5 -12   28.00    2.10
  -8  -4  12    0.50    0.60
   7   4 -12   21.10    1.70
  -7  -4  12   20.70    1.80
   6   4 -12  229.48   10.40
  -6  -4  12  243.38   10.60
   5   4 -12   38.10    2.50
   5   4 -12   32.50    2.10
   5   4 -12   31.30    2.50
  -5  -4  12   35.20    2.60
   4   4 -12   94.19    5.20
   4   4 -12   88.39    4.40
   4   4 -12   87.39    4.90
   4   4 -12   94.89    4.60
   3   4 -12   10.90    1.30
   3   4 -12   11.80    1.20
   3   4 -12   12.90    1.70
   3   4 -12   12.50    1.90
   2   4 -12   58.29    3.60
   2   4 -12   66.29    3.10
   2   4 -12   59.29    3.30
   2   4 -12   59.09    3.90
   1   4 -12  484.15   20.00
   1   4 -12  438.76   19.10
   1   4 -12  464.45   19.50
   1   4 -12  466.05   20.20
   1   4 -12  464.25   19.80
   0   4 -12  301.07   13.40
   0   4 -12  311.87   13.50
   0   4 -12  299.17   13.70
   0   4 -12  297.17   13.10
   0   4 -12  315.67   12.70
  -1   4 -12  283.97   12.80
  -1   4 -12  286.57   12.60
  -2   4 -12    6.30    1.30
  -2   4 -12    6.20    1.10
  -3   4 -12   42.00    2.70
  -4   4 -12   76.19    4.60
  -4   4 -12   81.49    4.20
  -5   4 -12   23.90    2.00
  -5   4 -12   20.00    2.40
  -6   4 -12  123.29    6.20
  -6   4 -12  126.79    6.80
  -7   4 -12  142.19    6.90
  -7   4 -12  141.09    6.20
  -7   4 -12  142.49    7.60
  -8   4 -12    4.00    0.70
  -8   4 -12    2.50    1.40
  -8   4 -12    3.60    1.10
  -9   4 -12  411.86   17.60
  -9   4 -12  405.36   18.30
 -10   4 -12  195.88    9.40
 -11   4 -12   10.50    1.40
  -8  -3  12   13.60    1.50
   7   3 -12  218.78    9.60
  -7  -3  12  219.68    9.80
   6   3 -12  130.79    6.30
  -6  -3  12  136.79    6.50
   5   3 -12    6.40    1.30
   5   3 -12    4.50    1.10
   5   3 -12    5.70    0.90
  -5  -3  12    4.70    1.10
   4   3 -12    4.80    0.90
   4   3 -12    4.60    1.00
   4   3 -12    4.90    1.20
   4   3 -12    4.80    1.30
   3   3 -12  180.48    8.80
   3   3 -12  188.98    9.00
   3   3 -12  196.88    8.60
   3   3 -12  193.68    8.30
   2   3 -12  288.37   12.50
   2   3 -12  314.47   13.40
   2   3 -12  308.77   13.20
   2   3 -12  291.47   13.50
   2   3 -12  294.17   12.80
   1   3 -12    2.20    0.50
   1   3 -12    2.50    1.10
   1   3 -12    2.10    0.80
   1   3 -12    2.50    1.00
   0   3 -12  163.58    7.60
   0   3 -12  176.78    7.90
   0   3 -12  169.98    8.20
   0  -3  12  174.68    8.00
  -1   3 -12  243.78   10.60
  -1   3 -12  250.87   11.20
   1  -3  12  243.98   10.50
  -2   3 -12   60.59    3.40
  -2   3 -12   62.69    3.60
  -3   3 -12   89.89    4.50
  -4   3 -12    3.80    1.10
  -4   3 -12    4.50    1.00
  -5   3 -12   57.19    3.90
  -5   3 -12   52.19    3.60
   5  -3  12   62.49    4.10
  -6   3 -12    2.60    1.20
  -7   3 -12    6.70    0.80
  -7   3 -12    7.70    1.80
  -8   3 -12  594.64   24.90
  -8   3 -12  544.15   23.40
  -9   3 -12   76.99    4.80
 -10   3 -12   19.80    2.10
 -11   3 -12   21.50    1.80
   9   2 -12  132.19    6.00
  -9  -2  12  141.09    6.20
   8   2 -12   11.50    1.20
  -8  -2  12   10.40    1.30
   7   2 -12  194.78    8.70
   7   2 -12  189.48    8.70
  -7  -2  12  207.18    9.00
   6   2 -12   45.00    2.70
   6   2 -12   43.90    2.90
   6   2 -12   43.30    2.60
   6   2 -12   37.80    2.40
  -6  -2  12   42.10    2.80
   5   2 -12   18.30    2.00
   5   2 -12   16.80    1.50
   5   2 -12   18.60    1.70
   5   2 -12   17.60    1.70
  -5  -2  12   21.90    1.90
   4   2 -12    5.30    1.30
   4   2 -12    5.70    0.80
   4   2 -12    5.50    1.20
   4   2 -12    6.30    1.10
   3   2 -12   85.99    4.60
   3   2 -12   82.69    4.20
   3   2 -12   85.29    3.90
   3   2 -12   75.49    4.40
  -3  -2  12   81.89    4.50
   2   2 -12  192.48    8.60
   2   2 -12  201.58    8.20
   2   2 -12  192.18    9.00
  -2  -2  12  185.18    8.90
   1   2 -12  119.09    5.50
   1   2 -12  121.99    5.80
   1   2 -12  120.39    6.00
   1   2 -12  104.89    5.00
  -1  -2  12  124.39    5.70
   0   2 -12   34.60    2.00
   0   2 -12   31.70    2.40
   0   2 -12   29.90    2.20
   0  -2  12   32.40    1.90
  -1   2 -12  363.46   15.70
  -1   2 -12  361.16   15.00
  -1   2 -12  355.16   15.50
  -2   2 -12  263.37   11.70
   4  -2  12   18.60    2.10
  -5   2 -12  126.49    6.70
   5  -2  12  127.49    7.00
  -6   2 -12   55.19    4.00
  -7   2 -12  129.39    7.10
  -7   2 -12  125.49    5.60
  -8   2 -12   39.30    2.10
  -8   2 -12   35.90    3.30
  -9   2 -12   63.39    4.20
 -10   2 -12    2.00    1.00
  10   1 -12    7.10    0.80
   9   1 -12   35.90    2.10
  -9  -1  12   36.20    2.30
   8   1 -12  150.18    7.30
  -8  -1  12  174.58    7.60
   7   1 -12    2.00    0.80
   7   1 -12    2.10    1.00
   7   1 -12    2.80    0.90
  -7  -1  12    1.40    0.90
   6   1 -12   40.30    2.60
   6   1 -12   41.30    2.40
   6   1 -12   42.30    2.60
   6   1 -12   42.90    3.00
  -6  -1  12   39.10    2.70
   5   1 -12    1.90    0.80
   5   1 -12    1.70    0.70
   5   1 -12    0.70    1.00
   5   1 -12    2.80    0.90
  -5  -1  12    1.30    0.80
   4   1 -12  472.95   20.10
   4   1 -12  470.95   19.80
   4   1 -12  459.05   19.80
   4   1 -12  468.65   20.20
   4   1 -12  497.35   19.60
  -4  -1  12  447.46   20.20
   3   1 -12  210.18   10.90
   3   1 -12  239.18    9.80
   3   1 -12  231.38   10.10
  -3  -1  12  233.48   10.50
   2   1 -12   83.29    4.70
   2   1 -12   81.69    4.10
   2   1 -12   82.19    4.60
   2   1 -12   90.89    3.80
  -2  -1  12   81.89    4.50
  -2  -1  12   86.29    4.50
   1   1 -12   72.89    4.10
   1   1 -12   71.79    4.00
   1   1 -12   73.99    3.90
  -1  -1  12   78.69    4.10
  -1  -1  12   73.29    3.70
   0   1 -12  308.17   13.40
   0   1 -12  299.47   13.00
   0   1 -12  301.07   13.60
   0  -1  12  310.77   12.90
   0  -1  12  314.87   13.40
   1  -1  12  155.78    7.20
  -3   1 -12  311.37   14.20
   4  -1  12   31.10    2.80
  -5   1 -12    5.20    1.30
  -6   1 -12    7.80    0.80
  -6   1 -12    5.60    1.50
  -7   1 -12  100.79    6.00
  -7   1 -12  104.29    4.60
  -8   1 -12   20.70    1.40
  -8   1 -12   21.40    2.70
  -9   1 -12    0.90    1.10
 -10   1 -12   21.40    2.00
  10   0 -12   14.00    1.20
   9   0 -12    3.80    0.90
  -9   0  12    4.40    1.00
   8   0 -12   86.59    4.40
  -8   0  12   90.29    4.60
   7   0 -12    1.50    1.00
   7   0 -12    1.50    0.80
  -7   0  12    1.80    0.90
   6   0 -12   32.00    2.40
   6   0 -12   25.80    2.00
   6   0 -12   25.80    1.80
   6   0 -12   24.70    2.00
  -6   0  12   26.00    2.10
   5   0 -12  148.59    7.40
   5   0 -12  158.38    7.10
   5   0 -12  158.18    6.90
   5   0 -12  152.68    7.10
   4   0 -12   68.29    3.90
   4   0 -12   65.29    3.50
   4   0 -12   73.69    3.30
   4   0 -12   65.59    3.60
  -4   0  12   66.49    3.90
   3   0 -12   16.20    1.10
   3   0 -12   14.30    1.40
  -3   0  12   15.10    1.60
   2   0 -12   27.70    1.40
   2   0 -12   24.60    2.10
   2   0 -12   23.80    1.90
   2   0 -12   21.80    1.70
  -2   0  12   22.80    1.90
  -2   0  12   25.10    2.00
   1   0 -12  134.29    6.70
   1   0 -12  139.09    6.40
   1   0 -12  132.19    6.50
  -1   0  12  141.89    6.50
  -1   0  12  136.69    6.30
   0   0 -12   37.40    2.10
   0   0 -12   38.40    2.70
   0   0  12   39.10    2.40
   0   0  12   38.00    2.00
  -1   0 -12  154.58    6.40
  -1   0 -12  138.29    7.20
   1   0  12  144.59    6.80
   1   0  12  157.58    7.20
  -2   0 -12  162.48    7.90
   2   0  12  156.78    7.60
  -3   0 -12  356.06   16.10
  -4   0 -12   85.29    4.40
  -4   0 -12   96.39    5.50
  -5   0 -12  948.51   41.40
  -5   0 -12 1016.00   40.60
  -6   0 -12  373.66   16.80
  -6   0 -12  355.96   15.30
  -6   0 -12  380.16   15.80
  -7   0 -12   44.10    3.60
  -7   0 -12   42.80    2.20
  -7   0 -12   37.70    2.50
  -8   0 -12  196.28    8.50
  -8   0 -12  202.88    9.80
  -9   0 -12    4.00    1.30
 -10   0 -12    0.40    0.30
 -10   0 -12    0.30    0.70
  10  -1 -12   33.40    2.00
   9  -1 -12   24.10    1.90
   8  -1 -12  139.69    6.40
   8  -1 -12  136.39    6.60
   7  -1 -12   40.40    2.60
   7  -1 -12   35.80    2.80
   6  -1 -12   50.39    3.30
   6  -1 -12   51.19    3.00
   6  -1 -12   52.29    2.80
   6  -1 -12   54.39    3.00
   5  -1 -12   14.50    1.50
   5  -1 -12   12.50    1.60
   5  -1 -12   13.30    1.40
   5  -1 -12   14.90    1.30
   4  -1 -12   49.40    2.50
   4  -1 -12   44.70    3.00
   4  -1 -12   49.90    2.70
   4  -1 -12   45.20    2.70
  -4   1  12   42.20    2.90
   3  -1 -12   16.60    1.50
   3  -1 -12   15.80    1.10
  -3   1  12   16.20    1.70
   2  -1 -12  326.97   15.40
   2  -1 -12  341.37   14.80
   2  -1 -12  346.97   15.20
   2  -1 -12  339.17   14.40
  -2   1  12  385.06   15.20
  -2   1  12  349.96   15.10
   1  -1 -12   87.69    4.80
   1  -1 -12   88.29    4.40
  -1   1  12   87.79    4.30
  -1   1  12   87.49    4.50
   0  -1 -12   14.50    1.20
   0  -1 -12   13.50    1.60
   0   1  12   14.90    1.40
   0   1  12   14.60    1.20
  -1  -1 -12   59.69    3.80
  -1  -1 -12   64.39    3.20
   1   1  12   66.09    3.20
   1   1  12   69.79    3.80
  -2  -1 -12   45.10    2.40
  -2  -1 -12   46.80    3.30
   2   1  12   43.80    2.40
  -3  -1 -12    1.90    1.10
  -4  -1 -12  216.68    9.00
  -4  -1 -12  188.58   10.00
  -5  -1 -12  162.68    6.80
  -5  -1 -12  157.88    8.10
  -5  -1 -12  148.99    7.20
  -6  -1 -12  136.69    6.10
  -6  -1 -12  137.39    6.50
  -6  -1 -12  144.19    7.40
  -7  -1 -12   15.00    1.50
  -7  -1 -12   14.10    2.10
  -7  -1 -12   15.90    1.20
  -8  -1 -12   35.60    2.20
  -8  -1 -12   30.90    3.00
  -9  -1 -12    1.10    0.90
   9   1  12    1.80    0.60
 -10  -1 -12   36.00    2.30
 -10  -1 -12   34.70    1.70
  11  -2 -12  196.08    8.40
  10  -2 -12    2.70    0.70
   9  -2 -12   52.19    2.80
  -9   2  12   46.80    2.70
   8  -2 -12   32.10    2.30
   8  -2 -12   30.00    2.50
   7  -2 -12  141.39    6.80
   7  -2 -12  135.29    6.50
   6  -2 -12  348.67   15.00
   6  -2 -12  351.66   15.30
   6  -2 -12  329.67   14.80
   6  -2 -12  370.16   15.00
   5  -2 -12  185.68    8.40
   5  -2 -12  179.88    8.10
   5  -2 -12  184.78    7.90
   5  -2 -12  182.88    8.10
  -5   2  12  159.38    9.20
   4  -2 -12   14.00    1.40
   4  -2 -12   13.60    1.20
   4  -2 -12   10.70    1.50
   4  -2 -12   14.20    1.40
  -4   2  12   11.00    1.50
   3  -2 -12   98.79    4.90
   3  -2 -12  100.79    4.60
  -3   2  12  104.79    5.20
   2  -2 -12    0.70    0.60
   2  -2 -12    0.90    0.60
   2  -2 -12    0.60    0.40
  -2   2  12    0.80    0.70
  -2   2  12    0.60    0.60
   1  -2 -12  254.47   11.10
   1  -2 -12  224.08   11.00
   1  -2 -12  253.37   10.50
   1  -2 -12  251.47   11.60
  -1   2  12  272.57   11.10
  -1   2  12  238.78   11.00
   0  -2 -12   47.80    2.70
   0  -2 -12   41.90    3.20
   0   2  12   50.59    2.70
   0   2  12   45.90    2.70
  -1  -2 -12   46.20    3.00
  -1  -2 -12   50.79    3.40
  -1  -2 -12   46.10    2.60
   1   2  12   45.90    2.60
  -2  -2 -12    4.20    0.90
  -2  -2 -12    6.40    1.40
  -3  -2 -12  148.19    7.20
  -3  -2 -12  168.28    8.40
  -3  -2 -12  160.08    6.70
  -4  -2 -12   16.30    1.60
  -4  -2 -12   15.10    1.10
  -5  -2 -12  669.83   27.40
  -5  -2 -12  666.03   28.70
  -5  -2 -12  654.83   27.80
  -6  -2 -12   20.40    2.60
  -6  -2 -12   19.80    1.40
  -6  -2 -12   21.90    2.00
  -7  -2 -12  104.49    4.70
  -7  -2 -12  101.99    5.10
  -7  -2 -12  103.39    5.90
  -8  -2 -12    5.80    1.00
  -8  -2 -12    6.70    1.50
  -9  -2 -12   53.59    2.50
  -9  -2 -12   57.09    3.40
   9   2  12   54.89    2.70
  11  -3 -12   28.30    1.60
  10  -3 -12   60.49    3.10
   9  -3 -12  113.29    5.40
  -9   3  12  111.29    5.30
   8  -3 -12   81.19    4.60
   8  -3 -12   93.19    4.50
   7  -3 -12  129.09    6.30
   7  -3 -12  141.29    6.70
   6  -3 -12   22.30    1.60
   6  -3 -12   20.30    2.20
   6  -3 -12   19.90    1.80
   6  -3 -12   22.30    1.90
   5  -3 -12   88.59    4.20
   5  -3 -12   87.29    4.40
   5  -3 -12   90.29    4.70
   5  -3 -12   79.09    4.30
   4  -3 -12   26.70    1.90
   4  -3 -12   27.90    2.00
   4  -3 -12   30.40    1.80
   4  -3 -12   27.70    2.20
  -4   3  12   24.10    2.20
   3  -3 -12    4.20    0.90
   3  -3 -12    2.20    0.60
  -3   3  12    3.50    1.00
   2  -3 -12 1144.19   47.30
   2  -3 -12 1152.18   47.70
  -2   3  12 1178.98   48.00
   1  -3 -12  417.36   17.60
   1  -3 -12  422.16   17.20
  -1   3  12  406.56   17.70
   0  -3 -12    3.50    0.90
   0  -3 -12    2.70    0.50
   0  -3 -12    4.80    1.30
  -1  -3 -12    3.70    0.50
  -1  -3 -12    1.30    0.70
  -1  -3 -12    2.30    1.10
  -2  -3 -12    8.00    1.10
  -2  -3 -12    8.00    0.80
  -2  -3 -12    5.90    1.00
  -3  -3 -12   24.20    1.90
  -3  -3 -12   27.40    1.50
  -4  -3 -12    9.50    1.30
  -4  -3 -12   10.80    1.00
  -4  -3 -12    9.50    2.10
  -5  -3 -12    3.90    0.70
  -5  -3 -12    3.20    1.30
  -5  -3 -12    1.60    0.90
  -6  -3 -12   50.09    3.80
  -6  -3 -12   50.99    2.70
  -6  -3 -12   53.29    3.10
  -7  -3 -12   27.00    2.70
  -7  -3 -12   26.80    2.00
  -8  -3 -12  156.78    6.90
  -8  -3 -12  156.98    7.60
  -8  -3 -12  149.39    6.50
  -9  -3 -12    2.80    0.40
  -9  -3 -12    1.80    0.70
   9   3  12    2.20    0.50
  11  -4 -12   67.29    3.20
  10  -4 -12    6.50    0.90
 -10   4  12    5.20    0.80
   9  -4 -12  139.99    6.20
  -9   4  12  128.89    6.20
   8  -4 -12  143.99    6.80
  -8   4  12  151.48    6.90
   7  -4 -12   20.10    2.20
   7  -4 -12   20.50    1.90
   6  -4 -12   78.19    4.40
   6  -4 -12   73.39    3.80
   6  -4 -12   72.19    3.90
   6  -4 -12   83.29    4.00
   5  -4 -12  141.09    6.80
   5  -4 -12  141.19    6.40
   5  -4 -12  138.09    6.20
   5  -4 -12  130.69    6.40
   4  -4 -12    1.40    0.90
   4  -4 -12    0.20    0.50
   4  -4 -12    1.00    0.70
   4  -4 -12    1.40    0.80
  -4   4  12    0.70    0.80
   3  -4 -12  448.76   19.00
   3  -4 -12  474.15   18.70
   3  -4 -12  431.36   19.20
   3  -4 -12  439.66   18.90
  -3   4  12  449.06   19.30
   2  -4 -12  207.08    9.50
   2  -4 -12  226.48    9.70
   2  -4 -12  219.58    9.30
  -2   4  12  216.98    9.80
   1  -4 -12  464.85   18.80
   1  -4 -12  467.15   20.20
   1  -4 -12  439.26   19.10
   1  -4 -12  464.15   19.20
  -1   4  12  431.36   19.20
   0  -4 -12   56.39    2.70
   0  -4 -12   51.89    3.00
   0  -4 -12   58.59    3.00
   0  -4 -12   51.99    3.80
  -1  -4 -12  315.97   13.10
  -1  -4 -12  318.57   13.40
  -1  -4 -12  301.77   14.50
  -1  -4 -12  313.17   13.50
  -2  -4 -12  132.99    6.30
  -2  -4 -12  140.59    5.90
  -2  -4 -12  129.79    6.30
  -3  -4 -12   66.49    3.60
  -3  -4 -12   66.19    3.20
  -4  -4 -12  182.88    9.20
  -4  -4 -12  178.88    8.00
  -4  -4 -12  190.68    8.40
  -5  -4 -12   17.80    1.80
  -5  -4 -12   16.90    2.40
  -5  -4 -12   17.60    1.40
  -6  -4 -12   84.69    4.30
  -6  -4 -12   80.29    3.90
  -6  -4 -12   86.09    5.10
  -7  -4 -12  263.27   11.20
  -7  -4 -12  269.57   12.20
  -7  -4 -12  267.27   11.50
  -8  -4 -12   13.20    0.90
  -8  -4 -12   13.40    1.60
  -8  -4 -12   14.10    1.20
  10  -5 -12  123.39    5.70
 -10   5  12  130.29    5.80
   9  -5 -12   86.09    4.40
  -9   5  12   92.69    4.40
   8  -5 -12  184.58    7.90
  -8   5  12  164.38    7.90
   7  -5 -12   14.10    1.50
  -7   5  12   15.10    1.70
   6  -5 -12   26.80    2.40
   6  -5 -12   26.60    1.90
   6  -5 -12   27.50    2.10
   5  -5 -12    8.70    1.30
   5  -5 -12    7.70    1.00
   5  -5 -12    8.50    1.50
   5  -5 -12    6.30    1.10
   4  -5 -12  168.78    7.30
   4  -5 -12  157.68    7.40
   4  -5 -12  164.48    7.20
   4  -5 -12  150.98    7.60
   3  -5 -12   73.49    4.10
   3  -5 -12   79.19    3.70
   3  -5 -12   73.19    4.00
   3  -5 -12   79.79    3.90
  -3   5  12   72.39    4.10
   2  -5 -12  120.59    5.60
   2  -5 -12  119.09    5.30
   2  -5 -12  114.89    5.50
  -2   5  12  111.39    5.70
   1  -5 -12    4.00    1.30
   1  -5 -12    2.30    0.80
   1  -5 -12    2.00    0.60
   1  -5 -12    4.60    0.90
   0  -5 -12  554.84   23.00
   0  -5 -12  578.24   24.60
   0  -5 -12  534.05   23.30
   0  -5 -12  555.44   23.40
  -1  -5 -12  203.38    9.60
  -1  -5 -12  222.98    9.20
  -1  -5 -12  216.38    9.60
  -2  -5 -12   11.20    1.40
  -2  -5 -12   10.90    1.10
  -2  -5 -12    9.50    1.30
  -3  -5 -12    2.40    0.90
  -3  -5 -12    4.40    1.00
  -3  -5 -12    3.00    0.70
  -4  -5 -12    7.80    1.30
  -4  -5 -12    8.60    1.70
  -4  -5 -12    8.60    1.00
  -5  -5 -12    9.30    1.30
  -5  -5 -12    8.40    1.00
  -5  -5 -12    9.40    1.70
  -6  -5 -12  143.09    7.20
  -6  -5 -12  150.78    6.60
  -6  -5 -12  135.09    6.10
  -7  -5 -12   80.99    4.40
  -7  -5 -12   83.89    3.90
  -7  -5 -12   77.99    3.60
  -8  -5 -12  115.19    4.90
  10  -6 -12   96.19    4.40
 -10   6  12   91.89    4.40
   9  -6 -12  167.98    7.30
  -9   6  12  160.78    7.40
   8  -6 -12   16.90    1.60
  -8   6  12   17.20    1.80
   7  -6 -12    6.60    1.10
  -7   6  12    7.20    1.20
   6  -6 -12  172.18    7.80
  -6   6  12  169.38    7.80
   5  -6 -12   21.50    2.00
   5  -6 -12   22.00    1.70
   5  -6 -12   22.70    1.90
  -5   6  12   22.70    1.90
   4  -6 -12  178.58    7.80
   4  -6 -12  171.58    7.90
   4  -6 -12  179.28    8.00
  -4   6  12  171.18    7.90
   3  -6 -12  235.28    9.80
   3  -6 -12  225.88   10.10
   3  -6 -12  218.18   10.00
   2  -6 -12    4.40    0.90
   2  -6 -12    3.40    0.90
   2  -6 -12    3.90    0.80
   1  -6 -12   79.79    3.70
   1  -6 -12   68.59    3.90
   1  -6 -12   78.39    4.10
   0  -6 -12   57.89    3.40
   0  -6 -12   58.29    3.30
   0  -6 -12   60.59    3.00
  -1  -6 -12  193.18    8.70
  -1  -6 -12  190.78    8.40
  -1  -6 -12  191.58    8.70
  -2  -6 -12  348.37   14.80
  -2  -6 -12  357.66   15.10
  -2  -6 -12  346.47   15.10
  -3  -6 -12   36.00    2.10
  -3  -6 -12   34.80    2.50
   3   6  12   35.10    2.20
  -4  -6 -12   43.10    2.40
  -4  -6 -12   46.90    2.80
  -5  -6 -12   61.89    3.40
  -5  -6 -12   62.59    3.00
  -5  -6 -12   64.29    4.00
  -6  -6 -12    1.90    0.50
  -6  -6 -12    2.50    0.70
  -6  -6 -12    0.90    0.90
  -7  -6 -12   23.70    1.20
  -7  -6 -12   22.10    1.40
 -10   7  12   99.99    4.60
   9  -7 -12   32.80    2.10
  -9   7  12   29.30    2.10
   8  -7 -12  135.69    6.40
  -8   7  12  148.59    6.70
   7  -7 -12  117.29    5.60
  -7   7  12  120.49    5.80
   6  -7 -12   54.09    3.10
  -6   7  12   55.19    3.20
   5  -7 -12   46.30    2.90
   5  -7 -12   47.30    2.70
   5  -7 -12   50.49    2.80
  -5   7  12   42.70    2.80
   4  -7 -12  673.93   27.70
   4  -7 -12  684.33   27.60
   4  -7 -12  645.84   27.40
  -4   7  12  642.04   27.50
   3  -7 -12    5.90    0.90
   3  -7 -12    6.10    1.20
   3  -7 -12    5.80    1.10
   2  -7 -12   17.80    1.70
   2  -7 -12   17.00    1.40
   2  -7 -12   15.20    1.70
   1  -7 -12    4.00    0.80
   1  -7 -12    3.90    0.90
   1  -7 -12    4.90    1.20
   0  -7 -12   78.89    4.30
   0  -7 -12   83.99    4.20
   0  -7 -12   79.09    3.90
  -1  -7 -12  290.27   12.40
  -1  -7 -12  289.07   12.60
  -1  -7 -12  291.57   12.70
  -2  -7 -12    5.10    1.10
  -2  -7 -12    6.20    0.90
   2   7  12    4.10    0.90
  -3  -7 -12   17.50    1.40
  -3  -7 -12   19.00    1.80
  -3  -7 -12   17.10    1.30
   3   7  12   16.20    1.50
  -4  -7 -12   16.40    1.20
  -4  -7 -12   17.30    1.60
  -5  -7 -12    8.60    0.80
  -5  -7 -12    8.60    1.30
  -5  -7 -12    9.50    1.10
  -6  -7 -12   64.49    3.10
  -6  -7 -12   66.19    2.90
 -10   8  12    0.80    0.50
  -9   8  12   33.70    2.10
   8  -8 -12    4.40    0.50
  -8   8  12    6.50    1.10
   7  -8 -12  351.16   14.40
  -7   8  12  341.37   14.90
   6  -8 -12    8.40    0.90
  -6   8  12    6.80    1.20
   5  -8 -12  138.89    6.70
  -5   8  12  145.49    6.60
   4  -8 -12   21.70    1.60
   4  -8 -12   24.60    2.10
   4  -8 -12   20.30    1.80
   3  -8 -12  108.29    4.90
   3  -8 -12  107.79    5.10
   3  -8 -12  110.79    5.50
   3  -8 -12  114.19    5.30
   2  -8 -12  118.59    5.60
   2  -8 -12  113.29    5.20
   2  -8 -12  110.69    5.30
   2  -8 -12  105.09    5.00
   1  -8 -12  182.08    8.20
   1  -8 -12  177.98    7.60
   1  -8 -12  176.18    8.00
   1  -8 -12  168.88    7.80
   0  -8 -12   53.79    2.80
   0  -8 -12   51.29    3.00
   0  -8 -12   50.99    2.70
  -1  -8 -12   27.30    1.70
  -1  -8 -12   27.00    1.80
  -1  -8 -12   26.80    2.10
   1   8  12   32.20    2.10
  -2  -8 -12   26.00    2.00
  -2  -8 -12   28.70    1.70
   2   8  12   25.80    1.90
  -3  -8 -12  106.99    4.50
  -3  -8 -12  102.09    4.90
   3   8  12   95.89    4.70
  -4  -8 -12   90.19    4.30
  -4  -8 -12   90.89    4.00
  -5  -8 -12   26.70    1.60
  -5  -8 -12   29.90    1.40
 -10   9  12   11.90    1.10
  -9   9  12   42.90    2.40
  -8   9  12   83.69    4.20
   7  -9 -12  126.89    5.30
  -7   9  12  123.19    5.90
   6  -9 -12  159.08    6.80
  -6   9  12  159.48    7.20
   5  -9 -12   61.19    3.30
   5  -9 -12   58.29    2.90
  -5   9  12   60.49    3.20
   4  -9 -12    7.20    0.90
   4  -9 -12    7.70    1.20
   3  -9 -12    2.10    0.90
   3  -9 -12    1.10    0.60
   2  -9 -12   12.40    1.10
   2  -9 -12   11.40    1.50
   1  -9 -12   16.60    1.40
  -1   9  12   18.20    1.60
   0  -9 -12   39.40    2.00
   0   9  12   32.80    2.30
  -1  -9 -12   35.00    1.90
  -1  -9 -12   34.00    2.60
   1   9  12   33.60    2.20
  -2  -9 -12   52.69    2.80
  -2  -9 -12   54.19    2.50
   2   9  12   53.29    2.80
  -3  -9 -12   42.00    2.60
  -3  -9 -12   45.30    2.10
   3   9  12   43.60    2.30
  -4  -9 -12    3.60    0.40
  -9  10  12   65.29    3.10
  -8  10  12   81.39    3.90
  -7  10  12   12.70    1.30
   6 -10 -12    4.90    0.60
  -6  10  12    6.30    0.90
   5 -10 -12  241.08   10.10
   4 -10 -12   28.70    1.60
  -4  10  12   26.50    1.80
   3 -10 -12   86.19    3.90
  -3  10  12   85.99    4.20
   2 -10 -12    1.90    0.60
  -2  10  12    4.00    0.90
   1 -10 -12   17.20    1.20
  -1  10  12   17.20    1.50
   0 -10 -12    1.00    0.50
   0  10  12    0.40    0.60
  -1 -10 -12   64.49    2.90
   1  10  12   63.59    3.20
  -2 -10 -12    1.10    0.40
  -7  11  12    1.10    0.50
   4 -11 -12  128.19    5.40
  -4  11  12  129.29    5.70
   3 -11 -12    5.80    0.60
  -3  11  12    7.20    0.90
   2 -11 -12    2.00    0.40
  -2  11  12    2.40    0.60
   1 -11 -12   89.19    3.80
  -1  11  12   86.89    4.10
   0 -11 -12   15.70    0.80
   0  11  12   14.00    1.10
  -1  11 -13   38.80    2.30
  -2  11 -13   10.00    1.40
  -2  11 -13    6.90    1.00
  -3  11 -13   12.00    1.50
  -3  11 -13    8.30    1.10
  -4  11 -13    6.80    1.30
  -4  11 -13    7.30    1.10
   4 -11  13    4.20    1.50
  -5  11 -13  185.88    7.90
  -5  11 -13  175.58    7.70
   5 -11  13  149.79    8.60
  -6  11 -13   27.20    2.70
  -6  11 -13   24.40    1.70
  -7  11 -13    7.10    1.50
   1  10 -13   20.30    1.80
   1  10 -13   22.00    1.50
   1  10 -13   18.40    1.50
   0  10 -13    9.30    1.40
   0  10 -13   11.90    1.30
  -1  10 -13    3.30    1.30
  -1  10 -13    2.40    0.90
  -2  10 -13    7.00    1.50
  -2  10 -13    6.70    1.20
  -3  10 -13   20.80    1.90
  -3  10 -13   21.20    2.30
   3 -10  13   13.80    2.70
  -4  10 -13  125.69    6.10
  -4  10 -13  129.89    6.30
  -4  10 -13  124.59    6.90
  -5  10 -13  101.99    5.10
  -5  10 -13  103.49    5.30
  -5  10 -13  102.09    5.90
  -6  10 -13    3.80    1.00
  -6  10 -13    5.00    1.60
  -6  10 -13    4.00    0.90
  -7  10 -13   19.60    1.80
  -7  10 -13   20.40    2.70
  -8  10 -13   59.29    3.80
   3   9 -13   20.90    1.50
  -3  -9  13   20.20    1.50
   2   9 -13    5.20    1.00
   2   9 -13    5.80    0.90
  -2  -9  13    6.70    1.00
   1   9 -13   23.80    1.70
   1   9 -13   18.00    2.20
   1   9 -13   21.10    1.90
   0   9 -13   95.69    5.00
   0   9 -13  110.79    5.60
   0   9 -13   93.79    4.80
  -1   9 -13    3.90    1.10
  -1   9 -13    3.90    1.50
  -2   9 -13   16.00    1.90
  -2   9 -13   21.10    2.50
  -2   9 -13   16.50    1.80
  -3   9 -13  154.18    7.00
  -3   9 -13  136.89    6.30
  -3   9 -13  135.89    7.60
  -3   9 -13  142.29    7.10
  -4   9 -13    5.30    1.20
  -4   9 -13    5.70    1.90
  -4   9 -13    5.00    1.30
  -5   9 -13   91.29    4.70
  -5   9 -13   87.59    5.50
  -5   9 -13   85.09    4.80
  -6   9 -13  181.28    9.20
  -6   9 -13  186.38    8.60
  -6   9 -13  181.08    8.40
  -7   9 -13    4.30    1.10
  -7   9 -13    4.10    1.50
  -8   9 -13    5.70    1.40
  -9   9 -13   10.20    1.50
   4   8 -13   48.10    2.60
  -4  -8  13   47.50    2.70
   3   8 -13    3.30    0.90
  -3  -8  13    3.40    0.90
   2   8 -13  111.59    5.90
   2   8 -13  135.89    5.90
   2   8 -13  127.79    6.40
   1   8 -13   15.30    1.60
   1   8 -13   13.80    1.70
   1   8 -13   12.90    2.00
   1   8 -13   16.80    1.90
   0   8 -13   56.99    3.30
   0   8 -13   68.09    3.90
   0   8 -13   68.99    3.60
   0   8 -13   75.39    4.40
  -1   8 -13    3.00    1.40
  -1   8 -13    0.40    0.70
  -1   8 -13    0.90    1.10
  -2   8 -13    5.00    1.30
  -2   8 -13    4.70    1.50
  -2   8 -13    3.80    0.90
  -3   8 -13    4.90    1.90
  -3   8 -13    8.50    1.60
  -3   8 -13   10.00    1.50
  -3   8 -13    7.10    0.90
  -4   8 -13   47.30    2.50
  -4   8 -13   49.70    3.30
  -4   8 -13   51.49    3.20
  -4   8 -13   43.50    3.90
  -5   8 -13    2.20    1.10
  -5   8 -13    4.70    0.70
  -5   8 -13    4.00    1.50
  -5   8 -13    5.60    1.20
  -6   8 -13    2.50    0.60
  -6   8 -13    2.90    1.40
  -6   8 -13    2.80    1.10
  -7   8 -13   11.40    2.00
  -7   8 -13   12.40    1.60
  -8   8 -13   87.89    5.10
  -8   8 -13   86.09    4.60
  -9   8 -13    7.00    1.40
  -9   8 -13    8.30    1.20
   5   7 -13   32.00    1.90
  -5  -7  13   29.30    2.00
   4   7 -13   81.59    4.10
  -4  -7  13   81.79    4.20
   3   7 -13  120.09    5.60
   3   7 -13  114.49    5.80
   3   7 -13  118.59    6.20
   2   7 -13   86.19    5.00
   2   7 -13   82.19    4.00
   2   7 -13   80.79    4.30
   2   7 -13   85.19    4.60
   1   7 -13  109.89    5.70
   1   7 -13   94.99    4.90
   1   7 -13   90.99    4.60
   1   7 -13  100.09    5.20
   0   7 -13    4.70    0.90
   0   7 -13    5.20    1.30
   0   7 -13    4.20    1.60
   0   7 -13    3.30    1.00
  -1   7 -13   20.30    2.20
  -1   7 -13   17.20    1.50
  -1   7 -13   24.30    2.50
  -2   7 -13  154.78    6.80
  -2   7 -13  154.48    7.60
  -2   7 -13  157.78    7.50
  -3   7 -13   11.10    1.00
  -3   7 -13   12.60    1.80
  -3   7 -13   12.30    1.60
  -4   7 -13    1.50    1.00
  -4   7 -13    1.00    1.10
  -4   7 -13    2.30    0.50
  -4   7 -13    1.10    1.10
  -5   7 -13   35.60    2.80
  -5   7 -13   33.90    2.60
  -5   7 -13   35.00    1.90
  -5   7 -13   36.20    3.20
  -6   7 -13  145.19    6.90
  -6   7 -13  134.49    6.00
  -6   7 -13  131.99    7.40
  -7   7 -13   85.99    4.70
  -7   7 -13   85.19    5.30
  -7   7 -13   87.49    4.10
  -8   7 -13   62.09    3.70
  -8   7 -13   65.39    4.30
  -9   7 -13    3.00    0.90
  -9   7 -13    2.60    1.10
 -10   7 -13    5.80    1.10
   6   6 -13    8.90    1.00
  -6  -6  13    8.00    1.00
   5   6 -13    8.90    1.20
  -5  -6  13   10.00    1.30
   4   6 -13  222.88   10.60
   4   6 -13  243.48   10.50
  -4  -6  13  250.87   10.70
   3   6 -13  105.49    4.80
   3   6 -13  101.49    5.30
   3   6 -13  100.29    5.60
   3   6 -13   99.09    5.00
   2   6 -13   74.39    4.00
   2   6 -13   73.09    3.70
   2   6 -13   77.19    4.30
   2   6 -13   74.09    4.80
   1   6 -13   44.10    3.50
   1   6 -13   39.70    3.00
   1   6 -13   40.70    2.40
   1   6 -13   41.50    2.70
   0   6 -13  124.09    6.50
   0   6 -13  135.89    6.90
   0   6 -13  129.89    6.30
   0   6 -13  137.39    5.90
  -1   6 -13  153.28    7.80
  -1   6 -13  164.08    7.70
  -1   6 -13  163.08    7.00
  -2   6 -13    3.90    0.60
  -2   6 -13    3.20    1.20
  -2   6 -13    4.50    1.20
  -3   6 -13   45.10    2.20
  -3   6 -13   47.30    3.00
  -3   6 -13   43.10    3.10
  -4   6 -13   11.30    1.60
  -4   6 -13   14.10    1.70
  -4   6 -13   11.20    1.90
  -4   6 -13   11.90    0.90
  -5   6 -13  195.08    9.30
  -5   6 -13  201.38    8.40
  -5   6 -13  198.48    9.80
  -6   6 -13  479.05   20.30
  -6   6 -13  465.75   19.50
  -6   6 -13  469.45   21.00
  -7   6 -13   53.09    3.40
  -7   6 -13   55.19    4.10
  -7   6 -13   50.79    2.60
  -8   6 -13    4.70    1.50
  -8   6 -13    6.20    1.20
  -9   6 -13    7.00    1.50
  -9   6 -13    7.10    1.20
 -10   6 -13   56.59    3.50
  -7  -5  13    2.90    0.70
   6   5 -13    0.20    0.70
  -6  -5  13   -0.10    0.70
   5   5 -13   54.19    3.10
  -5  -5  13   54.19    3.30
   4   5 -13   55.89    3.20
   4   5 -13   69.09    3.80
   4   5 -13   67.09    3.60
  -4  -5  13   68.29    3.80
   3   5 -13   10.90    1.40
   3   5 -13   11.60    1.60
   3   5 -13   11.30    2.00
   3   5 -13   10.50    1.20
   2   5 -13    0.20    0.60
   2   5 -13   -0.60    0.90
   2   5 -13   -0.80    1.30
   2   5 -13    1.40    0.90
   1   5 -13   57.89    3.30
   1   5 -13   61.49    3.70
   1   5 -13   60.29    3.10
   1   5 -13   63.19    4.00
   0   5 -13   79.79    4.20
   0   5 -13   70.29    4.30
   0   5 -13   72.99    3.50
   0   5 -13   72.59    3.90
  -1   5 -13  102.39    4.60
  -1   5 -13  109.99    5.40
  -1   5 -13  107.99    5.50
  -2   5 -13   43.80    2.80
  -2   5 -13   42.60    2.90
  -3   5 -13   28.20    2.30
  -3   5 -13   29.70    2.30
  -4   5 -13  125.09    6.10
  -4   5 -13  116.69    6.50
  -5   5 -13  461.15   20.10
  -5   5 -13  441.26   19.40
  -6   5 -13   77.39    3.50
  -6   5 -13   76.79    4.90
  -6   5 -13   79.59    4.40
  -7   5 -13  134.29    7.20
  -7   5 -13  123.19    6.40
  -7   5 -13  130.59    5.60
  -8   5 -13   84.79    4.60
  -8   5 -13   89.09    5.40
  -9   5 -13   55.89    3.20
  -9   5 -13   53.39    3.80
 -10   5 -13   31.90    2.60
   7   4 -13   21.90    1.50
  -7  -4  13   19.50    1.70
   6   4 -13   56.49    3.20
  -6  -4  13   59.59    3.40
   5   4 -13   20.10    1.80
   5   4 -13   17.50    1.50
   5   4 -13   22.70    2.10
  -5  -4  13   21.60    2.00
   4   4 -13    1.70    0.70
   4   4 -13   -0.20    1.10
   4   4 -13    2.00    1.10
   4   4 -13    2.00    1.00
   3   4 -13   44.80    3.50
   3   4 -13   57.09    3.40
   3   4 -13   45.80    3.00
   3   4 -13   50.99    2.70
   2   4 -13  481.85   20.80
   2   4 -13  511.15   20.20
   2   4 -13  471.35   20.90
   2   4 -13  467.45   20.50
   1   4 -13   17.50    2.00
   1   4 -13   18.30    1.70
   1   4 -13   17.50    1.30
   1   4 -13   15.90    2.00
   0   4 -13  322.07   13.70
   0   4 -13  315.47   13.40
   0   4 -13  321.37   13.80
   0   4 -13  284.67   14.10
  -1   4 -13  105.09    5.20
  -1   4 -13  100.49    5.40
  -1   4 -13   98.09    5.20
  -2   4 -13    4.50    1.10
  -2   4 -13    3.10    1.10
  -2   4 -13    3.40    1.00
  -3   4 -13  142.39    6.80
  -4   4 -13  376.86   17.70
  -4   4 -13  394.56   16.70
  -5   4 -13    2.20    1.00
  -5   4 -13    2.30    1.20
  -6   4 -13   69.89    4.70
  -6   4 -13   74.29    4.10
  -7   4 -13    2.00    1.00
  -7   4 -13    2.10    0.50
  -7   4 -13    3.00    1.30
  -8   4 -13  301.07   13.70
  -8   4 -13  283.77   12.20
  -9   4 -13    6.60    1.50
 -10   4 -13  141.19    7.00
  -8  -3  13    2.00    0.70
   7   3 -13  153.58    7.10
  -7  -3  13  163.18    7.30
   6   3 -13   23.70    1.90
   6   3 -13   21.80    2.10
  -6  -3  13   22.20    2.00
   5   3 -13    1.40    0.70
   5   3 -13    2.10    1.10
   5   3 -13    3.40    1.00
  -5  -3  13    1.70    1.00
   4   3 -13    2.50    0.80
   4   3 -13    3.00    1.10
   4   3 -13    1.70    1.20
   4   3 -13    1.70    0.90
   3   3 -13  324.67   13.80
   3   3 -13  315.67   14.20
   3   3 -13  324.97   14.10
   3   3 -13  306.37   13.40
   2   3 -13   59.89    2.80
   2   3 -13   57.39    3.70
   2   3 -13   51.99    3.40
   2   3 -13   55.09    3.20
   1   3 -13  373.66   17.00
   1   3 -13  405.36   16.70
   1   3 -13  352.66   16.70
   1   3 -13  386.96   16.00
   1   3 -13  409.16   16.40
   0   3 -13  313.17   13.70
   0   3 -13  308.57   13.10
   0   3 -13  284.47   13.30
   0   3 -13  309.37   13.30
  -1   3 -13   52.49    3.30
  -1   3 -13   50.59    2.80
  -1   3 -13   51.99    3.00
  -1   3 -13   44.50    2.90
  -2   3 -13    2.20    1.00
  -2   3 -13    1.70    1.10
  -2   3 -13    1.50    0.90
  -5   3 -13   27.10    2.70
  -6   3 -13    8.70    1.70
  -7   3 -13  243.68   10.40
  -7   3 -13  252.17   11.90
  -8   3 -13    2.60    1.30
  -8   3 -13    2.40    0.60
  -9   3 -13   88.79    5.20
 -10   3 -13  151.78    7.40
   9   2 -13   46.30    2.60
   8   2 -13  396.26   16.80
  -8  -2  13  404.36   17.00
   7   2 -13   51.29    3.00
   7   2 -13   53.59    3.00
  -7  -2  13   55.79    3.20
   6   2 -13  100.19    5.10
   6   2 -13  113.89    5.30
   6   2 -13  119.49    5.70
   6   2 -13  112.09    5.40
  -6  -2  13  113.99    5.60
   5   2 -13   49.60    3.20
   5   2 -13   45.50    2.60
   5   2 -13   42.90    2.80
  -5  -2  13   44.90    2.90
   4   2 -13    7.00    1.00
   4   2 -13    7.80    1.50
   4   2 -13    8.20    1.30
   4   2 -13    5.30    1.40
   3   2 -13   15.30    1.60
   3   2 -13   18.60    2.10
   3   2 -13   18.00    1.40
   3   2 -13   21.00    2.30
   2   2 -13  976.40   38.70
   2   2 -13  934.71   39.00
   2   2 -13  967.40   39.30
   2   2 -13  856.71   39.30
  -2  -2  13  980.30   39.50
   1   2 -13   19.20    1.60
   1   2 -13   20.80    1.20
   1   2 -13   17.00    1.80
  -1  -2  13   18.30    1.80
   0   2 -13  160.48    7.30
   0   2 -13  165.08    7.90
  -1   2 -13  172.58    8.30
  -1   2 -13  174.88    7.70
  -5   2 -13    8.00    1.60
  -6   2 -13   94.89    5.60
  -7   2 -13    2.20    0.50
  -7   2 -13    2.00    1.20
  -8   2 -13  110.59    5.00
  -8   2 -13  114.19    6.30
  -9   2 -13   82.39    4.80
 -10   2 -13   39.40    2.70
   9   1 -13    6.40    0.80
  -9  -1  13    5.40    0.90
   8   1 -13   72.89    3.60
  -8  -1  13   68.49    3.70
   7   1 -13   14.60    1.70
   7   1 -13   14.90    1.50
   7   1 -13   15.50    1.60
  -7  -1  13   17.40    1.70
   6   1 -13   16.50    1.70
   6   1 -13   17.30    1.70
   6   1 -13   15.70    1.40
   6   1 -13   13.30    1.70
  -6  -1  13   14.50    1.70
   5   1 -13  266.77   11.60
   5   1 -13  270.27   11.60
   5   1 -13  263.57   11.90
   5   1 -13  277.07   11.40
  -5  -1  13  244.48   11.60
   4   1 -13   25.60    1.70
   4   1 -13   24.80    2.20
   4   1 -13   25.60    2.00
   4   1 -13   24.30    1.90
   3   1 -13  264.87   12.20
   3   1 -13  269.47   11.90
   3   1 -13  279.37   11.60
   3   1 -13  260.87   11.80
  -3  -1  13  292.97   12.40
   2   1 -13    2.70    0.80
   2   1 -13    1.60    0.50
   2   1 -13    2.20    1.00
  -2  -1  13    1.80    0.90
   1   1 -13   30.50    2.00
  -1  -1  13   32.10    2.30
   0   1 -13    7.00    1.00
   0   1 -13    9.10    1.40
   0  -1  13    8.90    0.90
   0  -1  13    9.10    1.30
  -1   1 -13  604.74   26.50
   1  -1  13  669.63   26.90
   4  -1  13   49.60    3.60
  -5   1 -13    8.20    1.60
  -6   1 -13  135.29    7.30
  -6   1 -13  135.29    5.80
  -7   1 -13    8.50    0.80
  -7   1 -13    5.50    1.60
  -8   1 -13   28.40    2.90
  -9   1 -13   58.39    3.80
 -10   1 -13    3.80    0.90
  10   0 -13   21.20    1.40
   9   0 -13  172.68    8.00
  -9   0  13  190.48    8.10
   8   0 -13    2.20    0.90
   8   0 -13    2.20    0.80
  -8   0  13    2.00    0.80
   7   0 -13   93.59    4.60
   7   0 -13   85.49    4.80
   7   0 -13   93.39    4.60
  -7   0  13   97.79    5.20
   6   0 -13  372.46   16.20
   6   0 -13  383.46   16.10
   6   0 -13  372.06   16.20
   6   0 -13  394.76   16.60
   5   0 -13   25.70    1.80
   5   0 -13   28.90    2.00
   5   0 -13   26.50    2.10
   5   0 -13   27.30    2.50
   4   0 -13  280.57   11.90
   4   0 -13  271.47   12.10
   4   0 -13  275.77   12.50
   4   0 -13  285.57   12.10
   3   0 -13    5.30    0.90
   3   0 -13    5.50    1.00
   3   0 -13    4.60    0.70
   3   0 -13    4.60    1.10
  -3   0  13    5.90    1.20
   2   0 -13    3.40    0.90
   2   0 -13    2.20    0.50
  -2   0  13    3.60    1.00
   1   0 -13    5.80    0.90
  -1   0  13    7.10    1.20
   0   0 -13  272.87   11.60
   0   0 -13  265.77   11.50
   0   0  13  267.77   11.50
   0   0  13  275.57   11.90
  -1   0 -13   48.90    2.80
   1   0  13   56.99    3.60
  -3   0 -13   57.59    4.00
  -5   0 -13   44.30    3.40
  -6   0 -13  909.71   37.30
  -6   0 -13  910.91   38.70
  -7   0 -13  155.18    6.80
  -7   0 -13  160.48    8.20
  -8   0 -13   12.20    1.90
  -9   0 -13   33.10    2.70
 -10   0 -13  103.19    5.10
  10  -1 -13   75.19    3.60
   9  -1 -13   42.40    2.50
   8  -1 -13   74.89    4.20
   8  -1 -13   80.69    4.00
   7  -1 -13   32.20    2.60
   7  -1 -13   31.50    2.30
   6  -1 -13   15.10    1.90
   6  -1 -13   14.80    1.40
   6  -1 -13   17.00    1.70
   6  -1 -13   15.10    1.60
   5  -1 -13  300.17   13.30
   5  -1 -13  292.27   12.70
   5  -1 -13  302.07   12.90
   5  -1 -13  296.37   12.90
   4  -1 -13   60.29    3.70
   4  -1 -13   62.89    3.40
   4  -1 -13   67.09    3.20
   4  -1 -13   64.79    3.50
   3  -1 -13  118.79    6.20
   3  -1 -13  137.69    5.90
   3  -1 -13  129.19    5.90
   3  -1 -13  116.19    5.50
  -3   1  13  127.69    6.20
   2  -1 -13   31.00    1.70
   2  -1 -13   30.70    2.00
  -2   1  13   33.10    2.40
   1  -1 -13   36.00    2.20
   1  -1 -13   35.80    1.80
  -1   1  13   37.20    2.50
   0  -1 -13   68.99    3.50
   0   1  13   67.49    3.70
  -1  -1 -13    4.50    0.90
  -2  -1 -13   55.09    3.00
  -3  -1 -13   11.40    1.90
  -3  -1 -13   12.10    1.30
  -4  -1 -13   55.69    3.10
  -5  -1 -13  272.87   11.50
  -5  -1 -13  290.67   12.10
  -5  -1 -13  265.07   12.80
  -6  -1 -13   20.10    1.90
  -6  -1 -13   23.30    2.70
  -6  -1 -13   22.80    1.40
  -7  -1 -13   14.50    1.20
  -7  -1 -13   12.90    2.00
  -7  -1 -13   14.10    1.40
  -8  -1 -13   14.20    2.10
  -8  -1 -13   15.20    1.40
  -9  -1 -13   21.70    2.00
   9   1  13   20.50    1.30
  10  -2 -13   50.49    2.60
   9  -2 -13    2.20    0.80
  -9   2  13    1.80    0.70
   8  -2 -13    7.00    1.10
   8  -2 -13    5.20    1.20
   7  -2 -13   55.79    3.30
   7  -2 -13   57.69    3.60
   6  -2 -13   72.49    3.90
   6  -2 -13   71.19    3.90
   6  -2 -13   72.09    4.20
   6  -2 -13   77.29    3.70
   5  -2 -13  339.07   14.30
   5  -2 -13  330.17   14.80
   5  -2 -13  341.37   14.50
   5  -2 -13  334.67   14.50
   4  -2 -13   72.69    3.80
   4  -2 -13   72.09    4.10
   4  -2 -13   72.69    3.80
   4  -2 -13   72.39    3.50
   3  -2 -13  195.48    8.50
   3  -2 -13  196.08    8.30
   3  -2 -13  178.98    8.80
   3  -2 -13  198.38    8.60
  -3   2  13  188.48    8.90
   2  -2 -13  174.58    7.70
   2  -2 -13  171.98    7.40
   2  -2 -13  175.08    7.80
  -2   2  13  167.08    8.00
   1  -2 -13    4.00    0.80
   1  -2 -13    3.10    0.50
  -1   2  13    2.50    0.80
   0  -2 -13   16.60    1.40
   0   2  13   15.30    1.50
  -1  -2 -13    1.40    0.70
  -1  -2 -13    1.90    0.70
  -2  -2 -13    5.90    1.00
  -2  -2 -13    9.30    1.80
  -2  -2 -13    4.50    1.10
  -3  -2 -13   31.00    2.10
  -3  -2 -13   30.70    1.60
  -4  -2 -13   62.29    3.30
  -4  -2 -13   54.99    2.70
  -5  -2 -13  280.97   12.00
  -5  -2 -13  266.37   11.50
  -5  -2 -13  273.57   12.80
  -6  -2 -13   21.40    1.50
  -6  -2 -13   23.00    1.90
  -6  -2 -13   25.00    2.70
  -7  -2 -13   32.10    3.00
  -7  -2 -13   35.70    2.30
  -8  -2 -13   72.59    4.30
  -8  -2 -13   72.09    3.60
  -9  -2 -13   13.80    1.50
  -9  -2 -13   13.30    0.90
   9   2  13   13.40    1.30
  10  -3 -13   10.10    1.00
   9  -3 -13   16.00    1.60
  -9   3  13   16.70    1.50
   8  -3 -13    8.30    1.20
   8  -3 -13    9.20    1.40
   7  -3 -13  319.27   13.60
   7  -3 -13  305.97   13.90
   6  -3 -13   24.00    2.00
   6  -3 -13   22.00    2.00
   6  -3 -13   24.40    1.80
   6  -3 -13   25.70    2.30
   5  -3 -13    2.70    0.90
   5  -3 -13    4.70    0.90
   5  -3 -13    4.00    1.20
   5  -3 -13    5.70    1.10
   4  -3 -13    0.60    0.70
   4  -3 -13    0.60    0.90
   4  -3 -13    0.60    0.60
   4  -3 -13    0.00    0.70
   3  -3 -13  601.64   23.30
   3  -3 -13  538.85   23.80
   3  -3 -13  558.84   23.60
   3  -3 -13  546.85   23.50
  -3   3  13  561.24   24.00
   2  -3 -13   52.59    2.60
   2  -3 -13   52.49    3.40
   2  -3 -13   57.19    3.00
   2  -3 -13   48.20    2.80
  -2   3  13   47.00    3.10
   1  -3 -13  276.27   12.10
   1  -3 -13  280.27   11.70
  -1   3  13  276.97   12.30
   0  -3 -13    0.00    0.60
   0  -3 -13    1.10    0.40
   0  -3 -13    0.80    0.60
  -1  -3 -13   35.90    2.40
  -1  -3 -13   36.80    1.90
  -1  -3 -13   43.10    3.30
  -1  -3 -13   39.10    2.40
  -2  -3 -13  123.49    6.10
  -2  -3 -13  128.79    6.10
  -2  -3 -13  134.19    5.60
  -3  -3 -13  262.17   10.70
  -3  -3 -13  241.88   11.10
  -4  -3 -13  128.99    5.90
  -4  -3 -13  146.69    6.50
  -5  -3 -13    3.90    1.30
  -5  -3 -13    1.50    0.90
  -5  -3 -13    2.30    0.60
  -6  -3 -13    0.20    0.80
  -6  -3 -13    0.60    0.50
  -7  -3 -13   87.39    5.10
  -7  -3 -13   92.29    4.40
  -8  -3 -13    7.20    0.90
  -8  -3 -13    7.50    0.70
  -8  -3 -13    7.40    1.30
  10  -4 -13    2.40    0.70
 -10   4  13    3.70    0.70
   9  -4 -13   20.70    1.70
  -9   4  13   20.00    1.70
   8  -4 -13   27.50    2.10
  -8   4  13   25.80    2.00
   7  -4 -13   57.89    3.70
   7  -4 -13   60.19    3.40
   6  -4 -13   94.39    4.80
   6  -4 -13   93.99    4.80
   6  -4 -13  105.59    5.30
   6  -4 -13   94.09    4.60
   5  -4 -13    7.80    1.20
   5  -4 -13    8.10    1.00
   5  -4 -13    6.50    1.30
   5  -4 -13    5.40    1.00
   4  -4 -13  228.18    9.80
   4  -4 -13  222.88    9.60
   4  -4 -13  214.88   10.10
   4  -4 -13  222.08    9.90
   3  -4 -13   99.79    4.80
   3  -4 -13   96.99    4.40
   3  -4 -13   89.69    4.60
   3  -4 -13   91.29    4.90
   2  -4 -13  145.69    6.80
   2  -4 -13  155.78    6.60
   2  -4 -13  151.38    7.00
  -2   4  13  144.39    7.10
   1  -4 -13   62.89    3.50
   1  -4 -13   60.59    3.40
   1  -4 -13   66.19    3.10
  -1   4  13   62.79    4.00
   0  -4 -13   11.40    1.30
   0  -4 -13   11.70    1.00
   0  -4 -13   10.90    1.90
   0  -4 -13    9.90    1.40
  -1  -4 -13    1.40    0.50
  -1  -4 -13    0.90    0.80
  -1  -4 -13    0.70    0.70
  -2  -4 -13    7.80    0.90
  -2  -4 -13    7.20    1.20
  -2  -4 -13    5.00    1.10
  -3  -4 -13   47.40    2.90
  -3  -4 -13   45.50    2.40
  -4  -4 -13    9.70    1.00
  -4  -4 -13    9.40    1.40
  -5  -4 -13   42.30    2.70
  -5  -4 -13   40.60    3.30
  -5  -4 -13   37.80    2.20
  -6  -4 -13   39.10    3.10
  -6  -4 -13   37.40    2.50
  -7  -4 -13   16.70    1.50
  -7  -4 -13   21.60    2.10
  -8  -4 -13  139.69    6.70
  -8  -4 -13  133.59    5.80
   8   4  13  141.79    6.00
  10  -5 -13    1.00    0.60
 -10   5  13    0.40    0.50
   9  -5 -13   37.50    2.30
  -9   5  13   35.00    2.20
   8  -5 -13   86.29    4.40
  -8   5  13   87.09    4.40
   7  -5 -13   40.60    2.60
  -7   5  13   38.90    2.60
   6  -5 -13   92.79    4.60
   6  -5 -13   94.69    4.80
   6  -5 -13   99.39    5.20
   6  -5 -13  104.19    4.90
   5  -5 -13  126.89    6.50
   5  -5 -13  128.59    6.20
   5  -5 -13  132.59    6.00
   5  -5 -13  134.09    6.20
   4  -5 -13   32.50    2.40
   4  -5 -13   35.90    2.10
   4  -5 -13   33.30    2.50
   4  -5 -13   33.70    2.30
   3  -5 -13   93.19    4.30
   3  -5 -13   89.09    4.70
   3  -5 -13   94.59    4.60
   3  -5 -13   87.39    4.60
   2  -5 -13    1.30    0.80
   2  -5 -13    1.30    0.60
   2  -5 -13    0.90    0.80
   1  -5 -13   39.90    2.50
   1  -5 -13   34.20    2.40
   1  -5 -13   40.10    2.10
   0  -5 -13   56.89    2.90
   0  -5 -13   57.09    3.20
   0  -5 -13   56.39    3.30
  -1  -5 -13   67.69    3.60
  -1  -5 -13   61.89    3.60
  -1  -5 -13   63.79    3.10
  -2  -5 -13  207.88    9.10
  -2  -5 -13  217.18    9.50
  -2  -5 -13  208.38    9.40
  -3  -5 -13    3.60    0.70
  -3  -5 -13    3.80    1.10
  -4  -5 -13   54.89    2.90
  -4  -5 -13   63.89    3.40
  -5  -5 -13    8.90    1.60
  -5  -5 -13    7.00    1.20
  -6  -5 -13   61.09    2.80
  -6  -5 -13   62.59    3.80
  -6  -5 -13   58.49    3.20
  -7  -5 -13   38.30    2.50
  -7  -5 -13   38.90    1.90
  -7  -5 -13   39.90    2.10
  10  -6 -13  107.49    4.70
 -10   6  13   99.09    4.70
   9  -6 -13  107.69    4.80
   9  -6 -13  110.69    5.20
  -9   6  13  123.19    5.30
   8  -6 -13    6.70    1.10
  -8   6  13    6.50    1.10
   7  -6 -13    0.40    0.80
  -7   6  13    0.40    0.80
   6  -6 -13   35.70    2.30
   6  -6 -13   30.10    2.30
  -6   6  13   36.40    2.40
   5  -6 -13  436.76   18.60
   5  -6 -13  452.75   18.60
   5  -6 -13  410.56   18.30
  -5   6  13  449.56   18.60
   4  -6 -13   16.10    1.60
   4  -6 -13   15.10    1.70
   4  -6 -13   15.20    1.40
  -4   6  13   16.90    1.60
   3  -6 -13   21.10    1.60
   3  -6 -13   19.10    1.90
   3  -6 -13   21.20    1.90
   2  -6 -13   67.29    3.40
   2  -6 -13   68.99    3.60
   2  -6 -13   66.09    3.80
   1  -6 -13   10.60    1.30
   1  -6 -13   12.50    1.20
   1  -6 -13   12.60    1.50
   0  -6 -13   59.69    3.50
   0  -6 -13   68.39    3.70
   0  -6 -13   64.29    3.20
  -1  -6 -13  156.78    7.50
  -1  -6 -13  166.28    7.30
  -1  -6 -13  169.78    7.60
  -2  -6 -13   38.40    2.50
  -2  -6 -13   35.90    2.50
  -2  -6 -13   35.30    2.10
  -3  -6 -13  185.68    8.50
  -3  -6 -13  184.58    8.20
   3   6  13  191.68    8.30
  -4  -6 -13  158.28    7.30
  -5  -6 -13   81.39    3.70
  -5  -6 -13   86.59    4.20
  -6  -6 -13   48.20    2.50
  -6  -6 -13   50.99    2.30
  -6  -6 -13   44.40    2.80
 -10   7  13   17.10    1.30
   9  -7 -13  173.08    7.90
  -9   7  13  189.18    8.00
   8  -7 -13   58.09    3.10
  -8   7  13   57.39    3.20
   7  -7 -13  113.19    5.40
  -7   7  13  113.89    5.50
   6  -7 -13   84.49    4.30
  -6   7  13   85.29    4.40
   5  -7 -13  203.08    9.20
   5  -7 -13  207.88    9.50
   5  -7 -13  216.08    9.40
  -5   7  13  216.48    9.40
   4  -7 -13  162.68    7.10
   4  -7 -13  159.38    7.30
   4  -7 -13  160.38    7.40
  -4   7  13  153.88    7.20
   3  -7 -13   57.69    3.30
   3  -7 -13   55.49    3.20
   3  -7 -13   53.79    3.00
   2  -7 -13   82.49    4.30
   2  -7 -13   72.99    3.80
   2  -7 -13   80.09    4.10
   1  -7 -13  432.76   18.70
   1  -7 -13  449.06   18.60
   1  -7 -13  430.86   18.30
   0  -7 -13  155.18    7.40
   0  -7 -13  161.08    7.60
   0  -7 -13  169.08    7.20
  -1  -7 -13   29.70    1.90
  -1  -7 -13   34.80    2.30
  -1  -7 -13   29.40    2.30
  -2  -7 -13   28.30    1.80
  -2  -7 -13   30.40    2.20
   2   7  13   28.20    2.00
  -3  -7 -13   14.50    1.50
  -3  -7 -13   14.00    1.20
   3   7  13   12.50    1.30
  -4  -7 -13    0.60    0.70
  -4  -7 -13    1.40    0.50
  -5  -7 -13    4.30    0.70
  -5  -7 -13    2.60    0.50
 -10   8  13   15.00    1.30
  -9   8  13   15.40    1.30
   8  -8 -13   65.69    3.00
  -8   8  13   71.89    3.50
   7  -8 -13   44.90    2.30
  -7   8  13   48.30    2.80
   6  -8 -13   88.19    4.50
   6  -8 -13   92.09    4.10
  -6   8  13   90.69    4.50
   5  -8 -13   20.10    1.70
   5  -8 -13   19.10    1.80
   5  -8 -13   24.20    1.50
  -5   8  13   21.20    1.80
   4  -8 -13   13.90    1.50
   4  -8 -13   15.50    1.30
   4  -8 -13   13.50    1.50
   3  -8 -13  126.99    6.10
   3  -8 -13  118.49    5.70
   3  -8 -13  127.79    5.90
   3  -8 -13  123.69    5.50
   2  -8 -13  194.88    9.10
   2  -8 -13  208.58    9.30
   2  -8 -13  224.88    9.50
   2  -8 -13  211.58    8.90
   1  -8 -13  114.19    5.20
   1  -8 -13  103.99    4.80
   1  -8 -13   99.59    4.90
   1  -8 -13  110.49    5.40
   0  -8 -13  109.49    4.80
   0  -8 -13   97.49    5.00
   0  -8 -13  114.49    5.30
   0   8  13  112.49    5.10
  -1  -8 -13    5.30    0.70
  -1  -8 -13    5.40    1.00
   1   8  13    4.60    0.90
  -2  -8 -13    3.60    0.90
  -2  -8 -13    3.60    0.60
   2   8  13    4.30    0.80
  -3  -8 -13    5.70    0.90
  -3  -8 -13    6.40    0.70
   3   8  13    5.70    0.80
  -4  -8 -13    3.40    0.70
  -4  -8 -13    4.50    0.50
  -9   9  13    4.20    0.70
  -8   9  13    1.50    0.70
   7  -9 -13  211.68    8.90
  -7   9  13  216.88    9.40
   6  -9 -13   49.20    2.40
  -6   9  13   49.40    2.80
   5  -9 -13    1.80    0.60
   5  -9 -13    2.10    0.80
   4  -9 -13    1.80    0.60
   4  -9 -13    3.30    1.00
   3  -9 -13  138.49    6.70
   3  -9 -13  145.49    6.20
   2  -9 -13   62.69    3.00
   1  -9 -13  141.09    6.10
  -1   9  13  141.79    6.50
   0  -9 -13   12.40    1.30
   0  -9 -13   12.40    1.00
   0   9  13   12.90    1.30
  -1  -9 -13   34.00    2.10
  -1  -9 -13   34.10    1.80
   1   9  13   36.10    2.10
  -2  -9 -13   26.80    1.50
  -2  -9 -13   28.00    1.70
   2   9  13   28.50    1.70
  -3  -9 -13  226.98    9.40
  -8  10  13   42.40    2.20
  -7  10  13    2.80    0.70
   6 -10 -13    3.20    0.50
  -6  10  13    4.10    0.80
   5 -10 -13    0.90    0.40
   4 -10 -13   33.70    1.70
  -4  10  13   31.60    2.00
   3 -10 -13   43.10    2.20
  -3  10  13   44.30    2.50
   2 -10 -13   30.20    1.70
  -2  10  13   31.80    2.00
   1 -10 -13   15.10    1.10
  -1  10  13   16.20    1.40
   0 -10 -13   18.10    1.10
   0  10  13   14.50    1.30
  -1 -10 -13   18.00    1.10
   1  10  13   17.10    1.30
  -2 -10 -13  205.38    8.50
   4 -11 -13   47.50    2.10
  -4  11  13   45.80    2.40
   3 -11 -13   40.50    1.80
  -3  11  13   39.30    2.10
   2 -11 -13   45.90    2.10
  -2  11  13   50.09    2.40
  -1  11  13   19.80    1.70
  -2  11 -14   28.60    1.80
  -3  11 -14   21.00    1.60
  -4  11 -14    4.00    0.80
  -5  11 -14    2.40    0.70
   0  10 -14   38.40    2.50
   0  10 -14   39.30    2.30
  -1  10 -14   22.70    1.80
  -1  10 -14   23.00    2.30
  -2  10 -14   53.09    3.40
  -2  10 -14   49.99    3.00
  -3  10 -14   35.80    2.50
  -3  10 -14   43.20    3.00
  -4  10 -14    1.80    0.90
  -4  10 -14    1.60    1.00
  -5  10 -14   15.10    2.10
  -5  10 -14   17.10    1.80
  -5  10 -14   17.80    1.60
  -6  10 -14    4.40    1.40
  -6  10 -14    2.60    0.80
  -6  10 -14    1.70    0.70
  -7  10 -14   15.50    2.20
   2   9 -14    9.50    1.00
   2   9 -14   10.70    1.10
  -2  -9  14    9.60    1.20
   1   9 -14    9.80    1.20
   1   9 -14   10.00    1.50
   0   9 -14   27.30    2.10
   0   9 -14   25.90    2.70
  -1   9 -14    2.60    1.40
  -1   9 -14   -0.40    0.90
  -2   9 -14   31.00    2.40
  -2   9 -14   32.20    2.90
  -3   9 -14    4.40    1.10
  -3   9 -14    5.10    1.30
  -4   9 -14  368.56   16.10
  -4   9 -14  378.06   16.00
  -4   9 -14  361.76   16.50
  -5   9 -14    1.70    0.90
  -5   9 -14    1.40    1.00
  -5   9 -14    2.70    1.60
  -6   9 -14    6.10    1.00
  -6   9 -14    4.40    1.50
  -6   9 -14    4.80    1.10
  -7   9 -14    3.40    1.30
  -7   9 -14    2.40    0.90
  -8   9 -14   83.59    4.40
  -8   9 -14   92.89    4.90
   3   8 -14  119.69    6.70
   3   8 -14  134.89    6.00
  -3  -8  14  133.79    6.10
   2   8 -14   20.20    1.70
   2   8 -14   18.60    2.10
   2   8 -14   20.90    1.80
   1   8 -14   82.59    4.20
   1   8 -14   79.39    4.80
   1   8 -14   82.99    4.40
   0   8 -14   82.59    4.70
   0   8 -14   67.69    4.10
   0   8 -14   70.39    3.80
  -1   8 -14    9.90    1.50
  -1   8 -14   15.90    2.10
  -1   8 -14    9.80    1.10
  -2   8 -14    9.10    1.50
  -2   8 -14    8.70    1.70
  -2   8 -14    8.10    1.00
  -3   8 -14  245.78   11.10
  -3   8 -14  259.67   11.30
  -3   8 -14  236.78   10.40
  -4   8 -14  189.78    8.80
  -4   8 -14  182.08    7.90
  -4   8 -14  181.88    9.30
  -4   8 -14  183.48    8.60
  -5   8 -14    7.80    1.30
  -5   8 -14    6.90    1.70
  -5   8 -14    8.40    1.50
  -6   8 -14   84.29    5.10
  -6   8 -14   88.29    4.70
  -7   8 -14  133.99    7.00
  -7   8 -14  134.79    6.50
  -8   8 -14   12.20    1.70
  -8   8 -14   12.20    1.50
  -9   8 -14   80.49    4.40
  -5  -7  14    0.10    0.60
   4   7 -14  178.68    8.00
  -4  -7  14  180.88    8.10
   3   7 -14  293.57   13.10
   3   7 -14  303.37   13.20
  -3  -7  14  313.27   13.20
   2   7 -14  166.68    7.90
   2   7 -14  155.48    7.30
   2   7 -14  157.48    7.50
   1   7 -14    5.00    1.20
   1   7 -14    7.10    1.80
   1   7 -14    3.60    1.10
   1   7 -14    5.10    0.90
   0   7 -14    4.50    1.60
   0   7 -14    3.50    0.80
   0   7 -14    4.20    1.00
   0   7 -14    5.10    1.30
  -1   7 -14    8.20    1.50
  -1   7 -14    8.60    1.00
  -1   7 -14    7.50    1.70
  -2   7 -14  183.88    8.70
  -2   7 -14  173.98    8.40
  -3   7 -14  405.26   16.90
  -3   7 -14  391.96   17.10
  -3   7 -14  373.46   16.20
  -4   7 -14  131.09    5.80
  -4   7 -14  130.49    7.10
  -4   7 -14  131.89    6.50
  -4   7 -14  138.29    6.70
  -5   7 -14   47.40    2.30
  -5   7 -14   46.10    3.20
  -5   7 -14   48.50    3.70
  -6   7 -14  338.47   15.10
  -6   7 -14  350.56   15.70
  -7   7 -14   15.70    2.30
  -7   7 -14   18.90    1.90
  -8   7 -14    4.30    1.00
  -8   7 -14    3.60    1.20
  -9   7 -14   29.10    2.40
  -9   7 -14   26.00    1.90
   5   6 -14  131.59    5.80
  -5  -6  14  122.89    5.90
   4   6 -14   40.70    2.50
   4   6 -14   37.90    2.60
  -4  -6  14   42.60    2.70
   3   6 -14   10.10    1.80
   3   6 -14   10.80    1.60
   3   6 -14   12.40    1.30
   3   6 -14   12.30    1.50
   2   6 -14  116.99    5.60
   2   6 -14  131.19    6.30
   2   6 -14  125.59    6.00
   2   6 -14  127.29    6.70
   1   6 -14   76.09    4.20
   1   6 -14   79.99    4.90
   1   6 -14   80.39    3.80
   1   6 -14   78.29    4.40
   0   6 -14    6.70    1.20
   0   6 -14    4.20    1.30
   0   6 -14    7.60    1.70
   0   6 -14    6.60    1.00
  -1   6 -14  140.19    6.20
  -1   6 -14  145.99    7.20
  -1   6 -14  140.19    7.00
  -2   6 -14   33.50    2.70
  -2   6 -14   30.20    2.50
  -2   6 -14   29.60    1.70
  -3   6 -14  149.88    6.50
  -3   6 -14  148.09    7.20
  -3   6 -14  152.98    7.40
  -4   6 -14  111.19    4.90
  -4   6 -14  118.39    5.90
  -4   6 -14  108.79    5.60
  -5   6 -14  326.27   14.00
  -5   6 -14  312.57   14.40
  -5   6 -14  304.47   13.00
  -6   6 -14   33.30    3.10
  -6   6 -14   34.30    2.70
  -6   6 -14   33.50    1.80
  -7   6 -14  153.38    7.50
  -7   6 -14  160.28    8.10
  -8   6 -14   21.00    2.00
  -8   6 -14   22.70    2.50
  -9   6 -14    3.60    0.90
  -9   6 -14    2.60    1.10
 -10   6 -14   17.00    1.70
   6   5 -14   80.69    3.90
  -6  -5  14   83.19    4.10
   5   5 -14   32.40    2.20
   5   5 -14   33.50    2.30
  -5  -5  14   31.20    2.30
   4   5 -14  176.28    8.10
   4   5 -14  187.38    8.30
   4   5 -14  165.68    7.80
  -4  -5  14  182.78    8.20
   3   5 -14   35.80    3.30
   3   5 -14   48.90    3.20
   3   5 -14   45.60    2.90
   3   5 -14   42.60    2.40
   2   5 -14   70.29    4.50
   2   5 -14   72.79    4.20
   2   5 -14   72.39    3.90
   2   5 -14   67.59    3.50
   1   5 -14  590.94   24.40
   1   5 -14  599.94   24.80
   1   5 -14  593.64   25.00
   1   5 -14  567.34   25.20
   0   5 -14  766.92   32.00
   0   5 -14  785.52   32.90
   0   5 -14  796.42   32.80
   0   5 -14  768.42   32.40
  -1   5 -14  211.08    8.90
  -1   5 -14  202.38    9.60
  -1   5 -14  216.18    9.80
  -2   5 -14    5.10    1.20
  -2   5 -14    4.80    1.20
  -3   5 -14    0.80    0.90
  -3   5 -14    0.50    0.90
  -4   5 -14   69.99    4.00
  -5   5 -14   19.20    2.40
  -5   5 -14   15.60    1.90
  -6   5 -14  328.67   15.10
  -6   5 -14  327.07   14.50
  -7   5 -14  108.19    5.00
  -7   5 -14  114.09    5.70
  -7   5 -14  122.19    6.50
  -8   5 -14   44.30    2.90
  -8   5 -14   45.60    3.50
  -9   5 -14    1.20    1.00
 -10   5 -14   86.59    4.60
   7   4 -14   29.20    1.80
  -7  -4  14   31.80    2.00
   6   4 -14    5.50    1.00
  -6  -4  14    5.00    1.00
   5   4 -14   99.99    5.20
   5   4 -14   95.89    4.90
  -5  -4  14  105.49    5.20
   4   4 -14  105.59    4.90
   4   4 -14  109.29    5.20
   4   4 -14  110.19    5.50
  -4  -4  14   96.19    5.20
   3   4 -14    5.90    1.20
   3   4 -14    7.00    1.00
   3   4 -14   13.10    1.90
   3   4 -14    5.50    1.40
   2   4 -14   50.89    3.80
   2   4 -14   47.80    3.00
   2   4 -14   48.80    2.60
   2   4 -14   51.29    3.40
   1   4 -14   28.30    1.70
   1   4 -14   28.90    2.80
   1   4 -14   21.90    2.00
   1   4 -14   28.10    2.40
   0   4 -14  429.96   18.00
   0   4 -14  446.16   18.50
   0   4 -14  428.96   18.90
   0   4 -14  437.66   18.80
  -1   4 -14  114.39    5.80
  -1   4 -14  111.69    5.70
  -2   4 -14  128.79    6.20
  -2   4 -14  119.79    6.10
  -3   4 -14   28.40    2.30
  -4   4 -14   50.99    3.20
  -5   4 -14  162.58    7.60
  -5   4 -14  156.98    8.10
  -6   4 -14   98.59    5.80
  -7   4 -14   15.10    2.20
  -7   4 -14   16.70    1.10
  -8   4 -14    4.60    1.40
  -9   4 -14  248.48   11.50
 -10   4 -14    7.30    1.20
   7   3 -14    5.20    0.90
  -7  -3  14    6.60    1.00
   6   3 -14   81.59    4.20
   6   3 -14   82.79    4.40
  -6  -3  14   85.29    4.40
   5   3 -14   16.10    1.40
   5   3 -14   11.20    1.60
   5   3 -14   12.10    1.50
  -5  -3  14   11.40    1.50
   4   3 -14   56.49    3.00
   4   3 -14   60.09    3.40
   4   3 -14   60.69    3.70
  -4  -3  14   55.29    3.40
   3   3 -14   37.70    3.00
   3   3 -14   44.60    2.40
   3   3 -14   43.10    3.20
   3   3 -14   40.40    2.80
   2   3 -14  407.36   17.20
   2   3 -14  422.96   18.10
   2   3 -14  402.46   17.90
   2   3 -14  420.36   17.70
   1   3 -14  914.61   37.30
   1   3 -14  869.71   37.00
   1   3 -14  890.61   37.30
   1   3 -14  890.51   36.50
   0   3 -14   14.30    1.50
   0   3 -14   15.50    1.80
   0   3 -14   15.20    1.80
  -1   3 -14  121.19    6.00
  -1   3 -14  119.99    6.00
  -1   3 -14  128.19    6.50
  -5   3 -14   28.10    2.70
  -6   3 -14    2.90    1.30
  -7   3 -14   29.30    2.90
  -7   3 -14   29.30    1.60
  -8   3 -14  251.97   11.90
  -9   3 -14    2.70    1.10
 -10   3 -14    3.70    1.00
   8   2 -14    0.20    0.70
  -8  -2  14    1.00    0.60
   7   2 -14  264.57   11.30
   7   2 -14  247.38   11.00
   7   2 -14  247.08   11.00
  -7  -2  14  266.37   11.20
   6   2 -14    3.10    0.90
   6   2 -14    2.90    1.30
   6   2 -14    3.20    1.10
   6   2 -14    1.60    0.60
  -6  -2  14    3.30    0.90
   5   2 -14    2.90    1.00
   5   2 -14    2.50    0.80
   5   2 -14    4.80    1.20
  -5  -2  14    3.00    1.00
   4   2 -14  128.19    6.00
   4   2 -14  124.29    6.20
   4   2 -14  121.59    5.60
  -4  -2  14  120.19    6.00
   3   2 -14   45.60    2.40
   3   2 -14   44.60    3.20
   3   2 -14   44.80    3.10
   3   2 -14   40.90    2.70
   2   2 -14    8.40    1.40
   2   2 -14    8.20    1.20
   2   2 -14    6.50    0.80
   1   2 -14    7.80    1.20
   1   2 -14    8.80    1.40
   1   2 -14   10.20    0.90
   0   2 -14   10.00    1.30
   0   2 -14    9.90    1.50
   0  -2  14   11.30    1.50
  -1   2 -14   90.09    4.80
  -1   2 -14   93.09    4.50
   1  -2  14   97.29    5.00
  -5   2 -14   10.10    1.70
  -6   2 -14    1.20    1.10
  -7   2 -14   39.20    2.00
  -7   2 -14   42.10    3.40
  -8   2 -14  112.19    6.10
  -9   2 -14   52.99    3.50
 -10   2 -14    2.70    0.90
   9   1 -14   42.30    2.20
   8   1 -14  393.76   15.90
  -8  -1  14  362.36   16.00
   7   1 -14    8.00    1.10
   7   1 -14    7.50    1.30
   7   1 -14    9.40    1.20
  -7  -1  14   10.60    1.30
   6   1 -14    7.80    1.20
   6   1 -14    7.70    1.00
   6   1 -14    8.80    1.30
   6   1 -14    7.90    1.40
  -6  -1  14    8.40    1.20
   5   1 -14   85.59    4.60
   5   1 -14   82.99    4.30
   5   1 -14   81.59    4.20
   5   1 -14   78.09    4.00
   4   1 -14  404.16   17.30
   4   1 -14  427.76   17.60
   4   1 -14  406.06   17.50
   4   1 -14  412.26   17.90
   3   1 -14   36.00    2.10
   3   1 -14   36.90    2.30
   3   1 -14   35.80    2.80
   3   1 -14   39.80    2.50
   2   1 -14    6.60    0.80
   2   1 -14    7.10    1.40
   2   1 -14    6.70    1.10
   1   1 -14    5.60    1.00
   1   1 -14    5.40    1.20
   1   1 -14    3.90    0.50
  -1  -1  14    2.70    1.00
   0   1 -14   10.10    1.20
   0   1 -14   10.70    1.40
   0  -1  14   10.70    1.50
  -1   1 -14  216.28    9.40
   1  -1  14  213.78    9.80
  -5   1 -14   47.90    3.70
  -6   1 -14   26.00    2.80
  -7   1 -14    2.50    0.50
  -7   1 -14    2.50    1.30
  -8   1 -14    3.60    1.30
  -9   1 -14   41.20    2.90
   9   0 -14   51.59    2.70
   8   0 -14    4.50    0.90
   8   0 -14    4.70    1.00
   7   0 -14   15.10    1.70
   7   0 -14   15.70    1.60
   7   0 -14   13.70    1.50
   6   0 -14   16.60    1.70
   6   0 -14   17.90    1.80
   6   0 -14   19.40    2.10
   6   0 -14   16.90    1.50
   5   0 -14  342.07   14.60
   5   0 -14  329.67   15.10
   5   0 -14  354.56   14.80
   5   0 -14  345.47   14.80
   4   0 -14    4.40    1.00
   4   0 -14    4.30    0.80
   4   0 -14    6.40    1.30
   4   0 -14    4.50    1.00
   3   0 -14   38.10    2.70
   3   0 -14   35.60    2.40
   3   0 -14   40.50    2.10
   3   0 -14   38.40    2.50
   2   0 -14    2.30    0.80
   2   0 -14    3.30    0.90
   2   0 -14    2.20    1.00
   2   0 -14    3.30    0.60
  -2   0  14    3.30    1.00
   1   0 -14   14.70    1.40
   1   0 -14   15.80    1.60
   1   0 -14   14.20    1.30
   1   0 -14   16.10    1.80
  -1   0  14   18.30    1.80
   0   0 -14   22.90    1.70
   0   0 -14   22.60    1.70
   0   0  14   24.90    2.00
  -1   0 -14   76.89    3.90
  -1   0 -14   78.79    3.90
  -6   0 -14    1.10    0.40
  -6   0 -14    2.00    1.20
  -7   0 -14   16.70    2.30
  -7   0 -14   13.60    1.20
  -8   0 -14   62.39    4.00
  -9   0 -14    5.60    1.10
   9  -1 -14   17.00    1.40
   8  -1 -14    6.20    1.20
   8  -1 -14    5.20    1.00
   7  -1 -14   49.20    3.00
   7  -1 -14   49.50    3.20
   7  -1 -14   49.20    2.80
   6  -1 -14  167.38    7.90
   6  -1 -14  171.68    8.30
   6  -1 -14  180.88    7.80
   6  -1 -14  175.48    7.90
   5  -1 -14   24.90    2.10
   5  -1 -14   24.30    1.80
   5  -1 -14   29.30    2.50
   5  -1 -14   28.60    2.10
   4  -1 -14  247.48   10.90
   4  -1 -14  253.67   10.70
   4  -1 -14  251.97   11.00
   4  -1 -14  243.38   11.30
   3  -1 -14    3.60    0.90
   3  -1 -14    2.50    1.10
   3  -1 -14    3.30    1.00
   3  -1 -14    4.20    0.70
   2  -1 -14    3.80    1.10
   2  -1 -14    3.30    0.60
   2  -1 -14    5.70    1.00
   2  -1 -14    4.80    0.90
  -2   1  14    4.70    1.10
   1  -1 -14    4.00    0.90
   1  -1 -14    4.70    1.10
   1  -1 -14    5.40    0.60
   1  -1 -14    4.30    0.90
  -1   1  14    4.80    1.00
   0  -1 -14  509.35   20.40
   0  -1 -14  456.55   20.30
   0   1  14  484.45   20.60
  -1  -1 -14   30.00    2.00
  -1  -1 -14   32.70    2.10
  -2  -1 -14   96.89    4.70
  -3  -1 -14   56.89    3.10
  -4  -1 -14  536.45   22.60
  -5  -1 -14   29.30    2.10
  -5  -1 -14   30.20    1.70
  -6  -1 -14  101.99    4.50
  -6  -1 -14  102.29    5.80
  -6  -1 -14   98.69    5.00
  -7  -1 -14   71.19    3.60
  -7  -1 -14   69.39    4.40
  -8  -1 -14   41.40    3.00
  -8  -1 -14   38.30    2.20
  -9  -1 -14   13.30    1.50
  10  -2 -14    2.10    0.60
   9  -2 -14   10.30    1.10
  -9   2  14   11.70    1.20
   8  -2 -14    6.90    1.10
   8  -2 -14    7.10    1.20
   7  -2 -14   88.29    4.80
   7  -2 -14   87.89    4.50
   6  -2 -14   19.60    1.90
   6  -2 -14   18.60    1.80
   6  -2 -14   19.50    1.60
   6  -2 -14   17.20    2.00
   5  -2 -14  160.68    7.50
   5  -2 -14  169.58    8.00
   5  -2 -14  164.28    7.30
   5  -2 -14  165.18    7.60
   4  -2 -14   18.80    1.40
   4  -2 -14   12.50    1.40
   4  -2 -14   14.60    1.80
   4  -2 -14   18.80    1.70
   3  -2 -14  164.38    7.50
   3  -2 -14  178.98    7.50
   3  -2 -14  158.98    7.70
   3  -2 -14  156.18    7.10
   2  -2 -14   15.10    1.10
   2  -2 -14   16.10    1.70
   2  -2 -14   15.50    1.70
   2  -2 -14   17.70    1.50
  -2   2  14   15.70    1.70
   1  -2 -14   17.70    1.10
   1  -2 -14   18.60    1.60
   1  -2 -14   15.70    1.50
  -1   2  14   18.00    1.70
   0  -2 -14   30.70    1.60
   0  -2 -14   27.90    2.00
   0  -2 -14   29.60    2.10
  -1  -2 -14   34.80    2.20
  -1  -2 -14   34.90    2.20
  -2  -2 -14    1.10    0.70
  -3  -2 -14   56.39    2.60
  -3  -2 -14   50.69    3.10
  -4  -2 -14  195.98    8.30
  -4  -2 -14  173.48    7.70
  -5  -2 -14  172.68    7.70
  -5  -2 -14  186.98    8.10
  -6  -2 -14    1.20    0.80
  -6  -2 -14    2.60    1.20
  -6  -2 -14    1.80    0.50
  -7  -2 -14   23.20    2.40
  -7  -2 -14   27.30    1.90
  -8  -2 -14    9.20    1.00
  -8  -2 -14    7.80    1.30
  10  -3 -14   11.80    1.10
   9  -3 -14   24.50    1.70
  -9   3  14   22.00    1.60
   8  -3 -14  145.79    6.90
   8  -3 -14  157.88    7.20
   7  -3 -14  114.99    5.80
   7  -3 -14  110.49    5.50
   6  -3 -14  116.79    5.40
   6  -3 -14  112.79    5.40
   6  -3 -14  109.59    5.70
   6  -3 -14  105.39    5.10
   5  -3 -14   80.09    4.10
   5  -3 -14   77.69    4.50
   5  -3 -14   74.29    4.20
   5  -3 -14   81.49    3.90
   4  -3 -14  110.89    5.20
   4  -3 -14  107.99    5.30
   4  -3 -14  104.29    5.50
   4  -3 -14  105.19    5.00
   3  -3 -14   36.90    2.50
   3  -3 -14   40.50    2.80
   3  -3 -14   38.10    2.40
   3  -3 -14   36.80    2.10
   2  -3 -14   87.39    4.20
   2  -3 -14   73.99    4.30
   2  -3 -14   82.19    3.80
   2  -3 -14   82.89    4.20
   1  -3 -14   98.49    4.70
   1  -3 -14   94.29    4.30
   1  -3 -14   95.39    4.60
  -1   3  14   89.99    4.90
   0  -3 -14   81.09    4.30
   0  -3 -14   89.09    4.00
   0  -3 -14   92.09    4.50
  -1  -3 -14   80.39    3.60
  -1  -3 -14   79.69    4.10
  -1  -3 -14   78.19    4.10
  -2  -3 -14   28.70    1.60
  -2  -3 -14   27.00    2.10
  -2  -3 -14   28.90    2.10
  -3  -3 -14  117.19    5.10
  -3  -3 -14  112.39    5.60
  -4  -3 -14    3.80    1.00
  -4  -3 -14    5.40    0.70
  -5  -3 -14  395.06   16.60
  -5  -3 -14  401.66   17.00
  -6  -3 -14  101.39    4.90
  -6  -3 -14  101.89    5.60
  -7  -3 -14   10.70    1.10
  -7  -3 -14    9.80    1.50
  -8  -3 -14   81.09    3.80
  -8  -3 -14   81.79    3.70
  -8  -3 -14   85.89    4.30
  10  -4 -14    9.80    1.00
 -10   4  14   10.70    1.00
   9  -4 -14    3.10    0.80
  -9   4  14    3.00    0.70
   8  -4 -14   17.90    1.70
  -8   4  14   17.90    1.70
   7  -4 -14   70.59    4.10
   7  -4 -14   70.09    3.80
   6  -4 -14   10.20    1.30
   6  -4 -14    8.20    1.30
   6  -4 -14    8.70    1.10
   6  -4 -14   11.40    1.70
   5  -4 -14   22.90    2.00
   5  -4 -14   21.30    1.70
   5  -4 -14   23.50    2.20
   5  -4 -14   23.00    2.00
   4  -4 -14    5.40    0.90
   4  -4 -14    4.50    1.20
   4  -4 -14    4.60    1.10
   4  -4 -14    5.10    1.00
   3  -4 -14   24.50    2.20
   3  -4 -14   26.50    1.70
   3  -4 -14   25.40    2.00
   3  -4 -14   24.90    2.10
   2  -4 -14   84.39    4.30
   2  -4 -14   81.49    3.90
   2  -4 -14   86.69    4.40
   1  -4 -14    3.70    1.00
   1  -4 -14    4.10    0.70
   1  -4 -14    4.30    1.00
   0  -4 -14   92.79    4.70
   0  -4 -14   91.99    4.20
   0  -4 -14   94.39    4.60
  -1  -4 -14   71.59    3.40
  -1  -4 -14   70.39    3.80
  -1  -4 -14   73.29    3.80
  -2  -4 -14    1.30    0.50
  -2  -4 -14    0.00    0.80
  -2  -4 -14    0.90    0.80
  -3  -4 -14   38.00    2.10
  -3  -4 -14   43.10    2.70
  -4  -4 -14  115.49    5.20
  -4  -4 -14  113.99    5.60
  -5  -4 -14   57.49    3.30
  -6  -4 -14   11.90    1.70
  -6  -4 -14   11.30    1.30
  -7  -4 -14    8.40    0.90
  -7  -4 -14    8.40    1.20
  10  -5 -14   57.39    2.80
 -10   5  14   56.39    2.80
   9  -5 -14   57.69    3.00
  -9   5  14   57.09    3.00
   8  -5 -14    8.00    1.10
  -8   5  14    7.10    1.10
   7  -5 -14    0.90    0.80
  -7   5  14    1.70    0.90
   6  -5 -14    3.20    0.80
   6  -5 -14    3.60    0.90
   6  -5 -14    3.50    1.00
   6  -5 -14    2.30    1.10
   5  -5 -14    7.60    1.20
   5  -5 -14    7.00    1.20
   5  -5 -14    6.60    1.40
   4  -5 -14  354.36   15.60
   4  -5 -14  357.06   15.90
   4  -5 -14  373.46   15.40
   4  -5 -14  373.56   15.70
   3  -5 -14   29.80    2.20
   3  -5 -14   27.30    1.80
   3  -5 -14   24.80    2.00
   3  -5 -14   27.60    2.30
   2  -5 -14    5.10    1.20
   2  -5 -14    5.50    0.90
   2  -5 -14    6.90    1.10
   1  -5 -14    2.20    0.90
   1  -5 -14   -0.50    0.80
   1  -5 -14    1.80    0.60
   0  -5 -14  139.49    6.70
   0  -5 -14  143.19    6.60
   0  -5 -14  141.19    6.30
  -1  -5 -14   80.79    4.30
  -1  -5 -14   82.89    3.90
  -1  -5 -14   85.59    4.30
  -2  -5 -14   20.80    1.80
  -2  -5 -14   19.90    1.40
  -2  -5 -14   19.60    1.90
  -3  -5 -14    1.40    0.90
  -3  -5 -14    0.30    0.50
  -4  -5 -14    2.40    0.90
  -4  -5 -14    1.90    0.60
  -5  -5 -14    4.40    1.00
  -6  -5 -14   17.70    1.40
  -6  -5 -14   14.70    1.10
  -7  -5 -14  206.58    8.90
 -10   6  14   52.59    2.60
   9  -6 -14   51.39    2.80
  -9   6  14   57.69    2.90
   8  -6 -14   56.49    3.10
  -8   6  14   57.79    3.10
   7  -6 -14   10.80    1.30
  -7   6  14   10.40    1.30
   6  -6 -14   26.50    2.10
   6  -6 -14   26.60    2.10
  -6   6  14   27.60    2.20
   5  -6 -14  314.67   13.60
   5  -6 -14  315.37   13.70
   5  -6 -14  303.17   13.40
  -5   6  14  330.57   13.70
   4  -6 -14   14.10    1.60
   4  -6 -14   12.50    1.30
   4  -6 -14   11.50    1.40
  -4   6  14   15.30    1.50
   3  -6 -14  314.97   13.80
   3  -6 -14  321.27   13.90
   3  -6 -14  318.47   13.50
   2  -6 -14    4.50    0.80
   2  -6 -14    4.80    1.00
   2  -6 -14    6.30    1.20
   1  -6 -14    4.20    1.10
   1  -6 -14    3.60    1.00
   1  -6 -14    4.80    0.80
   0  -6 -14   -0.30    0.50
   0  -6 -14    0.40    0.80
   0  -6 -14    0.70    0.90
  -1  -6 -14   55.99    2.90
  -1  -6 -14   57.99    3.30
  -1  -6 -14   56.09    3.30
  -2  -6 -14   18.60    1.80
  -2  -6 -14   20.70    1.80
  -2  -6 -14   19.00    1.40
  -3  -6 -14  234.88   10.20
  -3  -6 -14  221.98   10.50
  -4  -6 -14    5.80    1.00
  -5  -6 -14   65.49    3.30
  -5  -6 -14   62.79    2.90
  -6  -6 -14   29.90    1.50
  -6  -6 -14   33.60    1.80
   9  -7 -14   41.40    2.30
  -9   7  14   48.10    2.40
   8  -7 -14    4.60    0.60
   8  -7 -14    3.90    0.80
  -8   7  14    4.20    0.90
   7  -7 -14   27.40    2.00
  -7   7  14   29.30    2.10
   6  -7 -14   12.60    1.70
   6  -7 -14   13.10    1.40
  -6   7  14   12.00    1.40
   5  -7 -14   67.09    3.80
   5  -7 -14   77.09    3.90
   5  -7 -14   67.29    3.80
  -5   7  14   73.69    3.80
   4  -7 -14   42.10    2.60
   4  -7 -14   42.30    2.70
   4  -7 -14   39.20    2.40
   3  -7 -14    1.00    0.80
   3  -7 -14    1.70    0.70
   3  -7 -14    1.80    1.00
   2  -7 -14  133.69    6.30
   2  -7 -14  127.59    6.10
   2  -7 -14  128.59    5.90
   1  -7 -14    3.80    1.00
   1  -7 -14    3.90    0.80
   1  -7 -14    3.40    1.10
   0  -7 -14  106.49    5.40
   0  -7 -14  119.49    5.60
   0  -7 -14  111.39    5.20
  -1  -7 -14   11.90    1.40
  -1  -7 -14   12.30    1.20
  -1  -7 -14   11.90    1.50
  -2  -7 -14   14.90    1.50
   2   7  14   16.20    1.40
  -3  -7 -14   20.10    1.30
  -3  -7 -14   18.80    1.70
  -4  -7 -14   80.09    3.80
  -4  -7 -14   75.49    3.40
  -5  -7 -14    1.10    0.50
  -5  -7 -14    0.80    0.40
  -9   8  14    4.70    0.70
   8  -8 -14   59.39    2.60
  -8   8  14   60.59    3.10
   7  -8 -14  105.29    5.60
   7  -8 -14  107.19    4.50
  -7   8  14  100.89    4.90
   6  -8 -14   19.10    1.30
   6  -8 -14   20.70    1.60
  -6   8  14   17.90    1.60
   5  -8 -14   32.00    1.80
   5  -8 -14   29.50    2.20
   5  -8 -14   31.00    2.10
  -5   8  14   29.70    2.00
   4  -8 -14   15.10    1.60
   4  -8 -14   16.10    1.30
   4  -8 -14   14.20    1.50
   3  -8 -14  330.67   15.00
   3  -8 -14  369.66   15.20
   3  -8 -14  364.96   15.30
   3  -8 -14  358.76   14.80
   2  -8 -14   61.99    3.00
   2  -8 -14   60.69    3.10
   2  -8 -14   63.29    3.50
   2  -8 -14   56.69    3.30
   1  -8 -14   91.19    4.20
   1  -8 -14   94.59    4.60
   1  -8 -14   89.29    4.80
   1  -8 -14   99.39    4.80
   0  -8 -14    6.20    0.80
   0  -8 -14    5.50    1.00
   0   8  14    6.80    1.00
  -1  -8 -14   68.29    3.60
  -1  -8 -14   71.59    3.30
   1   8  14   72.39    3.60
  -2  -8 -14   18.10    1.20
  -2  -8 -14   16.40    1.50
   2   8  14   16.10    1.40
  -3  -8 -14   47.90    2.60
  -3  -8 -14   52.09    2.40
  -4  -8 -14    0.00    0.30
  -8   9  14   26.00    1.70
   7  -9 -14    3.80    0.50
  -7   9  14    3.60    0.80
   6  -9 -14   18.10    1.20
  -6   9  14   17.40    1.50
   5  -9 -14   44.30    2.60
   5  -9 -14   47.60    2.30
   4  -9 -14    3.70    0.60
   4  -9 -14    3.80    0.90
   3  -9 -14   30.70    1.70
   3  -9 -14   27.00    2.10
   2  -9 -14  325.17   14.50
   2  -9 -14  338.97   13.90
  -2   9  14  337.07   14.20
   1  -9 -14   46.30    2.20
   1  -9 -14   41.60    2.50
  -1   9  14   43.60    2.50
   0  -9 -14  255.07   10.80
   0  -9 -14  250.27   11.00
   0   9  14  266.57   11.00
  -1  -9 -14  146.59    6.50
  -1  -9 -14  146.49    6.20
   1   9  14  146.09    6.50
  -2  -9 -14   48.40    2.60
  -2  -9 -14   55.49    2.40
  -3  -9 -14   29.70    1.40
  -7  10  14   22.90    1.80
   6 -10 -14    8.40    0.60
   5 -10 -14    5.30    0.60
   4 -10 -14    6.60    0.70
  -4  10  14    8.40    0.90
   3 -10 -14  160.88    6.80
  -3  10  14  160.38    7.10
   2 -10 -14  207.18    8.80
  -2  10  14  211.48    9.00
   1 -10 -14  107.89    4.60
  -1  10  14  106.79    4.90
   0 -10 -14   24.80    1.30
   0  10  14   25.70    1.60
  -1 -10 -14  151.28    6.30
  -1  10 -15   58.69    3.40
  -1  10 -15   55.69    3.00
  -2  10 -15   64.49    3.70
  -2  10 -15   61.79    3.30
  -3  10 -15    2.30    1.10
  -3  10 -15   -0.50    0.60
  -4  10 -15  188.58    8.20
  -4  10 -15  179.88    8.40
  -5  10 -15   44.50    2.70
  -5  10 -15   42.20    2.50
   1   9 -15    5.40    1.10
   1   9 -15    6.50    1.00
   0   9 -15   77.39    3.90
   0   9 -15   73.89    4.20
  -1   9 -15   29.80    2.30
  -1   9 -15   36.00    2.90
  -2   9 -15    0.30    0.80
  -2   9 -15    2.40    1.30
  -3   9 -15  350.16   14.90
  -3   9 -15  336.07   15.00
  -4   9 -15    2.40    0.90
  -4   9 -15    1.20    1.00
  -5   9 -15   31.70    3.00
  -5   9 -15   27.70    2.20
  -5   9 -15   29.60    2.10
  -6   9 -15    3.50    1.40
  -6   9 -15    4.60    1.00
  -7   9 -15   21.90    1.80
  -7   9 -15   24.90    2.40
   3   8 -15    0.60    0.60
  -3  -8  15    0.90    0.60
   2   8 -15  116.99    5.40
   2   8 -15  119.19    5.60
   1   8 -15   33.50    2.10
   1   8 -15   28.60    2.70
   1   8 -15   32.20    2.30
   0   8 -15   16.70    1.70
   0   8 -15   18.30    1.90
   0   8 -15   19.90    2.30
  -1   8 -15   82.69    4.70
  -1   8 -15   71.29    4.20
  -2   8 -15  151.98    7.50
  -2   8 -15  149.29    7.20
  -3   8 -15  123.79    6.10
  -3   8 -15  119.19    6.20
  -4   8 -15  116.79    6.00
  -4   8 -15  119.39    5.80
  -5   8 -15   12.50    1.60
  -5   8 -15   12.50    1.50
  -5   8 -15   14.90    2.10
  -6   8 -15    2.30    1.20
  -6   8 -15    3.20    1.00
  -7   8 -15    3.20    0.90
  -7   8 -15    3.30    1.10
  -8   8 -15   47.80    3.10
   4   7 -15    0.60    0.60
  -4  -7  15    0.10    0.50
   3   7 -15  134.49    6.10
   3   7 -15  137.19    6.30
  -3  -7  15  130.19    6.20
   2   7 -15   57.29    3.80
   2   7 -15   63.19    3.50
   2   7 -15   60.59    3.30
   1   7 -15  231.58   10.50
   1   7 -15  216.08   10.10
   1   7 -15  220.68    9.90
   0   7 -15  325.87   14.60
   0   7 -15  327.17   14.00
   0   7 -15  325.17   14.30
   0   7 -15  324.97   13.70
  -1   7 -15  105.09    5.70
  -1   7 -15  101.09    4.60
  -1   7 -15   95.19    5.20
  -2   7 -15   19.60    2.10
  -2   7 -15   17.30    2.10
  -2   7 -15   16.30    1.40
  -3   7 -15   81.89    4.40
  -3   7 -15   78.09    4.50
  -3   7 -15   74.69    3.60
  -4   7 -15    3.50    1.20
  -4   7 -15    2.60    0.60
  -4   7 -15    4.00    1.10
  -5   7 -15  134.49    7.10
  -5   7 -15  139.59    6.80
  -6   7 -15    0.50    1.00
  -6   7 -15    0.70    0.90
  -7   7 -15  142.79    7.40
  -7   7 -15  153.38    7.00
  -8   7 -15    5.90    1.30
  -8   7 -15    5.70    1.00
  -9   7 -15    4.40    1.00
   5   6 -15    0.40    0.50
  -5  -6  15    1.00    0.60
   4   6 -15   56.69    3.10
   4   6 -15   52.79    3.10
  -4  -6  15   59.89    3.20
   3   6 -15  211.58    9.60
   3   6 -15  210.68    9.40
   2   6 -15  105.89    5.50
   2   6 -15  104.99    5.80
   2   6 -15  110.69    5.30
   2   6 -15  108.59    5.00
   1   6 -15    9.70    1.90
   1   6 -15    9.60    1.50
   1   6 -15   11.30    1.40
   1   6 -15   10.20    1.10
   0   6 -15  138.49    6.30
   0   6 -15  150.18    7.30
   0   6 -15  139.69    6.60
   0   6 -15  140.09    6.90
  -1   6 -15   29.00    2.80
  -1   6 -15   26.90    1.80
  -1   6 -15   28.90    2.50
  -2   6 -15   42.10    3.10
  -2   6 -15   47.70    2.40
  -2   6 -15   52.09    3.30
  -3   6 -15   49.50    3.30
  -3   6 -15   52.89    3.40
  -3   6 -15   50.99    2.50
  -4   6 -15   86.89    4.90
  -4   6 -15   96.99    5.10
  -5   6 -15    3.70    1.20
  -5   6 -15    4.40    1.40
  -6   6 -15  357.96   16.10
  -6   6 -15  352.56   15.50
  -7   6 -15   34.40    2.50
  -7   6 -15   36.40    3.00
  -8   6 -15    6.30    1.10
  -8   6 -15    5.10    1.30
  -9   6 -15    0.20    0.70
   6   5 -15    0.80    0.50
  -6  -5  15    0.70    0.50
   5   5 -15  191.78    8.40
   5   5 -15  199.08    8.50
  -5  -5  15  179.08    8.40
   4   5 -15   15.70    1.70
   4   5 -15   15.60    1.60
  -4  -5  15   17.10    1.80
   3   5 -15    5.80    1.50
   3   5 -15    9.40    1.30
   3   5 -15    7.90    1.00
   3   5 -15    8.50    1.40
   2   5 -15   24.80    2.30
   2   5 -15   20.90    2.40
   2   5 -15   20.00    1.50
   2   5 -15   21.00    2.00
   1   5 -15  203.28    9.20
   1   5 -15  185.48    8.20
   1   5 -15  184.18    8.90
   1   5 -15  182.78    8.60
   0   5 -15    1.10    0.60
   0   5 -15    1.80    1.40
   0   5 -15    0.50    0.80
   0   5 -15    1.30    1.00
  -1   5 -15  497.55   20.40
  -1   5 -15  465.15   21.30
  -1   5 -15  521.35   21.30
  -2   5 -15    3.40    1.10
  -2   5 -15    5.50    1.30
  -3   5 -15   30.00    2.60
  -3   5 -15   34.60    2.50
  -4   5 -15    0.80    0.90
  -5   5 -15  328.27   14.50
  -6   5 -15   23.40    2.20
  -6   5 -15   26.00    2.70
  -7   5 -15   79.99    4.80
  -8   5 -15   21.10    2.30
  -9   5 -15   89.89    4.80
   6   4 -15  138.49    6.40
  -6  -4  15  144.99    6.50
   5   4 -15   11.40    1.30
   5   4 -15   12.40    1.50
  -5  -4  15   12.90    1.60
   4   4 -15   40.60    2.60
   4   4 -15   37.40    2.20
   4   4 -15   42.00    2.90
  -4  -4  15   37.80    2.60
   3   4 -15  121.59    6.10
   3   4 -15  109.29    5.40
   3   4 -15  111.79    6.20
   3   4 -15  137.49    5.90
   2   4 -15   30.40    2.70
   2   4 -15   33.80    2.00
   2   4 -15   36.80    2.50
   2   4 -15   30.80    3.10
   1   4 -15   43.10    2.90
   1   4 -15   46.60    3.20
   1   4 -15   43.80    2.40
   1   4 -15   51.69    3.70
   0   4 -15  238.38   10.60
   0   4 -15  223.38    9.80
   0   4 -15  230.78   10.70
   0   4 -15  237.98   10.30
  -1   4 -15   45.30    3.10
  -1   4 -15   43.40    3.00
  -2   4 -15   99.79    5.10
  -2   4 -15   93.89    5.00
  -3   4 -15    7.20    1.30
  -6   4 -15   11.00    1.80
  -7   4 -15   21.80    2.50
  -8   4 -15   76.39    4.60
  -9   4 -15    8.80    1.40
   7   3 -15  105.39    4.80
  -7  -3  15  104.79    4.90
   6   3 -15   20.50    1.90
   6   3 -15   22.00    1.70
  -6  -3  15   23.40    1.90
   5   3 -15    6.20    1.20
   5   3 -15    6.30    1.10
  -5  -3  15    4.80    1.00
   4   3 -15   10.90    1.50
   4   3 -15    8.60    1.00
   4   3 -15    9.80    1.60
  -4  -3  15    9.10    1.30
   3   3 -15  183.68    9.40
   3   3 -15  207.88    9.10
   3   3 -15  206.78    9.40
   3   3 -15  199.98    8.70
   2   3 -15   20.20    2.40
   2   3 -15   23.90    2.30
   2   3 -15   19.90    1.90
   2   3 -15   20.90    1.50
   1   3 -15  327.37   14.00
   1   3 -15  315.37   13.60
   1   3 -15  322.77   13.20
   1   3 -15  288.87   14.10
   0   3 -15   53.79    3.40
   0   3 -15   56.19    3.10
  -1   3 -15  504.05   21.50
  -6   3 -15    0.30    1.00
  -7   3 -15   64.49    4.20
  -8   3 -15    0.90    1.00
  -9   3 -15  115.39    5.90
   7   2 -15   17.40    1.40
   7   2 -15   17.70    1.60
  -7  -2  15   15.70    1.50
   6   2 -15    3.00    1.00
   6   2 -15    3.40    0.90
  -6  -2  15    2.60    0.90
   5   2 -15   19.20    1.80
   5   2 -15   20.20    1.60
   5   2 -15   17.70    2.00
  -5  -2  15   20.60    1.90
   4   2 -15   14.40    1.60
   4   2 -15   17.60    2.00
   4   2 -15   15.50    1.40
  -4  -2  15   14.40    1.70
   3   2 -15  150.08    6.50
   3   2 -15  140.19    7.20
   3   2 -15  147.19    6.90
   2   2 -15   32.90    2.40
   2   2 -15   33.20    2.70
   2   2 -15   33.70    1.90
   1   2 -15    2.70    0.60
   1   2 -15    2.20    0.90
   1   2 -15    0.90    1.00
   0   2 -15   57.09    3.50
   0   2 -15   61.19    3.30
  -1   2 -15   34.40    2.20
  -1   2 -15   33.50    2.50
  -6   2 -15    2.60    1.20
  -7   2 -15    4.80    1.40
  -8   2 -15  149.69    7.50
  -9   2 -15   49.40    3.20
   8   1 -15   20.20    1.40
   7   1 -15   58.19    3.30
   7   1 -15   58.19    3.00
   7   1 -15   54.29    3.00
   6   1 -15   12.70    1.40
   6   1 -15   11.70    1.60
   6   1 -15   10.80    1.30
   6   1 -15   12.10    1.40
   5   1 -15    2.00    1.20
   5   1 -15    4.90    1.00
   5   1 -15    4.00    0.80
   5   1 -15    4.90    1.10
   4   1 -15   70.89    4.30
   4   1 -15   72.49    3.90
   4   1 -15   77.09    3.70
   4   1 -15   72.29    3.90
   3   1 -15   32.20    1.90
   3   1 -15   30.70    2.50
   3   1 -15   29.80    2.30
   2   1 -15  212.08    9.00
   2   1 -15  206.68    9.70
   2   1 -15  210.48    9.40
   1   1 -15    7.80    1.40
   1   1 -15    5.50    1.10
   1   1 -15    8.00    0.80
   0   1 -15  261.47   11.50
   0   1 -15  266.57   11.80
  -1   1 -15  103.19    4.90
  -6   1 -15    0.90    1.00
  -7   1 -15   30.20    2.70
  -8   1 -15    0.90    0.90
  -9   1 -15   27.80    2.20
   9   0 -15   17.60    1.20
   8   0 -15    2.40    0.80
   8   0 -15    1.60    0.60
   7   0 -15    0.40    0.90
   7   0 -15    1.60    0.70
   7   0 -15   -0.50    0.70
   6   0 -15   25.00    1.70
   6   0 -15   25.30    2.00
   6   0 -15   24.30    2.00
   6   0 -15   24.60    2.30
   5   0 -15   71.59    3.60
   5   0 -15   71.19    4.30
   5   0 -15   71.29    4.00
   5   0 -15   79.29    3.90
   4   0 -15   16.50    1.70
   4   0 -15   14.10    1.50
   4   0 -15   17.60    1.40
   4   0 -15   14.10    1.90
   3   0 -15  171.38    8.00
   3   0 -15  180.18    8.50
   3   0 -15  181.68    8.20
   3   0 -15  179.08    7.80
   2   0 -15  119.89    5.40
   2   0 -15  112.79    5.70
   2   0 -15  110.09    5.40
   2   0 -15  106.79    5.00
   1   0 -15    2.30    0.50
   1   0 -15    4.20    1.10
   1   0 -15    3.40    0.80
   1   0 -15    3.10    0.90
   0   0 -15   60.69    3.20
   0   0 -15   62.49    3.40
  -1   0 -15    2.90    0.80
  -6   0 -15   97.79    5.40
  -6   0 -15   90.99    4.20
  -7   0 -15   56.59    3.80
  -8   0 -15    8.60    1.40
   9  -1 -15   71.89    3.40
   8  -1 -15   -0.20    0.60
   8  -1 -15    0.50    0.70
   7  -1 -15   13.20    1.40
   7  -1 -15   12.30    1.30
   7  -1 -15   12.50    1.60
   6  -1 -15  114.59    5.70
   6  -1 -15  108.19    5.30
   6  -1 -15  110.79    5.30
   6  -1 -15  105.59    5.10
   5  -1 -15  516.95   22.30
   5  -1 -15  533.15   22.00
   5  -1 -15  495.65   22.00
   5  -1 -15  534.15   21.70
   4  -1 -15    6.80    1.10
   4  -1 -15    4.00    1.20
   4  -1 -15    5.30    0.80
   4  -1 -15    5.90    1.20
   3  -1 -15  376.16   15.60
   3  -1 -15  373.86   15.90
   3  -1 -15  364.66   16.30
   2  -1 -15    2.10    0.80
   2  -1 -15    1.70    1.00
   2  -1 -15    1.40    0.80
   2  -1 -15    2.30    0.60
   1  -1 -15   19.90    1.30
   1  -1 -15   17.60    1.90
   1  -1 -15   22.60    1.80
   1  -1 -15   24.00    1.80
   0  -1 -15   49.30    2.80
   0  -1 -15   52.19    3.00
  -1  -1 -15   19.60    1.80
  -1  -1 -15   23.10    1.70
  -2  -1 -15   11.60    1.30
  -3  -1 -15   64.29    3.50
  -4  -1 -15   79.59    4.10
  -5  -1 -15  234.58   10.10
  -5  -1 -15  222.48    9.60
  -6  -1 -15   32.90    2.20
  -6  -1 -15   33.60    2.90
  -7  -1 -15   10.50    1.60
  -7  -1 -15   10.10    1.10
  -8  -1 -15  141.89    6.90
   9  -2 -15    0.80    0.60
  -9   2  15    0.30    0.50
   8  -2 -15    5.80    1.10
   8  -2 -15    6.10    1.00
   7  -2 -15   23.70    2.00
   7  -2 -15   30.30    2.40
   7  -2 -15   22.50    1.80
   6  -2 -15  178.48    8.40
   6  -2 -15  202.38    8.80
   6  -2 -15  181.18    8.20
   6  -2 -15  183.78    8.40
   5  -2 -15  150.58    6.80
   5  -2 -15  135.59    7.00
   5  -2 -15  145.09    6.50
   5  -2 -15  143.99    6.80
   4  -2 -15   59.49    3.00
   4  -2 -15   56.19    3.40
   4  -2 -15   54.19    3.30
   4  -2 -15   60.89    3.70
   3  -2 -15   33.80    2.30
   3  -2 -15   32.90    2.60
   3  -2 -15   36.00    2.50
   3  -2 -15   35.80    2.00
   2  -2 -15   43.30    3.00
   2  -2 -15   52.39    2.90
   2  -2 -15   49.80    2.50
   2  -2 -15   48.10    3.00
   1  -2 -15    2.90    0.90
   1  -2 -15    1.90    0.50
   1  -2 -15    2.50    0.90
   0  -2 -15   17.00    1.10
   0  -2 -15   18.90    1.70
   0  -2 -15   18.60    1.60
  -1  -2 -15    0.40    0.70
  -1  -2 -15    1.40    0.80
  -2  -2 -15   29.40    2.10
  -3  -2 -15    1.10    0.80
  -3  -2 -15    1.40    0.40
  -4  -2 -15    9.70    1.30
  -4  -2 -15    9.60    0.90
  -5  -2 -15    4.60    0.70
  -5  -2 -15    4.40    1.00
  -6  -2 -15   41.10    2.50
  -7  -2 -15    3.20    1.10
  -7  -2 -15    3.60    0.70
  -8  -2 -15   10.90    1.60
   9  -3 -15   15.60    1.30
  -9   3  15   15.70    1.30
   8  -3 -15   56.59    3.10
   7  -3 -15  181.88    8.50
   7  -3 -15  179.78    8.10
   6  -3 -15    5.20    0.90
   6  -3 -15    6.80    1.20
   6  -3 -15    6.70    1.40
   6  -3 -15    6.20    1.10
   5  -3 -15   16.60    2.00
   5  -3 -15   16.10    1.70
   5  -3 -15   16.20    1.40
   5  -3 -15   15.90    1.70
   4  -3 -15  110.29    4.90
   4  -3 -15   98.89    5.40
   4  -3 -15  107.39    5.30
   4  -3 -15   99.89    5.10
   3  -3 -15    7.70    1.30
   3  -3 -15    9.10    1.30
   3  -3 -15    9.80    1.00
   3  -3 -15    7.80    1.20
   2  -3 -15    4.10    1.00
   2  -3 -15    4.40    1.00
   2  -3 -15    4.70    0.70
   1  -3 -15   16.70    1.20
   1  -3 -15   21.20    1.90
   1  -3 -15   20.30    1.70
   0  -3 -15    6.60    0.80
   0  -3 -15    7.60    1.10
   0  -3 -15    4.10    1.00
  -1  -3 -15    7.10    1.20
  -1  -3 -15    6.50    1.10
  -1  -3 -15    6.10    0.70
  -2  -3 -15    0.50    0.70
  -2  -3 -15    0.60    0.40
  -2  -3 -15    0.20    0.70
  -3  -3 -15  292.57   12.20
  -3  -3 -15  286.07   12.60
  -4  -3 -15   41.80    2.60
  -4  -3 -15   37.90    2.10
  -5  -3 -15  150.48    7.00
  -6  -3 -15   32.80    2.10
  -7  -3 -15   38.40    2.20
  -7  -3 -15   41.00    2.70
   9  -4 -15    8.50    1.00
  -9   4  15    9.50    1.00
   8  -4 -15  101.19    5.00
  -8   4  15  111.39    5.10
   7  -4 -15   23.40    2.00
   7  -4 -15   24.10    2.20
   6  -4 -15  226.98    9.90
   6  -4 -15  217.48    9.70
   6  -4 -15  231.68   10.30
   6  -4 -15  220.28    9.90
   5  -4 -15   -0.80    0.80
   5  -4 -15    0.60    0.80
   5  -4 -15    1.10    1.00
   5  -4 -15    0.60    0.60
   4  -4 -15  308.47   13.60
   4  -4 -15  319.17   13.50
   4  -4 -15  304.57   13.70
   4  -4 -15  309.27   13.20
   3  -4 -15   70.59    3.70
   3  -4 -15   66.59    3.40
   3  -4 -15   67.69    3.80
   3  -4 -15   66.79    3.90
   2  -4 -15   15.20    1.30
   2  -4 -15   13.30    1.50
   2  -4 -15   18.00    1.80
   1  -4 -15    0.80    0.80
   1  -4 -15    0.80    0.50
   1  -4 -15    1.50    0.90
   0  -4 -15   74.39    4.10
   0  -4 -15   84.59    4.10
   0  -4 -15   76.99    3.70
  -1  -4 -15   25.00    2.10
  -1  -4 -15   28.80    1.70
  -1  -4 -15   28.10    2.10
  -2  -4 -15  271.87   12.60
  -2  -4 -15  297.47   12.20
  -2  -4 -15  298.97   12.70
  -3  -4 -15   38.00    2.10
  -3  -4 -15   37.20    2.50
  -4  -4 -15  117.59    5.30
  -4  -4 -15  119.79    5.70
  -5  -4 -15    1.30    0.80
  -6  -4 -15   30.00    1.90
  -7  -4 -15    1.80    0.50
   9  -5 -15   17.40    1.40
  -9   5  15   21.20    1.40
   8  -5 -15   70.69    3.70
  -8   5  15   77.09    3.80
   7  -5 -15   54.59    3.10
  -7   5  15   53.99    3.10
   6  -5 -15   34.60    2.10
   6  -5 -15   34.50    2.30
   6  -5 -15   33.00    2.30
  -6   5  15   34.00    2.40
   5  -5 -15  137.19    6.80
   5  -5 -15  145.69    6.60
   5  -5 -15  138.39    6.30
   5  -5 -15  137.39    6.60
   4  -5 -15   45.90    3.00
   4  -5 -15   44.20    3.10
   4  -5 -15   47.80    2.70
   4  -5 -15   54.09    3.00
   3  -5 -15  285.47   12.40
   3  -5 -15  292.07   12.70
   3  -5 -15  295.17   12.80
   2  -5 -15   62.29    3.50
   2  -5 -15   63.09    3.10
   2  -5 -15   55.19    3.40
   1  -5 -15    3.70    1.10
   1  -5 -15    3.70    0.70
   1  -5 -15    5.40    1.10
   0  -5 -15    5.00    1.10
   0  -5 -15    3.30    0.70
   0  -5 -15    4.40    1.10
  -1  -5 -15   12.00    1.50
  -1  -5 -15   12.00    1.10
  -1  -5 -15   13.60    1.50
  -2  -5 -15  218.98    9.40
  -2  -5 -15  203.58    9.30
  -2  -5 -15  205.48    9.00
  -3  -5 -15   29.80    1.80
  -3  -5 -15   29.20    2.20
  -4  -5 -15   13.20    1.40
  -5  -5 -15   72.39    3.60
  -6  -5 -15    1.00    0.40
  -6  -5 -15    0.20    0.50
   9  -6 -15   42.70    2.20
  -9   6  15   42.10    2.30
   8  -6 -15    2.30    0.70
  -8   6  15    4.30    0.90
   7  -6 -15   38.10    2.40
  -7   6  15   40.80    2.50
   6  -6 -15  258.17   11.40
   6  -6 -15  254.27   11.40
  -6   6  15  270.97   11.40
   5  -6 -15    7.40    1.20
   5  -6 -15    6.90    0.90
   5  -6 -15    6.90    1.20
  -5   6  15    7.20    1.20
   4  -6 -15  333.27   14.10
   4  -6 -15  330.87   14.20
   4  -6 -15  325.97   13.90
  -4   6  15  318.37   14.00
   3  -6 -15   79.19    4.10
   3  -6 -15   72.69    3.90
   3  -6 -15   69.29    3.60
   2  -6 -15  199.88    9.40
   2  -6 -15  206.28    9.00
   2  -6 -15  215.38    9.30
   1  -6 -15   80.99    4.20
   1  -6 -15   79.09    4.10
   1  -6 -15   76.29    3.80
   0  -6 -15  167.68    7.50
   0  -6 -15  153.38    7.10
   0  -6 -15  165.58    7.50
  -1  -6 -15   78.09    3.80
  -1  -6 -15   79.99    4.20
  -1  -6 -15   78.59    4.20
  -2  -6 -15   18.80    1.80
   2   6  15   22.60    1.60
  -3  -6 -15   27.50    2.00
  -4  -6 -15  108.29    5.10
  -5  -6 -15    0.20    0.50
  -5  -6 -15   -0.20    0.30
  -9   7  15   14.10    1.10
   8  -7 -15    1.70    0.40
   8  -7 -15    3.00    0.70
  -8   7  15    2.20    0.70
   7  -7 -15   56.19    2.90
  -7   7  15   52.89    2.90
   6  -7 -15    0.20    0.70
   6  -7 -15    0.10    0.70
  -6   7  15    0.30    0.70
   5  -7 -15  290.87   12.50
   5  -7 -15  290.57   12.50
  -5   7  15  284.47   12.40
   4  -7 -15   66.39    3.40
   4  -7 -15   57.89    3.10
   4  -7 -15   62.89    3.50
   3  -7 -15   14.60    1.50
   3  -7 -15   12.70    1.50
   3  -7 -15   13.50    1.30
   2  -7 -15   30.80    2.30
   2  -7 -15   30.70    2.20
   2  -7 -15   24.70    1.80
   1  -7 -15  225.18    9.70
   1  -7 -15  208.28    9.40
   1  -7 -15  225.68    9.80
   0  -7 -15   43.30    2.80
   0  -7 -15   43.70    2.70
   0  -7 -15   42.80    2.40
  -1  -7 -15   29.90    2.20
   1   7  15   31.90    2.00
  -2  -7 -15   11.50    1.30
   2   7  15   11.90    1.20
  -3  -7 -15    3.00    0.50
  -3  -7 -15    3.10    0.80
  -4  -7 -15   40.40    2.20
  -4  -7 -15   41.50    2.00
  -8   8  15   13.90    1.20
   7  -8 -15    0.10    0.50
   7  -8 -15    0.30    0.40
  -7   8  15    0.10    0.50
   6  -8 -15   40.70    2.00
   6  -8 -15   37.80    2.30
  -6   8  15   39.70    2.30
   5  -8 -15   12.30    1.30
   5  -8 -15   12.70    1.00
   5  -8 -15   14.00    1.30
   4  -8 -15  257.87   10.80
   4  -8 -15  256.47   11.20
   4  -8 -15  260.07   11.30
   3  -8 -15   10.50    1.40
   3  -8 -15    9.50    1.20
   3  -8 -15   10.50    0.90
   2  -8 -15  368.46   15.40
   2  -8 -15  366.46   15.90
   2  -8 -15  380.16   15.80
   1  -8 -15    0.70    0.50
   1  -8 -15   -0.10    0.70
   1  -8 -15    1.30    0.80
   0  -8 -15  167.18    7.70
   0  -8 -15  168.88    7.40
   0   8  15  182.18    7.70
  -1  -8 -15   29.30    1.90
  -1  -8 -15   24.60    1.50
   1   8  15   25.60    1.70
  -2  -8 -15    2.40    0.50
  -2  -8 -15    3.70    0.70
   2   8  15    2.60    0.60
  -3  -8 -15    0.30    0.30
  -3  -8 -15    0.00    0.40
   7  -9 -15   10.90    0.70
  -7   9  15   10.70    1.00
   6  -9 -15   24.40    1.30
  -6   9  15   21.50    1.50
   5  -9 -15   36.50    2.30
   5  -9 -15   41.20    2.00
   4  -9 -15    0.70    0.70
   4  -9 -15    1.60    0.50
   3  -9 -15   29.80    2.30
   3  -9 -15   30.60    1.70
   2  -9 -15   17.30    1.20
   2  -9 -15   16.90    1.40
  -2   9  15   18.10    1.40
   1  -9 -15   30.30    1.90
   1  -9 -15   33.30    1.70
  -1   9  15   33.50    2.00
   0  -9 -15   17.30    1.10
   0  -9 -15   17.30    1.30
   0   9  15   17.00    1.30
  -1  -9 -15    3.20    0.50
  -1  -9 -15    2.50    0.60
   1   9  15    3.10    0.70
  -2  -9 -15   10.10    0.70
   5 -10 -15   68.89    3.00
   4 -10 -15   70.79    3.10
  -4  10  15   67.39    3.40
   3 -10 -15   31.00    1.50
  -3  10  15   27.80    1.70
   2 -10 -15   82.89    3.60
  -2  10  15   83.89    3.90
   1 -10 -15    3.70    0.50
   0 -10 -15   33.80    1.60
  -2  10 -16   18.00    1.40
  -3  10 -16   44.00    2.50
   0   9 -16   35.80    2.20
   0   9 -16   33.00    2.40
  -1   9 -16    0.50    0.70
  -1   9 -16    0.60    1.10
  -2   9 -16  104.89    5.10
  -2   9 -16  106.19    5.40
  -3   9 -16   25.60    2.40
  -3   9 -16   25.10    2.00
  -4   9 -16  143.49    6.80
  -4   9 -16  141.89    6.60
  -5   9 -16   17.60    1.50
  -5   9 -16   22.60    1.90
   2   8 -16    5.70    0.90
  -2  -8  16    7.40    0.90
   1   8 -16   60.59    3.20
   1   8 -16   55.89    2.90
   1   8 -16   52.89    3.40
   0   8 -16    0.80    0.80
   0   8 -16    0.90    1.20
  -1   8 -16   72.19    4.10
  -1   8 -16   82.79    4.60
  -2   8 -16    3.20    1.00
  -2   8 -16    7.70    1.60
  -3   8 -16  251.47   11.10
  -3   8 -16  240.18   10.90
  -4   8 -16   66.79    3.70
  -4   8 -16   69.79    3.90
  -5   8 -16   13.00    1.50
  -6   8 -16    3.30    0.90
  -7   8 -16   19.60    2.10
   3   7 -16   89.99    4.20
   3   7 -16   86.29    4.30
  -3  -7  16   89.89    4.30
   2   7 -16   71.89    3.70
   2   7 -16   67.29    3.40
   2   7 -16   60.19    3.80
   1   7 -16    2.50    1.30
   1   7 -16    1.50    0.80
   1   7 -16    2.30    1.00
   0   7 -16    5.30    1.00
   0   7 -16    8.40    1.40
   0   7 -16    7.90    1.70
  -1   7 -16    6.00    1.60
  -1   7 -16    4.50    1.20
  -2   7 -16  457.35   20.50
  -2   7 -16  495.35   20.40
  -3   7 -16    9.40    1.50
  -3   7 -16    9.30    1.40
  -4   7 -16   28.40    2.40
  -4   7 -16   28.60    2.30
  -5   7 -16   49.20    3.10
  -6   7 -16  110.09    5.90
  -6   7 -16  111.89    5.50
  -7   7 -16   12.00    1.70
  -7   7 -16    9.80    1.30
  -8   7 -16   35.80    2.50
   4   6 -16   13.20    1.30
   4   6 -16   14.10    1.40
  -4  -6  16   12.40    1.30
   3   6 -16   43.00    2.70
   3   6 -16   36.80    2.40
  -3  -6  16   41.80    2.50
   2   6 -16   46.90    3.30
   2   6 -16   45.00    2.80
   2   6 -16   47.40    3.10
   1   6 -16    9.40    1.80
   1   6 -16    8.20    1.20
   1   6 -16    6.40    1.30
   0   6 -16   44.40    3.00
   0   6 -16   37.10    2.20
   0   6 -16   34.60    2.50
   0   6 -16   45.50    3.50
  -1   6 -16    9.20    1.00
  -1   6 -16   11.10    1.80
  -1   6 -16   11.80    1.60
  -2   6 -16    2.30    0.60
  -2   6 -16    2.30    1.20
  -2   6 -16    1.20    1.00
  -3   6 -16    2.00    1.00
  -3   6 -16    1.80    1.00
  -4   6 -16    9.00    1.50
  -5   6 -16   92.79    4.90
  -6   6 -16    4.40    1.30
  -6   6 -16    5.80    1.10
  -7   6 -16   53.19    3.50
  -7   6 -16   50.69    3.40
  -8   6 -16   10.40    1.50
   5   5 -16    0.80    0.60
   5   5 -16    0.80    0.60
  -5  -5  16    0.50    0.60
   4   5 -16   77.19    4.10
   4   5 -16   82.19    4.00
  -4  -5  16   78.59    4.10
   3   5 -16   81.89    4.50
   3   5 -16   82.29    4.30
  -3  -5  16   86.49    4.30
   2   5 -16    2.60    1.10
   2   5 -16    2.70    0.70
   2   5 -16    1.40    1.30
   2   5 -16    2.80    1.00
   1   5 -16   11.00    1.90
   1   5 -16    6.10    1.40
   1   5 -16    7.60    0.90
   1   5 -16    7.90    1.30
   0   5 -16  119.29    6.30
   0   5 -16  130.29    5.60
   0   5 -16  121.09    5.90
   0   5 -16  127.39    6.60
  -1   5 -16   19.00    1.40
  -1   5 -16   20.30    2.20
  -1   5 -16   23.00    2.50
  -2   5 -16   17.60    2.00
  -2   5 -16   18.30    2.00
  -3   5 -16   31.10    2.50
  -3   5 -16   33.60    2.50
  -4   5 -16   80.89    4.50
  -6   5 -16   11.10    1.80
  -7   5 -16   18.20    2.10
  -8   5 -16    2.80    1.00
   6   4 -16    5.50    0.80
   6   4 -16    4.80    1.10
  -6  -4  16    5.10    0.90
   5   4 -16  165.98    7.40
   5   4 -16  165.68    7.50
  -5  -4  16  162.68    7.40
   4   4 -16    0.20    0.70
   4   4 -16    0.20    0.90
  -4  -4  16    0.10    0.70
   3   4 -16   22.40    2.20
   3   4 -16   23.60    2.00
   3   4 -16   19.80    2.30
   3   4 -16   22.80    1.60
   2   4 -16   14.80    1.90
   2   4 -16   19.00    1.90
   2   4 -16   19.80    1.40
   2   4 -16   18.90    2.30
   1   4 -16  586.24   23.40
   1   4 -16  529.05   23.00
   1   4 -16  551.84   23.70
   1   4 -16  561.44   23.80
   0   4 -16  344.27   13.90
   0   4 -16  329.77   13.50
   0   4 -16  294.87   13.90
   0   4 -16  290.07   13.00
  -1   4 -16  192.08    8.90
  -1   4 -16  186.18    9.10
  -2   4 -16   53.19    3.30
  -7   4 -16   16.70    2.10
  -8   4 -16    0.70    0.80
   6   3 -16    3.80    0.80
   6   3 -16    3.10    0.90
  -6  -3  16    3.80    0.80
   5   3 -16   26.00    1.90
   5   3 -16   26.20    2.20
  -5  -3  16   24.20    1.90
   4   3 -16    3.20    1.00
   4   3 -16    3.30    0.70
   4   3 -16    2.30    1.10
  -4  -3  16    2.00    0.90
   3   3 -16  130.19    6.70
   3   3 -16  140.19    6.50
   3   3 -16  136.09    6.80
   3   3 -16  134.29    6.10
   2   3 -16  378.96   15.90
   2   3 -16  358.06   15.40
   2   3 -16  370.16   16.20
   1   3 -16    3.00    1.20
   1   3 -16    3.30    0.60
   1   3 -16    3.30    1.00
   0   3 -16   68.19    3.70
   0   3 -16   64.89    3.90
  -1   3 -16   40.60    2.90
  -7   3 -16   11.40    1.70
  -8   3 -16  138.49    6.90
   7   2 -16   34.60    2.10
   7   2 -16   32.80    1.90
   6   2 -16   25.70    2.10
   6   2 -16   26.20    1.90
   5   2 -16   52.39    3.10
   5   2 -16   59.19    3.50
   4   2 -16   85.29    4.30
   4   2 -16   86.29    4.70
   4   2 -16   81.69    4.00
   3   2 -16   60.29    3.10
   3   2 -16   61.49    3.50
   3   2 -16   62.59    3.80
   2   2 -16  297.77   13.10
   2   2 -16  320.07   13.90
   2   2 -16  324.47   13.60
   1   2 -16   80.19    3.60
   1   2 -16   76.89    4.10
   1   2 -16   75.39    4.40
   0   2 -16    9.10    1.50
   0   2 -16    9.30    1.30
  -1   2 -16  225.68   11.50
  -1   2 -16  250.17   10.90
  -7   2 -16  384.76   17.00
  -8   2 -16    6.40    1.20
   7   1 -16   17.50    1.70
   7   1 -16   21.10    1.50
   7   1 -16   19.70    1.50
   6   1 -16   19.80    1.70
   6   1 -16   17.60    1.90
   6   1 -16   18.00    1.60
   5   1 -16   -0.20    1.00
   5   1 -16    0.10    0.70
   5   1 -16    0.60    0.80
   5   1 -16   -0.30    0.50
   4   1 -16   19.80    2.20
   4   1 -16   18.50    1.50
   4   1 -16   18.60    1.90
   3   1 -16    5.80    1.20
   3   1 -16    3.70    0.70
   3   1 -16    4.90    1.30
   2   1 -16   86.29    4.70
   2   1 -16   88.29    4.40
   2   1 -16   81.39    3.90
   1   1 -16    0.60    0.40
   1   1 -16    0.10    0.90
   1   1 -16    0.40    0.80
   0   1 -16  123.09    5.90
   0   1 -16  121.59    6.10
  -1   1 -16    4.40    1.00
  -7   1 -16    1.10    0.90
  -8   1 -16   22.90    2.00
   8   0 -16    8.00    0.90
   8   0 -16   10.90    1.10
   7   0 -16   19.00    1.50
   7   0 -16   19.40    1.80
   7   0 -16   16.10    1.50
   6   0 -16    3.60    0.90
   6   0 -16    3.00    0.90
   6   0 -16    2.50    1.10
   5   0 -16    9.40    1.10
   5   0 -16   10.90    1.60
   5   0 -16   13.30    1.50
   5   0 -16    9.70    1.30
   4   0 -16  249.58   11.20
   4   0 -16  246.28   10.50
   4   0 -16  238.08   10.80
   4   0 -16  243.48   10.80
   3   0 -16   18.00    1.80
   3   0 -16   21.30    1.50
   3   0 -16   23.40    2.00
   3   0 -16   22.50    2.20
   2   0 -16    3.30    0.90
   2   0 -16    2.50    0.60
   2   0 -16    2.70    1.00
   2   0 -16    1.70    1.10
   1   0 -16   35.10    2.30
   1   0 -16   30.30    2.50
   1   0 -16   31.10    2.30
   1   0 -16   32.30    1.70
   0   0 -16    1.10    0.80
   0   0 -16    0.40    0.70
  -1   0 -16   84.89    4.30
  -7   0 -16   35.80    2.70
  -8   0 -16   65.69    3.70
   8  -1 -16   13.50    1.30
   8  -1 -16   13.40    1.40
   7  -1 -16   78.69    3.90
   7  -1 -16   76.59    3.90
   7  -1 -16   78.19    4.20
   6  -1 -16   79.89    4.20
   6  -1 -16   85.59    4.60
   6  -1 -16   83.69    4.20
   5  -1 -16   42.90    2.50
   5  -1 -16   41.10    3.10
   5  -1 -16   44.20    2.80
   5  -1 -16   47.90    2.80
   4  -1 -16   51.19    2.80
   4  -1 -16   54.69    3.20
   4  -1 -16   51.09    3.10
   4  -1 -16   52.59    3.40
   3  -1 -16   15.70    1.70
   3  -1 -16   14.80    1.60
   3  -1 -16   13.30    1.20
   3  -1 -16   11.80    1.70
   2  -1 -16   12.10    1.40
   2  -1 -16   11.50    1.70
   2  -1 -16   13.00    1.60
   2  -1 -16   11.90    1.10
   1  -1 -16    0.80    0.40
   1  -1 -16    0.10    0.70
   1  -1 -16    0.10    0.90
   1  -1 -16    0.10    0.80
   0  -1 -16  395.16   16.40
   0  -1 -16  368.46   16.20
  -1  -1 -16   10.80    1.30
  -1  -1 -16   10.20    1.30
  -2  -1 -16   33.90    2.30
  -3  -1 -16   24.40    2.00
  -4  -1 -16    5.10    1.00
  -5  -1 -16    8.30    1.20
  -6  -1 -16   84.39    4.20
   9  -2 -16    1.70    0.50
   8  -2 -16    0.40    0.70
   8  -2 -16   -0.40    0.60
   7  -2 -16  165.58    7.50
   7  -2 -16  167.88    7.40
   7  -2 -16  166.38    7.80
   6  -2 -16    0.00    0.80
   6  -2 -16    0.20    1.00
   6  -2 -16    0.10    0.70
   6  -2 -16    0.30    0.70
   5  -2 -16   30.00    2.30
   5  -2 -16   27.40    2.60
   5  -2 -16   30.90    1.90
   5  -2 -16   27.50    2.20
   4  -2 -16   48.30    2.60
   4  -2 -16   44.90    3.00
   4  -2 -16   44.20    2.90
   3  -2 -16   63.99    4.00
   3  -2 -16   67.89    3.30
   3  -2 -16   66.39    3.70
   3  -2 -16   69.89    3.80
   2  -2 -16    8.30    1.20
   2  -2 -16    7.60    0.90
   2  -2 -16    8.10    1.30
   2  -2 -16    8.20    1.40
   1  -2 -16   51.29    3.00
   1  -2 -16   51.79    2.60
   1  -2 -16   51.29    3.10
   0  -2 -16    0.80    0.70
   0  -2 -16    0.30    0.80
   0  -2 -16    0.70    0.40
  -1  -2 -16  168.88    7.70
  -1  -2 -16  169.68    7.70
  -2  -2 -16    6.40    1.10
  -3  -2 -16   43.90    2.70
  -4  -2 -16   42.70    2.10
  -4  -2 -16   42.80    2.70
  -5  -2 -16  109.19    5.20
  -6  -2 -16    3.70    0.80
  -7  -2 -16   12.70    1.10
   9  -3 -16   35.00    1.90
  -9   3  16   36.00    1.90
   8  -3 -16  136.99    6.00
  -8   3  16  128.39    6.00
   7  -3 -16    1.30    0.90
   7  -3 -16   -0.60    0.70
   6  -3 -16   79.49    4.30
   6  -3 -16   88.39    4.60
   6  -3 -16   83.89    4.30
   5  -3 -16   79.69    4.10
   5  -3 -16   82.79    4.50
   5  -3 -16   79.19    4.20
   5  -3 -16   74.49    3.80
   4  -3 -16    3.80    1.10
   4  -3 -16    2.20    0.70
   4  -3 -16    1.80    1.10
   4  -3 -16    3.00    1.00
   3  -3 -16    5.60    1.20
   3  -3 -16    5.20    1.10
   3  -3 -16    5.50    0.80
   2  -3 -16   19.60    1.90
   2  -3 -16   19.80    1.40
   2  -3 -16   20.50    2.00
   1  -3 -16    0.50    0.50
   1  -3 -16    0.60    0.80
   1  -3 -16    1.10    0.80
   0  -3 -16    3.40    0.90
   0  -3 -16    3.30    1.00
   0  -3 -16    3.30    0.60
  -1  -3 -16   10.70    0.90
  -1  -3 -16    8.50    1.20
  -1  -3 -16    9.30    1.30
  -2  -3 -16  176.28    7.80
  -2  -3 -16  192.38    8.30
  -3  -3 -16    5.70    1.10
  -3  -3 -16    7.90    0.80
  -4  -3 -16   43.90    2.70
  -5  -3 -16   39.40    2.50
  -6  -3 -16    8.10    1.00
  -7  -3 -16   31.80    2.10
   9  -4 -16    7.30    0.80
  -9   4  16    7.30    0.80
   8  -4 -16    0.30    0.60
  -8   4  16    0.90    0.60
   7  -4 -16  275.77   12.20
  -7   4  16  292.97   12.30
   6  -4 -16    0.40    0.80
   6  -4 -16    1.50    1.00
   6  -4 -16    0.40    0.80
   5  -4 -16    8.10    1.40
   5  -4 -16    7.20    1.20
   5  -4 -16    7.70    1.00
   5  -4 -16    6.50    1.10
   4  -4 -16   20.50    2.00
   4  -4 -16   18.00    1.80
   4  -4 -16   18.80    1.50
   4  -4 -16   15.50    1.80
   3  -4 -16  260.67   11.20
   3  -4 -16  248.08   10.80
   3  -4 -16  239.08   11.30
   3  -4 -16  264.77   11.20
   2  -4 -16   37.00    2.50
   2  -4 -16   35.90    2.50
   2  -4 -16   35.00    2.10
   1  -4 -16   81.29    4.00
   1  -4 -16   89.39    4.40
   1  -4 -16   84.39    4.40
   0  -4 -16    8.10    0.90
   0  -4 -16    9.70    1.40
   0  -4 -16    7.40    1.20
  -1  -4 -16   35.00    2.40
  -1  -4 -16   35.60    2.40
  -1  -4 -16   35.70    2.00
  -2  -4 -16   26.80    2.10
  -2  -4 -16   23.40    1.50
  -2  -4 -16   25.70    1.90
  -3  -4 -16  245.08   10.60
  -3  -4 -16  236.38   10.20
  -4  -4 -16   25.80    2.00
  -5  -4 -16    4.80    0.90
  -6  -4 -16    6.40    0.80
   9  -5 -16    1.00    0.50
  -9   5  16    1.60    0.50
   8  -5 -16  127.29    5.80
  -8   5  16  131.99    5.90
   7  -5 -16   -0.30    0.60
  -7   5  16   -0.90    0.60
   6  -5 -16   83.39    4.30
   6  -5 -16   92.59    4.40
  -6   5  16   83.29    4.30
   5  -5 -16  187.08    8.20
   5  -5 -16  184.48    8.20
   5  -5 -16  170.68    7.90
  -5   5  16  181.98    8.10
   4  -5 -16  163.28    7.40
   4  -5 -16  165.58    7.50
   4  -5 -16  152.08    7.10
   3  -5 -16   28.70    2.30
   3  -5 -16   29.10    2.20
   3  -5 -16   28.10    1.80
   2  -5 -16  106.99    5.10
   2  -5 -16  113.29    5.50
   2  -5 -16  116.79    5.60
   1  -5 -16   32.20    1.90
   1  -5 -16   30.90    2.30
   1  -5 -16   35.40    2.50
   0  -5 -16    8.00    1.20
   0  -5 -16    6.50    1.20
   0  -5 -16    7.70    0.90
  -1  -5 -16    2.80    0.90
  -1  -5 -16    4.60    0.70
  -1  -5 -16    3.80    1.00
  -2  -5 -16  185.48    7.80
  -2  -5 -16  156.08    7.60
  -2  -5 -16  168.98    7.40
  -3  -5 -16    1.80    0.80
  -4  -5 -16  127.79    5.90
  -5  -5 -16   67.39    3.30
   8  -6 -16    1.60    0.60
  -8   6  16    0.70    0.60
   7  -6 -16    8.80    1.10
  -7   6  16    8.60    1.10
   6  -6 -16   36.80    2.30
   6  -6 -16   35.20    2.30
  -6   6  16   34.70    2.30
   5  -6 -16  262.27   11.40
   5  -6 -16  262.77   11.40
  -5   6  16  256.97   11.30
   4  -6 -16    0.30    0.50
   4  -6 -16    0.30    0.80
   4  -6 -16    0.00    0.80
  -4   6  16    0.20    0.70
   3  -6 -16  209.58    9.20
   3  -6 -16  214.98    9.40
   3  -6 -16  211.38    9.50
   2  -6 -16   78.39    4.10
   2  -6 -16   73.99    4.00
   2  -6 -16   76.49    3.70
   1  -6 -16  317.07   13.80
   1  -6 -16  324.27   13.80
   1  -6 -16  313.27   13.40
   0  -6 -16    2.60    1.00
   0  -6 -16    4.30    0.80
   0  -6 -16    4.70    1.00
  -1  -6 -16   63.49    3.50
  -1  -6 -16   63.19    3.40
  -2  -6 -16    8.20    1.20
   2   6  16    8.20    1.00
  -3  -6 -16   50.39    2.80
  -4  -6 -16    2.30    0.70
  -5  -6 -16   83.09    4.20
   8  -7 -16   15.10    1.10
   8  -7 -16   16.10    0.90
  -8   7  16   15.10    1.20
   7  -7 -16    5.10    0.60
   7  -7 -16    4.60    0.80
  -7   7  16    3.00    0.70
   6  -7 -16   96.89    4.60
   6  -7 -16   97.59    4.60
  -6   7  16   98.09    4.60
   5  -7 -16   29.20    2.00
   5  -7 -16   23.70    1.90
  -5   7  16   27.60    1.80
   4  -7 -16  215.58    9.50
   4  -7 -16  214.38    9.60
   3  -7 -16    1.10    0.80
   3  -7 -16    1.00    0.80
   2  -7 -16   10.30    1.30
   2  -7 -16   11.60    1.50
   1  -7 -16    4.00    1.00
   1  -7 -16    4.40    0.90
   0  -7 -16  390.36   16.90
   0  -7 -16  403.86   16.90
  -1  -7 -16    1.00    0.70
   1   7  16    2.20    0.70
  -2  -7 -16   48.60    2.70
   2   7  16   47.90    2.50
  -3  -7 -16    8.50    0.70
  -3  -7 -16    8.00    1.00
   7  -8 -16  126.39    5.10
   7  -8 -16  114.59    5.40
  -7   8  16  120.39    5.40
   6  -8 -16    7.00    0.70
   6  -8 -16    6.50    0.80
  -6   8  16    4.80    0.80
   5  -8 -16    6.40    0.90
   5  -8 -16    8.60    0.80
   5  -8 -16    6.10    1.00
   4  -8 -16    9.60    0.90
   4  -8 -16   10.10    1.10
   4  -8 -16    9.50    1.20
   3  -8 -16    9.10    0.90
   3  -8 -16   11.00    1.30
   3  -8 -16   12.10    1.30
   2  -8 -16   24.30    1.90
   2  -8 -16   23.50    1.50
   2  -8 -16   25.20    1.80
   1  -8 -16  301.17   12.50
   1  -8 -16  297.17   12.80
   1  -8 -16  301.27   12.90
   0  -8 -16  109.39    4.90
   0  -8 -16  111.59    5.20
   0   8  16  114.99    5.10
  -1  -8 -16   60.39    3.00
  -1  -8 -16   58.89    2.70
   1   8  16   57.79    2.90
  -2  -8 -16    0.40    0.50
  -2  -8 -16    0.20    0.30
   6  -9 -16   72.79    3.10
   5  -9 -16   75.49    3.30
   4  -9 -16    3.40    0.50
  -4   9  16    3.10    0.60
   3  -9 -16    0.70    0.40
   3  -9 -16    0.80    0.50
  -3   9  16    1.00    0.50
   2  -9 -16  173.38    7.60
   2  -9 -16  172.88    7.40
  -2   9  16  177.58    7.60
   1  -9 -16    9.70    1.00
   1  -9 -16   11.00    0.90
  -1   9  16   11.70    1.10
   0  -9 -16   30.00    1.50
  -1  -9 -16    2.30    0.40
   4 -10 -16    4.00    0.40
   3 -10 -16   23.50    1.20
   2 -10 -16    1.50    0.30
  -1   9 -17   61.39    3.20
  -2   9 -17    0.80    0.60
  -3   9 -17   60.99    3.20
   1   8 -17    8.40    1.00
   0   8 -17   54.09    3.00
   0   8 -17   50.09    3.10
  -1   8 -17    1.50    0.80
  -1   8 -17    3.10    1.30
  -2   8 -17   93.19    4.70
  -2   8 -17   95.29    5.00
  -3   8 -17   20.10    1.80
  -3   8 -17   21.20    2.20
  -4   8 -17   22.00    2.10
  -4   8 -17   20.40    1.70
  -5   8 -17   21.20    1.90
   2   7 -17    9.90    1.20
   2   7 -17   11.00    1.10
  -2  -7  17   10.50    1.20
   1   7 -17    8.30    1.20
   1   7 -17    5.10    1.30
   0   7 -17  122.19    6.20
   0   7 -17  122.39    5.90
  -1   7 -17   37.40    3.00
  -1   7 -17   33.70    2.50
  -2   7 -17    0.80    0.90
  -2   7 -17    3.00    1.30
  -3   7 -17  167.78    7.80
  -3   7 -17  157.18    7.50
  -4   7 -17   24.30    2.20
  -5   7 -17    2.10    0.90
  -6   7 -17   10.10    1.20
   3   6 -17   92.69    4.60
   3   6 -17   91.09    4.40
  -3  -6  17   96.99    4.50
   2   6 -17    2.10    0.90
   2   6 -17    1.80    0.80
   2   6 -17   -0.80    0.90
   1   6 -17    2.00    1.00
   1   6 -17    2.60    0.80
   1   6 -17    1.40    1.20
   0   6 -17  110.99    5.60
   0   6 -17  106.89    5.30
   0   6 -17  113.59    5.90
  -1   6 -17   44.80    3.40
  -1   6 -17   48.20    3.10
  -2   6 -17   75.49    4.30
  -2   6 -17   79.79    4.50
  -3   6 -17   15.80    1.80
  -3   6 -17   16.50    1.90
  -4   6 -17   21.00    2.00
  -5   6 -17   25.80    2.10
   4   5 -17   66.19    3.40
   4   5 -17   69.49    3.50
  -4  -5  17   66.89    3.40
   3   5 -17   47.40    2.80
   3   5 -17   47.70    3.00
  -3  -5  17   51.69    2.90
   2   5 -17   37.70    2.60
   2   5 -17   31.60    2.70
   2   5 -17   36.30    2.30
   1   5 -17   46.40    2.80
   1   5 -17   46.10    3.10
   1   5 -17   45.10    3.50
   0   5 -17  120.39    5.80
   0   5 -17  117.89    5.50
   0   5 -17  107.79    5.10
   0   5 -17  110.29    6.00
  -1   5 -17   30.60    2.80
  -1   5 -17   26.30    1.60
  -1   5 -17   26.20    2.30
  -2   5 -17    8.70    1.60
  -2   5 -17    8.00    1.30
   5   4 -17   11.80    1.20
   5   4 -17   13.00    1.40
  -5  -4  17   14.20    1.30
   4   4 -17   78.69    4.00
   4   4 -17   76.69    4.10
  -4  -4  17   79.89    4.00
   3   4 -17   26.40    2.00
   3   4 -17   25.00    2.20
  -3  -4  17   26.50    2.00
   2   4 -17   12.50    1.20
   2   4 -17   13.20    1.40
   2   4 -17   10.30    1.70
   2   4 -17   11.60    1.60
   1   4 -17   47.60    3.30
   1   4 -17   50.69    2.90
   1   4 -17   46.30    2.40
   0   4 -17   32.60    1.80
   0   4 -17   29.60    2.20
  -1   4 -17   18.70    2.00
  -2   4 -17    7.50    1.30
   6   3 -17   32.10    1.90
   6   3 -17   30.10    2.00
   5   3 -17    2.30    0.90
   5   3 -17    2.90    0.80
   4   3 -17  152.28    7.20
   4   3 -17  163.28    7.50
   3   3 -17    2.60    0.70
   3   3 -17    3.60    1.00
   3   3 -17    4.50    1.20
   2   3 -17   35.10    2.70
   2   3 -17   36.70    2.50
   2   3 -17   32.90    1.90
   1   3 -17  263.67   11.10
   1   3 -17  242.48   10.60
   1   3 -17  250.17   11.40
   0   3 -17  127.59    6.00
   0   3 -17  125.39    6.40
  -1   3 -17    2.10    1.10
  -8   3 -17   37.00    3.10
   6   2 -17  118.09    5.50
   6   2 -17  121.79    5.70
   5   2 -17   19.40    1.70
   5   2 -17   18.40    1.90
   4   2 -17    6.40    1.10
   4   2 -17    7.20    1.30
   3   2 -17   29.60    2.20
   3   2 -17   26.50    1.70
   3   2 -17   30.70    2.60
   2   2 -17    6.10    1.20
   2   2 -17   10.50    1.60
   2   2 -17    8.10    0.90
   1   2 -17   11.00    1.60
   1   2 -17   13.60    1.10
   1   2 -17   15.30    1.60
   0   2 -17   69.29    3.70
   0   2 -17   68.39    4.00
   7   1 -17    7.70    1.00
   6   1 -17   39.10    2.30
   6   1 -17   41.40    2.60
   5   1 -17  149.79    7.20
   5   1 -17  151.08    6.90
   4   1 -17   57.99    3.20
   4   1 -17   57.09    3.50
   4   1 -17   52.19    2.80
   3   1 -17  445.16   19.10
   3   1 -17  449.86   18.70
   3   1 -17  448.86   19.40
   2   1 -17    8.10    0.90
   2   1 -17    8.90    1.30
   2   1 -17    7.90    1.50
   1   1 -17    4.00    1.20
   1   1 -17    3.10    0.60
   1   1 -17    3.70    1.00
   0   1 -17    8.40    1.40
   0   1 -17    9.30    1.30
  -1   1 -17   44.80    2.70
   7   0 -17    1.10    0.70
   7   0 -17    0.00    0.50
   7   0 -17    0.40    0.50
   6   0 -17   17.70    1.90
   6   0 -17   16.30    1.60
   6   0 -17   16.10    1.50
   5   0 -17   44.10    2.70
   5   0 -17   47.00    3.10
   5   0 -17   43.20    2.70
   4   0 -17   16.50    2.00
   4   0 -17   21.10    1.90
   4   0 -17   18.20    1.40
   4   0 -17   23.00    2.00
   3   0 -17    3.10    1.00
   3   0 -17    3.10    0.70
   3   0 -17    4.90    1.10
   3   0 -17    4.40    1.20
   2   0 -17   71.29    3.70
   2   0 -17   65.99    3.90
   2   0 -17   64.39    3.50
   2   0 -17   61.69    3.10
   1   0 -17   12.80    1.70
   1   0 -17   12.10    1.40
   1   0 -17   14.20    1.60
   1   0 -17   11.30    1.00
   0   0 -17  191.98    8.70
  -1   0 -17  111.89    5.40
   8  -1 -17    1.30    0.50
  -8   1  17    1.00    0.50
   7  -1 -17   91.29    4.50
   7  -1 -17   85.19    4.20
   7  -1 -17   92.79    4.30
   6  -1 -17   16.10    1.60
   6  -1 -17   17.80    1.90
   6  -1 -17   14.20    1.40
   5  -1 -17   54.09    3.10
   5  -1 -17   49.30    3.20
   5  -1 -17   53.59    3.10
   5  -1 -17   55.79    3.40
   4  -1 -17   13.70    1.20
   4  -1 -17   12.50    1.70
   4  -1 -17   13.00    1.60
   4  -1 -17   12.20    1.40
   3  -1 -17    3.10    1.10
   3  -1 -17    1.90    0.90
   3  -1 -17    2.80    1.10
   3  -1 -17    3.20    0.70
   2  -1 -17   47.00    2.90
   2  -1 -17   45.90    3.00
   2  -1 -17   42.00    2.70
   2  -1 -17   42.40    2.30
   1  -1 -17  424.86   17.70
   1  -1 -17  428.56   18.20
   1  -1 -17  422.86   18.10
   0  -1 -17    1.50    0.80
   0  -1 -17    0.70    0.80
  -1  -1 -17  300.97   12.90
  -1  -1 -17  294.07   12.90
  -2  -1 -17  145.59    6.70
  -3  -1 -17    6.80    1.10
  -4  -1 -17    2.30    0.80
   8  -2 -17   92.49    4.10
  -8   2  17   86.09    4.10
   7  -2 -17   49.20    2.90
   7  -2 -17   43.90    2.60
   7  -2 -17   51.39    2.70
   6  -2 -17  179.98    8.20
   6  -2 -17  170.78    7.80
   6  -2 -17  172.98    7.80
   5  -2 -17    7.70    1.20
   5  -2 -17    8.10    1.20
   5  -2 -17    7.60    1.00
   5  -2 -17    6.80    1.40
   4  -2 -17   27.10    1.80
   4  -2 -17   28.60    2.30
   4  -2 -17   27.40    2.40
   4  -2 -17   28.20    2.20
   3  -2 -17   38.20    2.60
   3  -2 -17   40.70    2.90
   3  -2 -17   39.80    2.30
   3  -2 -17   44.00    2.70
   2  -2 -17    7.90    1.40
   2  -2 -17    7.50    1.20
   2  -2 -17    7.30    0.90
   2  -2 -17    8.60    1.40
   1  -2 -17    5.40    1.20
   1  -2 -17    5.80    0.80
   1  -2 -17    7.30    1.10
   0  -2 -17  442.06   18.90
   0  -2 -17  443.86   18.90
   0  -2 -17  447.86   18.40
  -1  -2 -17    6.70    1.20
  -1  -2 -17    8.50    1.20
  -2  -2 -17   41.00    2.60
  -4  -2 -17  108.09    5.20
  -5  -2 -17   50.79    2.80
  -6  -2 -17   73.19    3.50
   8  -3 -17    2.30    0.60
  -8   3  17    2.00    0.60
   7  -3 -17  328.97   14.60
   7  -3 -17  351.76   14.50
   6  -3 -17  174.48    8.10
   6  -3 -17  187.78    8.40
   6  -3 -17  178.68    8.10
   5  -3 -17   92.69    4.90
   5  -3 -17   90.39    4.60
   5  -3 -17   88.69    4.60
   4  -3 -17   13.60    1.30
   4  -3 -17   14.20    1.70
   4  -3 -17   13.80    1.50
   4  -3 -17   12.40    1.50
   3  -3 -17    7.30    1.20
   3  -3 -17    5.70    1.20
   3  -3 -17    6.50    1.30
   3  -3 -17    5.50    0.80
   2  -3 -17    0.70    0.50
   2  -3 -17   -0.90    0.80
   2  -3 -17    0.80    0.80
   1  -3 -17  143.19    6.90
   1  -3 -17  150.18    6.60
   1  -3 -17  157.28    7.10
   0  -3 -17    8.20    1.30
   0  -3 -17    9.10    0.90
   0  -3 -17    6.10    1.10
  -1  -3 -17  336.57   14.30
  -1  -3 -17  348.57   14.70
  -1  -3 -17  342.57   14.70
  -2  -3 -17    1.40    0.80
  -2  -3 -17    1.10    0.50
  -3  -3 -17  217.48    9.60
  -4  -3 -17    0.00    0.70
  -5  -3 -17   23.10    1.70
  -6  -3 -17    3.90    0.70
   8  -4 -17  200.78    8.70
  -8   4  17  202.28    8.70
   7  -4 -17   19.80    1.60
  -7   4  17   23.20    1.70
   6  -4 -17   45.40    2.70
   6  -4 -17   49.90    2.80
   6  -4 -17   47.90    3.00
   5  -4 -17   29.30    2.10
   5  -4 -17   28.90    2.10
   5  -4 -17   29.90    2.40
   4  -4 -17  502.65   21.30
   4  -4 -17  527.35   21.30
   4  -4 -17  508.35   21.50
   4  -4 -17  479.65   21.00
   3  -4 -17    6.20    1.70
   3  -4 -17    6.50    0.90
   3  -4 -17    8.00    1.20
   3  -4 -17    6.50    1.20
   2  -4 -17  120.89    5.50
   2  -4 -17  118.19    5.90
   2  -4 -17  123.99    5.80
   1  -4 -17   24.60    2.10
   1  -4 -17   25.20    1.60
   1  -4 -17   28.40    2.20
   0  -4 -17   25.50    2.10
   0  -4 -17   24.70    2.10
   0  -4 -17   23.80    1.50
  -1  -4 -17    4.20    1.00
  -1  -4 -17    3.80    1.00
  -1  -4 -17    3.90    0.70
  -2  -4 -17  622.04   26.00
  -3  -4 -17    2.60    0.80
  -4  -4 -17   62.99    3.30
  -5  -4 -17   16.20    1.30
   8  -5 -17    1.30    0.50
  -8   5  17    0.90    0.50
   7  -5 -17   17.70    1.40
  -7   5  17   14.90    1.40
   6  -5 -17   93.19    4.50
   6  -5 -17   89.89    4.40
  -6   5  17   93.09    4.50
   5  -5 -17  199.28    9.00
   5  -5 -17  201.88    9.10
  -5   5  17  209.88    9.00
   4  -5 -17   15.40    1.60
   4  -5 -17   16.30    1.60
  -4   5  17   11.70    1.30
   3  -5 -17  385.06   16.00
   3  -5 -17  372.96   15.90
   3  -5 -17  362.36   15.70
   2  -5 -17   13.80    1.20
   2  -5 -17   13.80    1.50
   2  -5 -17   14.20    1.60
   1  -5 -17    4.10    1.00
   1  -5 -17    2.60    1.00
   1  -5 -17    3.30    0.70
   0  -5 -17    3.70    0.70
   0  -5 -17    3.90    1.00
   0  -5 -17    4.00    1.00
  -1  -5 -17  196.38    8.60
  -1  -5 -17  185.28    8.50
  -2  -5 -17    1.00    0.80
  -3  -5 -17   95.19    4.60
  -4  -5 -17    3.90    0.80
  -5  -5 -17   83.09    3.80
   8  -6 -17   17.80    1.60
   8  -6 -17   20.20    1.10
  -8   6  17   22.60    1.40
   7  -6 -17   19.60    1.40
  -7   6  17   19.10    1.40
   6  -6 -17    3.40    0.80
   6  -6 -17    3.60    0.70
  -6   6  17    3.20    0.70
   5  -6 -17    1.40    0.70
   5  -6 -17    1.00    0.70
  -5   6  17    0.70    0.60
   4  -6 -17   54.89    3.10
   4  -6 -17   56.59    3.20
   3  -6 -17   10.40    1.30
   3  -6 -17   11.80    1.40
   2  -6 -17  105.99    5.00
   2  -6 -17   99.69    5.10
   1  -6 -17    4.60    1.00
   1  -6 -17    3.40    0.90
   0  -6 -17  105.99    5.20
   0  -6 -17  108.39    5.20
  -1  -6 -17    6.60    1.10
  -1  -6 -17    7.10    1.10
  -2  -6 -17   38.20    2.30
   2   6  17   37.70    2.20
  -3  -6 -17   59.19    3.00
  -4  -6 -17  115.59    5.10
   7  -7 -17    2.80    0.40
   7  -7 -17    2.90    0.60
  -7   7  17    3.10    0.60
   6  -7 -17   24.20    1.60
   6  -7 -17   23.20    1.30
   6  -7 -17   24.50    1.70
  -6   7  17   23.60    1.60
   5  -7 -17   46.00    2.70
   5  -7 -17   51.69    2.70
   4  -7 -17   11.00    1.20
   4  -7 -17   11.60    1.20
   3  -7 -17   67.89    3.60
   3  -7 -17   65.99    3.10
   3  -7 -17   69.79    3.50
   2  -7 -17    0.90    0.70
   2  -7 -17    0.40    0.50
   2  -7 -17    1.40    0.80
   1  -7 -17   23.50    1.80
   1  -7 -17   22.40    1.80
   0  -7 -17   26.80    1.90
   0  -7 -17   26.30    1.90
  -1  -7 -17   11.40    1.20
   1   7  17   10.80    1.10
  -2  -7 -17    5.90    0.80
  -2  -7 -17    6.40    0.60
  -3  -7 -17    6.10    1.00
   6  -8 -17   10.00    0.80
   5  -8 -17    6.40    0.80
   5  -8 -17    8.00    0.70
   5  -8 -17    8.20    1.00
   4  -8 -17    6.90    1.00
   4  -8 -17    6.70    0.70
   4  -8 -17    7.70    0.90
   3  -8 -17  102.19    4.40
   3  -8 -17  100.59    4.70
   3  -8 -17   99.29    4.80
   2  -8 -17  197.58    8.70
   2  -8 -17  202.28    8.60
   2  -8 -17  195.18    8.30
   1  -8 -17   30.90    1.60
   1  -8 -17   30.90    1.90
  -1   8  17   30.50    1.80
   0  -8 -17  109.09    4.80
   0  -8 -17  110.79    5.00
   0   8  17  112.99    5.00
  -1  -8 -17    5.50    0.70
  -1  -8 -17    6.00    0.60
   5  -9 -17    2.60    0.40
   4  -9 -17   41.20    1.90
   3  -9 -17   66.09    2.90
   2  -9 -17    0.00    0.30
   1  -9 -17  205.38    8.50
   0   8 -18    3.20    0.70
  -1   8 -18   50.79    2.80
  -2   8 -18    4.80    0.90
  -3   8 -18   63.69    3.30
   2   7 -18    3.90    1.00
   1   7 -18   70.59    3.60
   0   7 -18    9.10    1.40
   0   7 -18    9.20    1.20
  -1   7 -18    1.50    0.80
  -1   7 -18    4.10    1.30
  -2   7 -18  259.27   11.70
  -2   7 -18  276.97   11.90
  -3   7 -18    1.60    0.70
  -3   7 -18    2.10    1.10
  -4   7 -18   18.50    2.00
   3   6 -18   11.70    1.20
   2   6 -18    4.40    0.80
   2   6 -18    4.50    0.90
  -2  -6  18    3.20    0.70
   1   6 -18   47.00    2.60
   1   6 -18   51.79    3.00
   1   6 -18   47.80    3.00
   0   6 -18   27.00    2.50
   0   6 -18   21.60    2.00
  -1   6 -18  171.28    8.30
  -1   6 -18  182.88    8.20
  -2   6 -18   58.19    3.30
  -2   6 -18   51.79    3.50
  -3   6 -18   58.89    3.50
  -3   6 -18   50.49    4.20
   4   5 -18   49.60    2.60
   3   5 -18    0.60    0.70
   3   5 -18    0.60    0.60
  -3  -5  18    0.70    0.60
   2   5 -18    4.00    0.90
   2   5 -18    3.20    1.00
  -2  -5  18    3.80    0.80
   1   5 -18   16.80    1.80
   1   5 -18   13.30    1.70
   1   5 -18   16.80    1.50
   0   5 -18   28.80    2.30
   0   5 -18   22.00    2.30
  -1   5 -18   12.00    1.60
  -2   5 -18   32.90    2.40
   5   4 -18   37.30    2.10
   4   4 -18   27.20    2.00
   4   4 -18   27.30    1.80
   3   4 -18    5.60    1.00
   3   4 -18    6.70    1.20
   2   4 -18    3.10    1.00
   2   4 -18    1.00    0.80
   1   4 -18   86.09    4.30
   1   4 -18   84.69    4.60
   0   4 -18    4.60    1.00
   0   4 -18    4.60    1.20
  -1   4 -18   30.10    2.50
   5   3 -18   16.00    1.30
   5   3 -18   16.50    1.50
   4   3 -18   18.70    1.80
   4   3 -18   21.90    1.70
   3   3 -18  121.19    5.60
   3   3 -18  115.19    5.90
   2   3 -18   68.79    4.00
   2   3 -18   71.99    3.80
   1   3 -18   68.29    4.00
   1   3 -18   70.09    3.70
   0   3 -18   79.59    4.10
   0   3 -18   82.19    4.40
  -1   3 -18    0.70    0.90
   5   2 -18    3.00    0.80
   5   2 -18    3.20    0.90
   4   2 -18    3.00    1.00
   4   2 -18    3.00    0.80
   3   2 -18  103.09    5.30
   3   2 -18  103.59    5.10
   2   2 -18   67.19    3.70
   2   2 -18   64.89    3.20
   2   2 -18   67.99    3.90
   1   2 -18   14.40    1.50
   1   2 -18   11.20    1.00
   1   2 -18   11.60    1.60
   0   2 -18   60.79    3.60
   0   2 -18   59.89    3.40
   6   1 -18    2.60    0.80
   6   1 -18    3.50    0.70
   5   1 -18   67.19    3.60
   5   1 -18   61.89    3.30
   4   1 -18  188.58    8.60
   4   1 -18  194.98    8.80
   3   1 -18   31.50    2.50
   3   1 -18   35.10    2.40
   3   1 -18   32.80    2.60
   2   1 -18  209.78    9.10
   2   1 -18  205.08    9.40
   2   1 -18  195.98    8.70
   1   1 -18    0.20    0.80
   1   1 -18    0.20    0.40
   1   1 -18    0.20    0.90
   0   1 -18    3.10    0.90
   7   0 -18    2.90    0.70
   6   0 -18   11.10    1.10
   6   0 -18   12.00    1.20
   6   0 -18   13.00    1.40
   5   0 -18   55.59    3.10
   5   0 -18   57.99    3.20
   5   0 -18   61.29    3.50
   4   0 -18   25.30    1.90
   4   0 -18   25.10    2.00
   4   0 -18   26.00    2.30
   3   0 -18  125.09    6.30
   3   0 -18  132.89    6.00
   3   0 -18  121.99    5.70
   3   0 -18  130.69    6.10
   2   0 -18   16.00    1.60
   2   0 -18   10.70    1.00
   2   0 -18   13.30    1.50
   2   0 -18   11.80    1.60
   1   0 -18   19.80    1.90
   1   0 -18   18.90    2.00
   1   0 -18   19.00    1.20
   0   0 -18   74.39    3.90
  -1   0 -18   84.49    4.30
   7  -1 -18    5.90    0.80
   7  -1 -18    6.40    0.90
   6  -1 -18   39.50    2.20
   6  -1 -18   35.80    2.50
   6  -1 -18   35.60    2.20
   5  -1 -18   34.40    2.30
   5  -1 -18   38.60    2.30
   5  -1 -18   36.70    2.60
   4  -1 -18   41.50    2.50
   4  -1 -18   38.70    2.60
   4  -1 -18   39.90    2.80
   3  -1 -18   12.60    1.50
   3  -1 -18   11.30    1.40
   3  -1 -18   12.70    1.10
   3  -1 -18   12.50    1.70
   2  -1 -18  193.68    8.70
   2  -1 -18  199.58    8.70
   2  -1 -18  194.68    8.90
   2  -1 -18  184.48    8.30
   1  -1 -18    7.00    1.20
   1  -1 -18    5.00    1.00
   1  -1 -18    6.90    0.80
   0  -1 -18  535.15   22.80
   0  -1 -18  547.95   22.80
  -1  -1 -18    5.50    1.00
  -1  -1 -18    8.00    1.20
  -2  -1 -18   29.60    2.10
  -3  -1 -18    0.90    0.70
   7  -2 -18   18.40    1.40
   7  -2 -18   17.40    1.50
   6  -2 -18    2.00    0.90
   6  -2 -18    0.80    0.70
   6  -2 -18    3.10    0.80
   5  -2 -18  125.99    6.10
   5  -2 -18  123.19    5.90
   5  -2 -18  127.69    5.90
   4  -2 -18   16.20    1.70
   4  -2 -18   18.30    1.80
   4  -2 -18   18.00    2.00
   3  -2 -18    4.90    1.10
   3  -2 -18    6.90    1.20
   3  -2 -18    4.60    1.10
   3  -2 -18    5.00    0.80
   2  -2 -18   53.39    3.00
   2  -2 -18   52.69    3.10
   2  -2 -18   47.90    2.50
   2  -2 -18   50.79    3.70
   1  -2 -18  918.61   37.40
   1  -2 -18  896.81   37.30
   1  -2 -18  886.91   36.90
   0  -2 -18    6.40    1.10
   0  -2 -18    5.70    0.70
   0  -2 -18    3.30    0.90
  -1  -2 -18    4.20    0.90
  -1  -2 -18    3.40    0.90
  -2  -2 -18   19.90    1.80
  -3  -2 -18   98.09    4.80
  -4  -2 -18  134.79    6.10
  -5  -2 -18   16.30    1.30
   7  -3 -18    1.00    0.60
  -7   3  18    1.10    0.60
   6  -3 -18  334.07   14.30
   6  -3 -18  342.67   14.60
   6  -3 -18  337.87   14.30
   5  -3 -18   15.20    1.50
   5  -3 -18   16.60    1.80
   5  -3 -18   19.70    1.70
   4  -3 -18   80.79    4.50
   4  -3 -18   85.59    4.40
   4  -3 -18   87.79    4.30
   3  -3 -18   36.00    2.50
   3  -3 -18   42.90    2.60
   3  -3 -18   38.80    2.60
   3  -3 -18   35.50    2.10
   2  -3 -18  254.67   10.60
   2  -3 -18  240.18   10.60
   2  -3 -18  227.38   10.20
   1  -3 -18    0.00    0.40
   1  -3 -18   -0.20    0.80
   1  -3 -18    0.20    0.80
   0  -3 -18  269.77   11.40
   0  -3 -18  273.57   11.80
   0  -3 -18  270.47   11.90
  -1  -3 -18   12.80    1.40
  -1  -3 -18   16.20    1.60
  -2  -3 -18  111.49    5.40
  -3  -3 -18   10.30    1.20
  -4  -3 -18  182.18    8.00
  -5  -3 -18   30.90    1.80
   7  -4 -18  143.29    6.50
  -7   4  18  150.58    6.50
   6  -4 -18   -0.30    0.60
   6  -4 -18   -0.30    0.60
  -6   4  18    0.50    0.60
   5  -4 -18    7.90    1.20
   5  -4 -18    6.10    1.00
   5  -4 -18    6.40    1.00
   4  -4 -18    3.10    0.90
   4  -4 -18    3.30    0.90
   4  -4 -18    4.40    1.00
   3  -4 -18  302.17   13.30
   3  -4 -18  310.37   13.20
   2  -4 -18    6.80    1.10
   2  -4 -18    8.50    1.30
   1  -4 -18   51.79    3.10
   1  -4 -18   51.39    3.00
   0  -4 -18   -0.10    0.70
   0  -4 -18   -0.20    0.70
  -1  -4 -18  124.49    6.00
  -1  -4 -18  131.49    6.00
  -2  -4 -18   34.20    2.30
  -3  -4 -18  166.78    7.40
  -4  -4 -18   12.30    1.20
   7  -5 -18    2.30    0.60
  -7   5  18    1.70    0.60
   6  -5 -18  127.29    5.90
   6  -5 -18  133.69    5.90
  -6   5  18  131.99    5.90
   5  -5 -18   73.89    3.80
   5  -5 -18   77.69    3.80
  -5   5  18   74.99    3.70
   4  -5 -18   49.30    2.80
   4  -5 -18   51.29    2.90
  -4   5  18   48.80    2.70
   3  -5 -18    0.50    0.80
   3  -5 -18    1.40    0.80
   2  -5 -18   92.29    4.60
   2  -5 -18   93.19    4.70
   1  -5 -18    1.30    0.80
   1  -5 -18    3.40    1.00
   0  -5 -18    3.50    0.90
   0  -5 -18    3.60    0.90
  -1  -5 -18   14.40    1.50
  -1  -5 -18   10.70    1.20
  -2  -5 -18  232.68   10.10
  -3  -5 -18    0.10    0.60
  -4  -5 -18    9.20    0.90
   7  -6 -18    3.30    0.40
   7  -6 -18    4.10    0.60
  -7   6  18    3.90    0.70
   6  -6 -18    0.30    0.50
  -6   6  18    0.40    0.50
   5  -6 -18  203.08    8.60
   5  -6 -18  193.98    8.60
  -5   6  18  191.58    8.40
   4  -6 -18   24.90    1.90
   4  -6 -18   26.70    1.90
   3  -6 -18   10.10    1.20
   3  -6 -18    8.40    1.10
   2  -6 -18    1.60    0.80
   2  -6 -18    1.60    0.70
   1  -6 -18   61.29    3.40
   1  -6 -18   69.99    3.50
   0  -6 -18   23.80    1.80
   0  -6 -18   24.30    1.80
  -1  -6 -18   84.79    4.10
   1   6  18   85.49    3.90
  -2  -6 -18   23.00    1.60
  -3  -6 -18   59.79    2.90
   6  -7 -18  128.99    5.70
   6  -7 -18  127.69    5.40
   5  -7 -18    3.70    0.80
   5  -7 -18    3.90    0.50
   5  -7 -18    4.20    0.70
   4  -7 -18  218.88    9.40
   4  -7 -18  214.58    9.40
   4  -7 -18  217.88    9.10
   3  -7 -18   28.50    1.90
   3  -7 -18   27.30    1.80
   3  -7 -18   25.50    1.50
   2  -7 -18   12.80    1.30
   2  -7 -18   10.80    1.20
   2  -7 -18   10.70    0.90
   1  -7 -18    0.80    0.60
   1  -7 -18    0.50    0.60
   0  -7 -18   62.39    3.20
   0   7  18   65.09    3.10
  -1  -7 -18    0.10    0.50
   5  -8 -18   56.09    2.50
   4  -8 -18    2.50    0.40
   4  -8 -18    3.50    0.60
   3  -8 -18   19.60    1.40
   3  -8 -18   21.20    1.20
   2  -8 -18   27.70    1.60
   2  -8 -18   26.30    1.40
   1  -8 -18  214.58    9.10
   1  -8 -18  209.38    8.80
   0   7 -19    2.10    0.70
  -1   7 -19    5.10    0.90
  -2   7 -19    7.50    1.00
   2   6 -19    2.10    0.60
   1   6 -19    3.00    0.80
   0   6 -19   10.60    1.30
  -1   6 -19   58.09    3.20
  -2   6 -19   84.19    4.20
   3   5 -19  105.59    4.90
   2   5 -19    4.80    0.80
   2   5 -19    5.00    1.00
   1   5 -19    6.30    1.10
   1   5 -19    7.30    1.00
   0   5 -19    7.00    1.20
  -1   5 -19   56.09    3.20
  -2   5 -19    2.60    0.90
   4   4 -19    1.60    0.60
   3   4 -19   11.50    1.30
   3   4 -19    7.00    1.00
   2   4 -19   15.50    1.60
   2   4 -19   15.10    1.50
   1   4 -19    0.10    0.80
   1   4 -19    1.00    0.60
   0   4 -19   13.50    1.50
  -1   4 -19    1.50    0.80
   5   3 -19   11.50    1.30
   4   3 -19    3.00    0.70
   4   3 -19    3.60    0.80
   3   3 -19   18.20    1.70
   3   3 -19   17.50    1.50
   2   3 -19   49.00    2.80
   2   3 -19   50.29    3.10
   1   3 -19  257.47   11.60
   1   3 -19  265.07   11.40
   0   3 -19    6.60    1.00
   0   3 -19    6.10    1.20
   5   2 -19    4.50    0.80
   5   2 -19    2.90    0.70
   4   2 -19   59.09    3.20
   4   2 -19   62.49    3.40
   3   2 -19    1.10    0.70
   3   2 -19   -0.20    0.80
   2   2 -19   46.80    3.00
   2   2 -19   45.80    2.80
   1   2 -19   28.90    2.20
   1   2 -19   36.40    2.50
   0   2 -19   13.50    1.40
   0   2 -19   13.50    1.60
   6   1 -19   30.30    1.90
   5   1 -19   87.49    4.30
   5   1 -19   84.59    4.10
   4   1 -19    4.80    1.10
   4   1 -19    3.80    0.90
   3   1 -19  371.86   15.80
   3   1 -19  370.06   16.00
   2   1 -19    0.10    0.70
   2   1 -19   -0.30    0.80
   1   1 -19   41.10    2.70
   1   1 -19   46.00    2.90
   0   1 -19    6.30    1.00
   6   0 -19   32.50    2.10
   5   0 -19    0.50    0.60
   5   0 -19    0.80    0.80
   4   0 -19  443.96   18.50
   4   0 -19  433.26   18.70
   3   0 -19    4.10    1.10
   3   0 -19    4.80    1.00
   2   0 -19  190.98    8.80
   2   0 -19  194.38    8.70
   1   0 -19   16.60    1.70
   0   0 -19   89.59    4.50
   6  -1 -19   25.80    1.60
   6  -1 -19   27.70    1.90
   6  -1 -19   25.00    1.80
   5  -1 -19  161.48    7.20
   5  -1 -19  161.78    7.30
   5  -1 -19  163.98    7.40
   4  -1 -19    4.10    0.90
   4  -1 -19    3.50    0.90
   4  -1 -19    1.70    0.90
   3  -1 -19  157.68    7.10
   3  -1 -19  159.18    7.20
   3  -1 -19  149.19    7.30
   2  -1 -19   25.50    2.00
   2  -1 -19   24.10    2.10
   2  -1 -19   23.60    1.90
   1  -1 -19  154.78    7.10
   1  -1 -19  148.89    6.90
   0  -1 -19    2.90    0.80
   0  -1 -19    3.50    0.90
  -1  -1 -19   87.79    4.30
  -7   2  19   23.20    1.70
   6  -2 -19  135.99    6.00
   6  -2 -19  137.09    6.20
   6  -2 -19  127.59    5.90
   5  -2 -19   60.69    3.10
   5  -2 -19   54.69    3.00
   5  -2 -19   58.59    3.30
   4  -2 -19   24.80    2.00
   4  -2 -19   23.70    1.90
   4  -2 -19   22.70    1.80
   3  -2 -19    3.50    0.90
   3  -2 -19    4.00    1.00
   3  -2 -19    2.40    0.90
   2  -2 -19  140.89    6.70
   2  -2 -19  149.88    6.80
   1  -2 -19    1.80    0.90
   1  -2 -19    1.40    0.80
   0  -2 -19  123.19    5.80
   0  -2 -19  121.99    5.80
  -1  -2 -19   15.50    1.50
  -1  -2 -19   14.10    1.40
  -2  -2 -19   20.60    1.70
  -3  -2 -19    0.80    0.60
  -4  -2 -19  288.47   12.20
  -7   3  19  168.58    7.40
   6  -3 -19   33.00    1.90
   6  -3 -19   29.50    2.00
  -6   3  19   32.90    1.90
   5  -3 -19    3.20    0.80
   5  -3 -19    2.40    0.80
   5  -3 -19    3.80    0.80
   4  -3 -19    0.90    0.70
   4  -3 -19    0.50    0.70
   4  -3 -19    0.20    0.70
   3  -3 -19    5.30    1.10
   3  -3 -19    7.20    1.10
   2  -3 -19    5.00    1.00
   2  -3 -19    4.80    1.00
   1  -3 -19   53.09    3.00
   1  -3 -19   49.30    2.90
   0  -3 -19    8.10    1.10
   0  -3 -19    7.70    1.20
  -1  -3 -19   30.70    2.00
  -1  -3 -19   28.30    2.00
  -2  -3 -19    4.10    0.90
  -3  -3 -19   35.00    2.10
  -4  -3 -19    5.30    0.80
   6  -4 -19   23.90    1.60
  -6   4  19   25.40    1.60
   5  -4 -19   99.99    4.70
   5  -4 -19  101.89    4.70
  -5   4  19   95.79    4.60
   4  -4 -19    3.80    0.80
   4  -4 -19    3.80    0.90
  -4   4  19    1.90    0.70
   3  -4 -19    1.00    0.70
   3  -4 -19   -0.10    0.70
   2  -4 -19   62.09    3.40
   2  -4 -19   61.69    3.30
   1  -4 -19   20.90    1.80
   1  -4 -19   21.10    1.80
   0  -4 -19    2.90    0.80
   0  -4 -19    1.50    0.80
  -1  -4 -19   39.90    2.30
  -1  -4 -19   31.80    2.10
  -2  -4 -19  133.29    6.10
  -3  -4 -19    3.80    0.70
   6  -5 -19    2.00    0.60
  -6   5  19    1.10    0.50
   5  -5 -19   47.40    2.40
   5  -5 -19   42.10    2.40
  -5   5  19   41.60    2.20
   4  -5 -19   53.99    3.00
   4  -5 -19   57.19    3.00
   3  -5 -19  200.58    8.80
   3  -5 -19  199.48    8.80
   2  -5 -19    3.20    0.90
   2  -5 -19    2.90    0.80
   1  -5 -19    1.30    0.70
   1  -5 -19    1.60    0.70
   0  -5 -19   23.80    1.70
   0  -5 -19   20.10    1.60
  -1  -5 -19   57.99    2.90
  -1  -5 -19   51.79    2.80
  -2  -5 -19    4.40    0.80
  -3  -5 -19    4.20    0.70
   6  -6 -19   15.60    0.90
   5  -6 -19   13.30    1.20
   4  -6 -19  266.77   11.10
   4  -6 -19  253.17   11.10
   3  -6 -19    0.80    0.60
   3  -6 -19    0.20    0.60
   3  -6 -19    0.40    0.60
   2  -6 -19    2.90    0.70
   2  -6 -19    2.00    0.70
   1  -6 -19   15.00    1.30
   1  -6 -19   13.00    1.30
   0  -6 -19   55.09    2.90
   0  -6 -19   55.19    2.90
  -1  -6 -19    1.80    0.60
  -2  -6 -19   56.79    3.10
   5  -7 -19   65.89    2.90
   4  -7 -19    0.90    0.30
   4  -7 -19    0.70    0.50
   3  -7 -19   84.99    3.90
   3  -7 -19   83.79    3.70
   2  -7 -19    8.30    0.70
   2  -7 -19    8.10    0.90
   1  -7 -19    7.20    0.90
   0  -7 -19   21.80    1.50
   1   5 -20   69.29    3.50
   0   5 -20    8.60    1.10
  -1   5 -20   15.50    1.50
   3   4 -20   23.90    1.60
   2   4 -20    5.40    0.90
   1   4 -20   44.50    2.50
   1   4 -20   39.60    2.30
   0   4 -20    2.90    0.80
  -1   4 -20    8.30    1.50
   4   3 -20   20.50    1.80
   3   3 -20    3.90    0.70
   3   3 -20    2.60    0.70
   2   3 -20  109.09    5.10
   2   3 -20  111.59    5.30
   1   3 -20   20.80    1.80
   1   3 -20   20.70    1.60
   0   3 -20   99.19    4.90
   4   2 -20    3.00    0.80
   3   2 -20  265.17   11.40
   3   2 -20  261.27   11.30
   2   2 -20    8.50    1.20
   2   2 -20    7.70    1.00
   1   2 -20   91.19    4.60
   1   2 -20   93.19    4.50
   0   2 -20   46.90    2.70
   4   1 -20  110.89    5.30
   4   1 -20  114.19    5.20
   3   1 -20    1.50    0.80
   3   1 -20    0.60    0.60
   2   1 -20  104.99    5.00
   2   1 -20  105.09    5.10
   1   1 -20    0.70    0.70
   1   1 -20    0.70    0.70
   0   1 -20  151.68    6.90
   5   0 -20   17.80    1.50
   4   0 -20   39.00    2.20
   4   0 -20   36.80    2.40
   3   0 -20  281.47   12.30
   3   0 -20  287.17   12.20
   2   0 -20   17.50    1.70
   2   0 -20   18.10    1.60
   1   0 -20    2.90    0.90
   0   0 -20   11.60    1.20
   5  -1 -20   18.20    1.40
   5  -1 -20   18.60    1.50
   5  -1 -20   19.20    1.30
   4  -1 -20   54.99    3.10
   4  -1 -20   57.59    3.00
   4  -1 -20   53.99    2.80
   3  -1 -20    0.80    0.70
   3  -1 -20    0.50    0.60
   3  -1 -20   -1.10    0.60
   2  -1 -20    4.70    1.00
   2  -1 -20    5.80    0.90
   1  -1 -20    1.70    0.80
   1  -1 -20    3.60    0.80
   0  -1 -20  182.78    8.10
   5  -2 -20   20.80    1.40
   5  -2 -20   20.10    1.50
   5  -2 -20   18.10    1.40
   4  -2 -20   13.60    1.40
   4  -2 -20   15.70    1.30
   4  -2 -20   14.30    1.40
   3  -2 -20   17.30    1.60
   3  -2 -20   18.30    1.50
   3  -2 -20   16.70    1.50
   2  -2 -20    1.10    0.70
   2  -2 -20    1.70    0.80
   1  -2 -20  328.57   14.00
   1  -2 -20  324.57   13.90
   0  -2 -20   10.00    1.10
   0  -2 -20    9.50    1.10
  -1  -2 -20    4.60    0.90
  -2  -2 -20   25.60    1.70
   5  -3 -20   10.80    1.10
   5  -3 -20    8.70    1.30
  -5   3  20    9.70    1.00
   4  -3 -20   29.10    1.90
   4  -3 -20   29.60    1.90
   3  -3 -20    4.20    0.90
   3  -3 -20    5.30    0.90
   2  -3 -20   25.70    1.80
   2  -3 -20   23.70    1.80
   1  -3 -20   48.80    2.80
   1  -3 -20   51.19    2.80
   0  -3 -20   37.40    2.20
   0  -3 -20   34.90    2.20
  -1  -3 -20    3.50    0.80
  -2  -3 -20    8.20    0.90
  -3  -3 -20    5.20    0.70
   5  -4 -20   21.10    1.40
   4  -4 -20    6.60    0.90
   4  -4 -20    7.90    1.00
   3  -4 -20  113.49    5.30
   3  -4 -20  114.09    5.20
   2  -4 -20   13.40    1.30
   2  -4 -20   10.40    1.10
   1  -4 -20    6.20    0.90
   1  -4 -20    6.30    0.90
   0  -4 -20   29.50    1.90
   0  -4 -20   30.50    1.90
  -1  -4 -20   38.00    2.20
  -2  -4 -20   34.90    2.00
   5  -5 -20    1.20    0.50
   4  -5 -20   38.50    2.10
   3  -5 -20    9.70    1.00
   3  -5 -20   10.90    1.10
   2  -5 -20    7.10    0.90
   2  -5 -20    5.70    0.90
   1  -5 -20    6.60    0.90
   1  -5 -20    6.90    0.90
   0  -5 -20    6.00    0.80
  -1  -5 -20    2.80    0.60
   3  -6 -20    8.30    0.90
   2  -6 -20    4.50    0.70
   1  -6 -20    2.40    0.60
   2   3 -21   13.60    1.20
   1   3 -21  143.29    6.40
   3   2 -21    3.10    0.70
   2   2 -21  139.79    6.30
   1   2 -21   28.80    1.90
   1   2 -21   33.10    2.40
   3   1 -21   96.19    4.50
   2   1 -21    4.90    0.80
   2   1 -21    2.60    0.70
   1   1 -21   12.00    1.20
   4   0 -21  105.69    5.40
   3   0 -21    0.80    0.60
   3   0 -21    0.10    0.50
   2   0 -21    5.00    0.90
   2   0 -21    6.30    1.00
   1   0 -21    0.60    0.60
   0   0 -21    6.50    1.40
   4  -1 -21   20.20    1.80
   3  -1 -21   31.20    1.90
   3  -1 -21   31.60    1.90
   2  -1 -21   15.50    1.40
   1  -1 -21   20.60    1.60
   0  -1 -21   30.00    1.90
   3  -2 -21   76.39    3.70
   3  -2 -21   78.39    3.70
   2  -2 -21    6.90    0.90
   2  -2 -21    6.60    0.90
   1  -2 -21   19.90    1.50
   1  -2 -21   21.10    1.50
   0  -2 -21   33.70    1.90
   0  -2 -21   31.70    2.00
  -1  -2 -21   21.80    1.80
   3  -3 -21    9.60    1.00
   3  -3 -21    8.30    1.30
   2  -3 -21    2.90    0.70
   2  -3 -21    3.30    0.70
   1  -3 -21   67.09    3.40
   1  -3 -21   72.09    3.40
   0  -3 -21    7.80    0.90
  -1  -3 -21    3.00    0.60
   3  -4 -21    5.80    0.80
   2  -4 -21  117.69    5.30
   1  -4 -21    5.90    0.80
   0  -4 -21    4.20    0.70
   0   0   0    0.00    0.00
_computing_structure_solution     'SHELXT 2014/5 (Sheldrick, 2014)'
;
_shelx_hkl_checksum              654
_shelx_res_file
;
    170921RAL_PYRIDINE_COMPLEX_100_a.res created by SHELXL-2014/7
TITL 170921RAL_PYRIDINE_COMPLEX_100_a.res in P-1
CELL  1.54178  11.0499  12.1051  18.5362   90.177   90.324  110.537
ZERR    2.000   0.0001   0.0001   0.0002    0.001    0.001    0.001
LATT 1
SFAC C  H  N  Cl Mn
UNIT 118  86  14  2  2
REM Old TITL 170921RAL_PYRIDINE_COMPLEX_100 in P-1
REM SHELXT solution in P-1
REM R1 0.102,  Rweak 0.011,  Alpha 0.063,  Orientation as input
REM Formula found by SHELXT:  C61 N5 Cl Mn
L.S. 25
ACTA
BOND $H
FMAP 2
PLAN 2
TEMP -173.180
WGHT    0.038000    0.718800
EXTI    0.001099
FVAR       0.41117
MN1   5    0.249999    0.252588    0.264255    11.00000    0.01350    0.01365 =
         0.00933    0.00011   -0.00088    0.00804
CL1   4    0.052746    0.076014    0.274969    11.00000    0.01423    0.01765 =
         0.02262    0.00237    0.00011    0.00532
N3    3    0.286995    0.188442    0.170195    11.00000    0.01438    0.01503 =
         0.01125    0.00131   -0.00051    0.00677
N2    3    0.166109    0.349999    0.210059    11.00000    0.01584    0.01466 =
         0.01244    0.00025   -0.00104    0.00735
N4    3    0.353076    0.171053    0.317002    11.00000    0.01469    0.01436 =
         0.01092   -0.00021   -0.00060    0.00673
N1    3    0.230149    0.333056    0.356235    11.00000    0.01616    0.01493 =
         0.01188    0.00109   -0.00001    0.00803
N5    3    0.453223    0.415398    0.254950    11.00000    0.01821    0.01782 =
         0.01595   -0.00002    0.00096    0.00761
N6    3    0.592317    0.397575   -0.040098    11.00000    0.02538    0.02576 =
         0.02951   -0.00368   -0.00291    0.00633
C19   1    0.356658    0.157352    0.390418    11.00000    0.01442    0.01500 =
         0.01192    0.00214   -0.00083    0.00611
C16   1    0.422409    0.108029    0.286967    11.00000    0.01232    0.01276 =
         0.01592   -0.00074   -0.00097    0.00531
C14   1    0.369842    0.128073    0.159013    11.00000    0.01282    0.01397 =
         0.01396   -0.00065    0.00063    0.00455
C9    1    0.119010    0.330120    0.140416    11.00000    0.01436    0.01597 =
         0.01398    0.00216   -0.00068    0.00512
C39   1    0.337481    0.204854    0.519787    11.00000    0.02272    0.01629 =
         0.01228    0.00042    0.00025    0.01323
C6    1    0.130996    0.440328    0.237236    11.00000    0.01424    0.01351 =
         0.01861    0.00154    0.00071    0.00608
C4    1    0.200627    0.434320    0.362785    11.00000    0.01466    0.01470 =
         0.01685   -0.00086    0.00043    0.00733
C27   1    0.096811    0.250700    0.014960    11.00000    0.01671    0.01900 =
         0.01329   -0.00051   -0.00184    0.01057
C15   1    0.437979    0.093159    0.212935    11.00000    0.01202    0.01310 =
         0.01540   -0.00087   -0.00054    0.00393
C11   1    0.231850    0.195817    0.104564    11.00000    0.01448    0.01487 =
         0.01114    0.00053   -0.00095    0.00382
C1    1    0.263736    0.307862    0.423878    11.00000    0.01498    0.01742 =
         0.01206    0.00156    0.00122    0.00660
C33   1    0.532143    0.036331    0.190832    11.00000    0.01804    0.01924 =
         0.01079    0.00113   -0.00008    0.01049
C7    1    0.058065    0.476013    0.183785    11.00000    0.01876    0.01771 =
         0.02085    0.00069   -0.00235    0.01124
AFIX  43
H7    2    0.022758    0.536738    0.188832    11.00000   -1.20000
AFIX   0
C17   1    0.469554    0.052079    0.343546    11.00000    0.01897    0.01682 =
         0.01706   -0.00080   -0.00282    0.01063
AFIX  43
H17   2    0.520966    0.004192    0.337547    11.00000   -1.20000
AFIX   0
C20   1    0.313883    0.220128    0.441745    11.00000    0.01461    0.01636 =
         0.01273    0.00124   -0.00028    0.00578
C5    1    0.155426    0.487133    0.307159    11.00000    0.01483    0.01487 =
         0.01709    0.00095    0.00016    0.00667
C35   1    0.754240    0.043243    0.187349    11.00000    0.01767    0.03607 =
         0.01933    0.00182   -0.00166    0.01357
AFIX  43
H35   2    0.842652    0.081711    0.199844    11.00000   -1.20000
AFIX   0
C28   1    0.005993    0.148259   -0.013087    11.00000    0.02160    0.01846 =
         0.01771    0.00137   -0.00166    0.00774
AFIX  43
H28   2   -0.031623    0.082460    0.017533    11.00000   -1.20000
AFIX   0
N7    3    0.268316    0.700629    0.567717    11.00000    0.02816    0.03265 =
         0.04573   -0.01661   -0.00015    0.00949
C12   1    0.283124    0.139594    0.050476    11.00000    0.01829    0.01988 =
         0.01030   -0.00080   -0.00103    0.00706
AFIX  43
H12   2    0.260125    0.131253    0.000769    11.00000   -1.20000
AFIX   0
C8    1    0.048763    0.407042    0.124640    11.00000    0.01843    0.01986 =
         0.01563    0.00160   -0.00443    0.00936
AFIX  43
H8    2    0.004159    0.409252    0.081012    11.00000   -1.20000
AFIX   0
C49   1    0.478369    0.490689    0.199807    11.00000    0.02137    0.02339 =
         0.02019    0.00236    0.00063    0.01158
AFIX  43
H49   2    0.415251    0.477525    0.162635    11.00000   -1.20000
AFIX   0
C40   1    0.238000    0.141014    0.564876    11.00000    0.02208    0.02050 =
         0.01747    0.00127    0.00030    0.00727
AFIX  43
H40   2    0.153050    0.105756    0.545804    11.00000   -1.20000
AFIX   0
C21   1    0.127410    0.597279    0.321432    11.00000    0.01739    0.01528 =
         0.01662   -0.00203   -0.00610    0.00847
C18   1    0.427039    0.080385    0.406762    11.00000    0.02121    0.01618 =
         0.01365    0.00193   -0.00288    0.00940
AFIX  43
H18   2    0.441017    0.054322    0.453319    11.00000   -1.20000
AFIX   0
C3    1    0.217518    0.473560    0.436550    11.00000    0.02215    0.01773 =
         0.01618   -0.00240   -0.00010    0.01087
AFIX  43
H3    2    0.205468    0.542042    0.455344    11.00000   -1.20000
AFIX   0
C34   1    0.662640    0.091319    0.208363    11.00000    0.01932    0.02391 =
         0.01714   -0.00218   -0.00257    0.00944
AFIX  43
H34   2    0.689357    0.162975    0.235171    11.00000   -1.20000
AFIX   0
C13   1    0.370264    0.100646    0.083314    11.00000    0.01616    0.01826 =
         0.01442   -0.00147    0.00119    0.00740
AFIX  43
H13   2    0.421949    0.062436    0.060711    11.00000   -1.20000
AFIX   0
C38   1    0.494845   -0.069547    0.152060    11.00000    0.01994    0.02012 =
         0.01468   -0.00120   -0.00111    0.00958
AFIX  43
H38   2    0.406260   -0.109307    0.140455    11.00000   -1.20000
AFIX   0
C2    1    0.253836    0.394677    0.474302    11.00000    0.02318    0.02244 =
         0.01114   -0.00158   -0.00061    0.01199
AFIX  43
H2    2    0.269820    0.396383    0.524778    11.00000   -1.20000
AFIX   0
C10   1    0.147120    0.256256    0.090312    11.00000    0.01520    0.01518 =
         0.01153    0.00243   -0.00128    0.00397
C22   1    0.196652    0.700840    0.285174    11.00000    0.02086    0.01988 =
         0.01596   -0.00060   -0.00559    0.00738
AFIX  43
H22   2    0.263667    0.701451    0.253124    11.00000   -1.20000
AFIX   0
C32   1    0.146564    0.348027   -0.030297    11.00000    0.01930    0.01918 =
         0.01813    0.00068   -0.00256    0.00490
AFIX  43
H32   2    0.206871    0.419535   -0.011741    11.00000   -1.20000
AFIX   0
C26   1    0.030185    0.598933    0.368832    11.00000    0.01907    0.01589 =
         0.02479   -0.00243   -0.00151    0.00709
AFIX  43
H26   2   -0.016975    0.529766    0.394746    11.00000   -1.20000
AFIX   0
C23   1    0.168707    0.803099    0.295407    11.00000    0.02929    0.01442 =
         0.02183   -0.00005   -0.01142    0.00558
AFIX  43
H23   2    0.217370    0.873276    0.270859    11.00000   -1.20000
AFIX   0
C41   1    0.260929    0.127869    0.637770    11.00000    0.03171    0.02357 =
         0.01522    0.00425    0.00577    0.01101
AFIX  43
H41   2    0.192298    0.083024    0.668042    11.00000   -1.20000
AFIX   0
C31   1    0.108728    0.341101   -0.101878    11.00000    0.02281    0.02673 =
         0.01689    0.00719   -0.00027    0.01051
AFIX  43
H31   2    0.142670    0.408038   -0.132076    11.00000   -1.20000
AFIX   0
C29   1   -0.030445    0.140821   -0.085178    11.00000    0.02068    0.02357 =
         0.02371   -0.00686   -0.00664    0.00706
AFIX  43
H29   2   -0.091119    0.069625   -0.103876    11.00000   -1.20000
AFIX   0
C42   1    0.384071    0.180447    0.665757    11.00000    0.03559    0.02609 =
         0.01079    0.00049   -0.00077    0.02117
AFIX  43
H42   2    0.400464    0.171411    0.715351    11.00000   -1.20000
AFIX   0
C36   1    0.715954   -0.061079    0.148082    11.00000    0.02763    0.03528 =
         0.01589    0.00229    0.00287    0.02244
AFIX  43
H36   2    0.778214   -0.094129    0.133351    11.00000   -1.20000
AFIX   0
C37   1    0.586618   -0.117248    0.130289    11.00000    0.03004    0.02432 =
         0.01516   -0.00256   -0.00014    0.01692
AFIX  43
H37   2    0.560568   -0.188551    0.103139    11.00000   -1.20000
AFIX   0
C30   1    0.021511    0.237024   -0.129889    11.00000    0.02116    0.03458 =
         0.01405   -0.00173   -0.00516    0.01387
AFIX  43
H30   2   -0.002394    0.231822   -0.179438    11.00000   -1.20000
AFIX   0
C25   1    0.002174    0.701404    0.378228    11.00000    0.02245    0.02410 =
         0.03087   -0.00686   -0.00273    0.01347
AFIX  43
H25   2   -0.064387    0.701637    0.410378    11.00000   -1.20000
AFIX   0
C44   1    0.460694    0.258167    0.548890    11.00000    0.01906    0.03551 =
         0.01616    0.00451    0.00135    0.00975
AFIX  43
H44   2    0.529587    0.302995    0.518772    11.00000   -1.20000
AFIX   0
C24   1    0.070445    0.803093    0.341135    11.00000    0.03162    0.01780 =
         0.02871   -0.00718   -0.01259    0.01513
AFIX  43
H24   2    0.049838    0.872437    0.347097    11.00000   -1.20000
AFIX   0
C46   1    0.659263    0.530582    0.305644    11.00000    0.02276    0.02781 =
         0.02186   -0.00683   -0.00183    0.00567
AFIX  43
H46   2    0.720613    0.542245    0.343645    11.00000   -1.20000
AFIX   0
C56   1    0.123315    0.757254    0.642841    11.00000    0.02236    0.02582 =
         0.02927   -0.00779    0.00181    0.00246
AFIX  43
H56   2    0.079861    0.749602    0.687640    11.00000   -1.20000
AFIX   0
C45   1    0.543979    0.436147    0.306884    11.00000    0.02213    0.02464 =
         0.01824   -0.00042   -0.00129    0.00746
AFIX  43
H45   2    0.528073    0.383267    0.346398    11.00000   -1.20000
AFIX   0
C47   1    0.683914    0.607675    0.248376    11.00000    0.02278    0.01946 =
         0.03365   -0.00576    0.00664    0.00291
AFIX  43
H47   2    0.762268    0.673482    0.246199    11.00000   -1.20000
AFIX   0
C43   1    0.483642    0.246345    0.621495    11.00000    0.02414    0.04190 =
         0.01803   -0.00012   -0.00515    0.01529
AFIX  43
H43   2    0.567965    0.283565    0.640998    11.00000   -1.20000
AFIX   0
C57   1    0.105903    0.830055    0.589946    11.00000    0.02553    0.02936 =
         0.03261   -0.00836    0.00029    0.01042
AFIX  43
H57   2    0.049905    0.873289    0.597185    11.00000   -1.20000
AFIX   0
C48   1    0.591691    0.586887    0.194078    11.00000    0.02913    0.02212 =
         0.02945    0.00825    0.00771    0.00952
AFIX  43
H48   2    0.606046    0.637802    0.153640    11.00000   -1.20000
AFIX   0
C54   1    0.681791    0.356151   -0.064296    11.00000    0.02842    0.02964 =
         0.03246   -0.00835    0.00126    0.00291
AFIX  43
H54   2    0.699861    0.361739   -0.114473    11.00000   -1.20000
AFIX   0
C58   1    0.172408    0.838397    0.525896    11.00000    0.03660    0.03269 =
         0.02942   -0.00792    0.00094    0.01005
AFIX  43
H58   2    0.164360    0.888864    0.488468    11.00000   -1.20000
AFIX   0
C50   1    0.570074    0.389179    0.030961    11.00000    0.02419    0.02308 =
         0.03144   -0.00011    0.00225    0.00522
AFIX  43
H50   2    0.507032    0.418288    0.049562    11.00000   -1.20000
AFIX   0
C51   1    0.633301    0.340794    0.078609    11.00000    0.02626    0.02917 =
         0.03281    0.00825    0.00052    0.00058
AFIX  43
H51   2    0.614858    0.337745    0.128713    11.00000   -1.20000
AFIX   0
C55   1    0.205161    0.695478    0.629605    11.00000    0.02682    0.02375 =
         0.03900   -0.00756   -0.00383    0.00572
AFIX  43
H55   2    0.217214    0.646395    0.666776    11.00000   -1.20000
AFIX   0
C59   1    0.250418    0.772143    0.517503    11.00000    0.03194    0.03744 =
         0.03455   -0.01531    0.00607    0.00671
AFIX  43
H59   2    0.294377    0.777759    0.473009    11.00000   -1.20000
AFIX   0
C53   1    0.749696    0.305610   -0.020654    11.00000    0.02364    0.03139 =
         0.05915   -0.00427    0.00416    0.00965
AFIX  43
H53   2    0.812717    0.277531   -0.040390    11.00000   -1.20000
AFIX   0
C52   1    0.723775    0.296890    0.052321    11.00000    0.02457    0.03091 =
         0.05438    0.01336   -0.00430    0.00569
AFIX  43
H52   2    0.767484    0.261316    0.083754    11.00000   -1.20000
AFIX   0
HKLF 4
REM  170921RAL_PYRIDINE_COMPLEX_100_a.res in P-1
REM R1 =  0.0283 for    7543 Fo > 4sig(Fo)  and  0.0292 for all    7797 data
REM    614 parameters refined using      0 restraints
END
WGHT      0.0377      0.7283
REM Highest difference peak  0.252,  deepest hole -0.306,  1-sigma level  0.040
Q1    1   0.1566  0.1625  0.2911  11.00000  0.05    0.25
Q2    1   0.1417  0.1668  0.2544  11.00000  0.05    0.25
;
_shelx_res_checksum              84321
loop_
_space_group_symop_operation_xyz
'x, y, z'
'-x, -y, -z'
loop_
_atom_site_type_symbol
_atom_site_label
_atom_site_fract_x
_atom_site_fract_y
_atom_site_fract_z
_atom_site_U_iso_or_equiv
_atom_site_adp_type
_atom_site_calc_flag
_atom_site_occupancy
Mn Mn1 0.25000(2) 0.25259(2) 0.26425(2) 0.01129(7) Uani d 1
Cl Cl1 0.05275(3) 0.07601(3) 0.27497(2) 0.01823(9) Uani d 1
N N3 0.28699(11) 0.18844(10) 0.17020(6) 0.0131(2) Uani d 1
N N2 0.16611(11) 0.35000(10) 0.21006(6) 0.0138(2) Uani d 1
N N4 0.35308(11) 0.17105(10) 0.31700(6) 0.0129(2) Uani d 1
N N1 0.23015(11) 0.33306(10) 0.35623(6) 0.0136(2) Uani d 1
N N5 0.45322(12) 0.41540(11) 0.25495(6) 0.0170(3) Uani d 1
N N6 0.59232(13) 0.39758(12) -0.04010(8) 0.0276(3) Uani d 1
C C19 0.35666(13) 0.15735(12) 0.39042(8) 0.0135(3) Uani d 1
C C16 0.42241(13) 0.10803(12) 0.28697(8) 0.0134(3) Uani d 1
C C14 0.36984(13) 0.12807(12) 0.15901(7) 0.0136(3) Uani d 1
C C9 0.11901(13) 0.33012(12) 0.14042(8) 0.0148(3) Uani d 1
C C39 0.33748(14) 0.20485(12) 0.51979(8) 0.0154(3) Uani d 1
C C6 0.13100(13) 0.44033(12) 0.23724(8) 0.0151(3) Uani d 1
C C4 0.20063(13) 0.43432(12) 0.36279(8) 0.0148(3) Uani d 1
C C27 0.09681(14) 0.25070(13) 0.01496(8) 0.0152(3) Uani d 1
C C15 0.43798(13) 0.09316(12) 0.21294(8) 0.0136(3) Uani d 1
C C11 0.23185(13) 0.19582(12) 0.10456(7) 0.0139(3) Uani d 1
C C1 0.26374(13) 0.30786(13) 0.42388(8) 0.0146(3) Uani d 1
C C33 0.53214(14) 0.03633(13) 0.19083(7) 0.0150(3) Uani d 1
C C7 0.05806(14) 0.47601(13) 0.18378(8) 0.0178(3) Uani d 1
H H7 0.0228 0.5367 0.1888 0.021 Uiso calc 1
C C17 0.46955(14) 0.05208(13) 0.34355(8) 0.0165(3) Uani d 1
H H17 0.5210 0.0042 0.3375 0.020 Uiso calc 1
C C20 0.31388(13) 0.22013(12) 0.44175(8) 0.0145(3) Uani d 1
C C5 0.15543(13) 0.48713(12) 0.30716(8) 0.0152(3) Uani d 1
C C35 0.75424(15) 0.04324(15) 0.18735(8) 0.0233(3) Uani d 1
H H35 0.8427 0.0817 0.1998 0.028 Uiso calc 1
C C28 0.00599(15) 0.14826(13) -0.01309(8) 0.0191(3) Uani d 1
H H28 -0.0316 0.0825 0.0175 0.023 Uiso calc 1
N N7 0.26832(14) 0.70063(14) 0.56772(9) 0.0359(4) Uani d 1
C C12 0.28312(14) 0.13959(13) 0.05048(8) 0.0161(3) Uani d 1
H H12 0.2601 0.1313 0.0008 0.019 Uiso calc 1
C C8 0.04876(14) 0.40704(13) 0.12464(8) 0.0173(3) Uani d 1
H H8 0.0042 0.4093 0.0810 0.021 Uiso calc 1
C C49 0.47837(15) 0.49069(14) 0.19981(8) 0.0207(3) Uani d 1
H H49 0.4153 0.4775 0.1626 0.025 Uiso calc 1
C C40 0.23800(15) 0.14101(13) 0.56488(8) 0.0201(3) Uani d 1
H H40 0.1530 0.1058 0.5458 0.024 Uiso calc 1
C C21 0.12741(14) 0.59728(12) 0.32143(8) 0.0157(3) Uani d 1
C C18 0.42704(14) 0.08038(13) 0.40676(8) 0.0163(3) Uani d 1
H H18 0.4410 0.0543 0.4533 0.020 Uiso calc 1
C C3 0.21752(14) 0.47356(13) 0.43655(8) 0.0177(3) Uani d 1
H H3 0.2055 0.5420 0.4553 0.021 Uiso calc 1
C C34 0.66264(14) 0.09132(14) 0.20836(8) 0.0196(3) Uani d 1
H H34 0.6894 0.1630 0.2352 0.024 Uiso calc 1
C C13 0.37026(14) 0.10065(13) 0.08331(8) 0.0159(3) Uani d 1
H H13 0.4219 0.0624 0.0607 0.019 Uiso calc 1
C C38 0.49484(14) -0.06955(13) 0.15206(8) 0.0176(3) Uani d 1
H H38 0.4063 -0.1093 0.1405 0.021 Uiso calc 1
C C2 0.25384(14) 0.39468(13) 0.47430(8) 0.0179(3) Uani d 1
H H2 0.2698 0.3964 0.5248 0.021 Uiso calc 1
C C10 0.14712(13) 0.25626(12) 0.09031(8) 0.0143(3) Uani d 1
C C22 0.19665(15) 0.70084(13) 0.28517(8) 0.0189(3) Uani d 1
H H22 0.2637 0.7015 0.2531 0.023 Uiso calc 1
C C32 0.14656(14) 0.34803(13) -0.03030(8) 0.0194(3) Uani d 1
H H32 0.2069 0.4195 -0.0117 0.023 Uiso calc 1
C C26 0.03019(14) 0.59893(13) 0.36883(8) 0.0197(3) Uani d 1
H H26 -0.0170 0.5298 0.3947 0.024 Uiso calc 1
C C23 0.16871(16) 0.80310(13) 0.29541(9) 0.0224(3) Uani d 1
H H23 0.2174 0.8733 0.2709 0.027 Uiso calc 1
C C41 0.26093(16) 0.12787(14) 0.63777(8) 0.0231(3) Uani d 1
H H41 0.1923 0.0830 0.6680 0.028 Uiso calc 1
C C31 0.10873(15) 0.34110(14) -0.10188(8) 0.0216(3) Uani d 1
H H31 0.1427 0.4080 -0.1321 0.026 Uiso calc 1
C C29 -0.03044(15) 0.14082(14) -0.08518(9) 0.0229(3) Uani d 1
H H29 -0.0911 0.0696 -0.1039 0.027 Uiso calc 1
C C42 0.38407(16) 0.18045(14) 0.66576(8) 0.0214(3) Uani d 1
H H42 0.4005 0.1714 0.7154 0.026 Uiso calc 1
C C36 0.71595(16) -0.06108(15) 0.14808(8) 0.0232(3) Uani d 1
H H36 0.7782 -0.0941 0.1334 0.028 Uiso calc 1
C C37 0.58662(16) -0.11725(14) 0.13029(8) 0.0212(3) Uani d 1
H H37 0.5606 -0.1886 0.1031 0.025 Uiso calc 1
C C30 0.02151(15) 0.23702(15) -0.12989(8) 0.0222(3) Uani d 1
H H30 -0.0024 0.2318 -0.1794 0.027 Uiso calc 1
C C25 0.00217(15) 0.70140(14) 0.37823(9) 0.0244(3) Uani d 1
H H25 -0.0644 0.7016 0.4104 0.029 Uiso calc 1
C C44 0.46069(15) 0.25817(15) 0.54889(8) 0.0235(3) Uani d 1
H H44 0.5296 0.3030 0.5188 0.028 Uiso calc 1
C C24 0.07045(16) 0.80309(14) 0.34114(9) 0.0244(4) Uani d 1
H H24 0.0498 0.8724 0.3471 0.029 Uiso calc 1
C C46 0.65926(16) 0.53058(14) 0.30564(9) 0.0250(4) Uani d 1
H H46 0.7206 0.5422 0.3436 0.030 Uiso calc 1
C C56 0.12331(16) 0.75725(15) 0.64284(9) 0.0274(4) Uani d 1
H H56 0.0799 0.7496 0.6876 0.033 Uiso calc 1
C C45 0.54398(15) 0.43615(14) 0.30688(8) 0.0219(3) Uani d 1
H H45 0.5281 0.3833 0.3464 0.026 Uiso calc 1
C C47 0.68391(16) 0.60767(14) 0.24838(9) 0.0265(4) Uani d 1
H H47 0.7623 0.6735 0.2462 0.032 Uiso calc 1
C C43 0.48364(16) 0.24635(16) 0.62149(9) 0.0271(4) Uani d 1
H H43 0.5680 0.2836 0.6410 0.032 Uiso calc 1
C C57 0.10590(16) 0.83005(15) 0.58995(9) 0.0290(4) Uani d 1
H H57 0.0499 0.8733 0.5972 0.035 Uiso calc 1
C C48 0.59169(16) 0.58689(14) 0.19408(9) 0.0267(4) Uani d 1
H H48 0.6060 0.6378 0.1536 0.032 Uiso calc 1
C C54 0.68179(17) 0.35615(16) -0.06430(10) 0.0321(4) Uani d 1
H H54 0.6999 0.3617 -0.1145 0.039 Uiso calc 1
C C58 0.17241(18) 0.83840(16) 0.52590(10) 0.0335(4) Uani d 1
H H58 0.1644 0.8889 0.4885 0.040 Uiso calc 1
C C50 0.57007(16) 0.38918(14) 0.03096(9) 0.0270(4) Uani d 1
H H50 0.5070 0.4183 0.0496 0.032 Uiso calc 1
C C51 0.63330(17) 0.34079(16) 0.07861(10) 0.0318(4) Uani d 1
H H51 0.6149 0.3377 0.1287 0.038 Uiso calc 1
C C55 0.20516(16) 0.69548(15) 0.62960(10) 0.0307(4) Uani d 1
H H55 0.2172 0.6464 0.6668 0.037 Uiso calc 1
C C59 0.25042(18) 0.77214(17) 0.51750(10) 0.0361(4) Uani d 1
H H59 0.2944 0.7778 0.4730 0.043 Uiso calc 1
C C53 0.74970(17) 0.30561(17) -0.02065(12) 0.0381(5) Uani d 1
H H53 0.8127 0.2775 -0.0404 0.046 Uiso calc 1
C C52 0.72378(17) 0.29689(16) 0.05232(11) 0.0377(5) Uani d 1
H H52 0.7675 0.2613 0.0838 0.045 Uiso calc 1
loop_
_atom_site_aniso_label
_atom_site_aniso_U_11
_atom_site_aniso_U_22
_atom_site_aniso_U_33
_atom_site_aniso_U_12
_atom_site_aniso_U_13
_atom_site_aniso_U_23
Mn1 0.01350(12) 0.01365(13) 0.00933(13) 0.00804(9) -0.00088(8) 0.00011(8)
Cl1 0.01423(17) 0.01765(18) 0.0226(2) 0.00532(13) 0.00011(13) 0.00237(13)
N3 0.0144(6) 0.0150(6) 0.0113(6) 0.0068(5) -0.0005(5) 0.0013(4)
N2 0.0158(6) 0.0147(6) 0.0124(6) 0.0073(5) -0.0010(5) 0.0002(4)
N4 0.0147(6) 0.0144(6) 0.0109(6) 0.0067(5) -0.0006(5) -0.0002(4)
N1 0.0162(6) 0.0149(6) 0.0119(6) 0.0080(5) 0.0000(5) 0.0011(4)
N5 0.0182(6) 0.0178(6) 0.0159(7) 0.0076(5) 0.0010(5) 0.0000(5)
N6 0.0254(7) 0.0258(7) 0.0295(8) 0.0063(6) -0.0029(6) -0.0037(6)
C19 0.0144(7) 0.0150(7) 0.0119(7) 0.0061(6) -0.0008(5) 0.0021(5)
C16 0.0123(6) 0.0128(7) 0.0159(7) 0.0053(5) -0.0010(5) -0.0007(5)
C14 0.0128(7) 0.0140(7) 0.0140(7) 0.0045(5) 0.0006(5) -0.0006(5)
C9 0.0144(7) 0.0160(7) 0.0140(8) 0.0051(6) -0.0007(5) 0.0022(5)
C39 0.0227(7) 0.0163(7) 0.0123(7) 0.0132(6) 0.0002(6) 0.0004(5)
C6 0.0142(7) 0.0135(7) 0.0186(8) 0.0061(6) 0.0007(6) 0.0015(5)
C4 0.0147(7) 0.0147(7) 0.0169(8) 0.0073(6) 0.0004(5) -0.0009(5)
C27 0.0167(7) 0.0190(7) 0.0133(7) 0.0106(6) -0.0018(6) -0.0005(5)
C15 0.0120(7) 0.0131(7) 0.0154(7) 0.0039(5) -0.0005(5) -0.0009(5)
C11 0.0145(7) 0.0149(7) 0.0111(7) 0.0038(6) -0.0010(5) 0.0005(5)
C1 0.0150(7) 0.0174(7) 0.0121(7) 0.0066(6) 0.0012(5) 0.0016(5)
C33 0.0180(7) 0.0192(7) 0.0108(7) 0.0105(6) -0.0001(5) 0.0011(5)
C7 0.0188(7) 0.0177(7) 0.0209(8) 0.0112(6) -0.0023(6) 0.0007(6)
C17 0.0190(7) 0.0168(7) 0.0171(8) 0.0106(6) -0.0028(6) -0.0008(6)
C20 0.0146(7) 0.0164(7) 0.0127(7) 0.0058(6) -0.0003(5) 0.0012(5)
C5 0.0148(7) 0.0149(7) 0.0171(8) 0.0067(6) 0.0002(5) 0.0009(5)
C35 0.0177(7) 0.0361(9) 0.0193(8) 0.0136(7) -0.0017(6) 0.0018(6)
C28 0.0216(7) 0.0185(8) 0.0177(8) 0.0077(6) -0.0017(6) 0.0014(6)
N7 0.0282(8) 0.0327(9) 0.0457(10) 0.0095(7) -0.0001(7) -0.0166(7)
C12 0.0183(7) 0.0199(8) 0.0103(7) 0.0071(6) -0.0010(6) -0.0008(5)
C8 0.0184(7) 0.0199(8) 0.0156(8) 0.0094(6) -0.0044(6) 0.0016(6)
C49 0.0214(8) 0.0234(8) 0.0202(8) 0.0116(6) 0.0006(6) 0.0024(6)
C40 0.0221(8) 0.0205(8) 0.0175(8) 0.0073(6) 0.0003(6) 0.0013(6)
C21 0.0174(7) 0.0153(7) 0.0166(8) 0.0085(6) -0.0061(6) -0.0020(5)
C18 0.0212(7) 0.0162(7) 0.0137(7) 0.0094(6) -0.0029(6) 0.0019(5)
C3 0.0221(7) 0.0177(8) 0.0162(8) 0.0109(6) -0.0001(6) -0.0024(6)
C34 0.0193(8) 0.0239(8) 0.0171(8) 0.0094(6) -0.0026(6) -0.0022(6)
C13 0.0162(7) 0.0183(7) 0.0144(7) 0.0074(6) 0.0012(6) -0.0015(5)
C38 0.0199(7) 0.0201(8) 0.0147(8) 0.0096(6) -0.0011(6) -0.0012(6)
C2 0.0232(8) 0.0224(8) 0.0111(7) 0.0120(6) -0.0006(6) -0.0016(6)
C10 0.0152(7) 0.0152(7) 0.0115(7) 0.0040(6) -0.0013(5) 0.0024(5)
C22 0.0209(7) 0.0199(8) 0.0160(8) 0.0074(6) -0.0056(6) -0.0006(6)
C32 0.0193(7) 0.0192(8) 0.0181(8) 0.0049(6) -0.0026(6) 0.0007(6)
C26 0.0191(7) 0.0159(7) 0.0248(8) 0.0071(6) -0.0015(6) -0.0024(6)
C23 0.0293(8) 0.0144(7) 0.0218(8) 0.0056(6) -0.0114(6) 0.0000(6)
C41 0.0317(9) 0.0236(8) 0.0152(8) 0.0110(7) 0.0058(6) 0.0042(6)
C31 0.0228(8) 0.0267(8) 0.0169(8) 0.0105(7) -0.0003(6) 0.0072(6)
C29 0.0207(8) 0.0236(8) 0.0237(9) 0.0071(6) -0.0066(6) -0.0069(6)
C42 0.0356(9) 0.0261(8) 0.0108(7) 0.0212(7) -0.0008(6) 0.0005(6)
C36 0.0276(8) 0.0353(9) 0.0159(8) 0.0224(7) 0.0029(6) 0.0023(6)
C37 0.0300(8) 0.0243(8) 0.0152(8) 0.0169(7) -0.0001(6) -0.0026(6)
C30 0.0212(8) 0.0346(9) 0.0140(8) 0.0139(7) -0.0052(6) -0.0017(6)
C25 0.0225(8) 0.0241(8) 0.0309(9) 0.0135(7) -0.0027(7) -0.0069(7)
C44 0.0191(8) 0.0355(9) 0.0162(8) 0.0098(7) 0.0013(6) 0.0045(6)
C24 0.0316(9) 0.0178(8) 0.0287(9) 0.0151(7) -0.0126(7) -0.0072(6)
C46 0.0228(8) 0.0278(9) 0.0219(9) 0.0057(7) -0.0018(6) -0.0068(6)
C56 0.0224(8) 0.0258(9) 0.0293(9) 0.0025(7) 0.0018(7) -0.0078(7)
C45 0.0221(8) 0.0246(8) 0.0182(8) 0.0075(7) -0.0013(6) -0.0004(6)
C47 0.0228(8) 0.0195(8) 0.0336(10) 0.0029(7) 0.0066(7) -0.0058(7)
C43 0.0241(8) 0.0419(10) 0.0180(9) 0.0153(7) -0.0051(6) -0.0001(7)
C57 0.0255(9) 0.0294(9) 0.0326(10) 0.0104(7) 0.0003(7) -0.0084(7)
C48 0.0291(9) 0.0221(8) 0.0295(9) 0.0095(7) 0.0077(7) 0.0082(7)
C54 0.0284(9) 0.0296(9) 0.0325(10) 0.0029(8) 0.0013(7) -0.0083(7)
C58 0.0366(10) 0.0327(10) 0.0294(10) 0.0100(8) 0.0009(8) -0.0079(7)
C50 0.0242(8) 0.0231(9) 0.0314(10) 0.0052(7) 0.0022(7) -0.0001(7)
C51 0.0263(9) 0.0292(9) 0.0328(10) 0.0006(7) 0.0005(7) 0.0082(7)
C55 0.0268(9) 0.0237(9) 0.0390(11) 0.0057(7) -0.0038(7) -0.0076(7)
C59 0.0319(10) 0.0374(11) 0.0345(11) 0.0067(8) 0.0061(8) -0.0153(8)
C53 0.0236(9) 0.0314(10) 0.0591(13) 0.0096(8) 0.0042(8) -0.0043(9)
C52 0.0246(9) 0.0309(10) 0.0544(13) 0.0057(8) -0.0043(8) 0.0134(9)
loop_
_atom_type_symbol
_atom_type_description
_atom_type_scat_dispersion_real
_atom_type_scat_dispersion_imag
_atom_type_scat_source
C C 0.0181 0.0091 'International Tables Vol C Tables 4.2.6.8 and 6.1.1.4'
H H 0.0000 0.0000 'International Tables Vol C Tables 4.2.6.8 and 6.1.1.4'
N N 0.0311 0.0180 'International Tables Vol C Tables 4.2.6.8 and 6.1.1.4'
Cl Cl 0.3639 0.7018 'International Tables Vol C Tables 4.2.6.8 and 6.1.1.4'
Mn Mn -0.5299 2.8052 'International Tables Vol C Tables 4.2.6.8 and 6.1.1.4'
loop_
_geom_angle_atom_site_label_1
_geom_angle_atom_site_label_2
_geom_angle_atom_site_label_3
_geom_angle
N4 Mn1 N2 173.35(5)
N4 Mn1 N3 90.21(5)
N2 Mn1 N3 89.54(5)
N4 Mn1 N1 90.24(5)
N2 Mn1 N1 89.27(5)
N3 Mn1 N1 173.61(5)
N4 Mn1 N5 85.07(4)
N2 Mn1 N5 88.27(4)
N3 Mn1 N5 89.41(4)
N1 Mn1 N5 84.28(4)
N4 Mn1 Cl1 90.71(3)
N2 Mn1 Cl1 95.93(3)
N3 Mn1 Cl1 88.82(3)
N1 Mn1 Cl1 97.55(3)
N5 Mn1 Cl1 175.42(3)
C14 N3 C11 107.03(11)
C14 N3 Mn1 127.07(9)
C11 N3 Mn1 125.89(9)
C6 N2 C9 106.58(11)
C6 N2 Mn1 126.97(9)
C9 N2 Mn1 126.07(9)
C19 N4 C16 106.88(11)
C19 N4 Mn1 125.96(9)
C16 N4 Mn1 126.85(9)
C1 N1 C4 106.58(11)
C1 N1 Mn1 125.58(9)
C4 N1 Mn1 127.11(9)
C49 N5 C45 117.15(13)
C49 N5 Mn1 121.86(10)
C45 N5 Mn1 120.95(10)
C54 N6 C50 116.48(15)
N4 C19 C20 125.37(13)
N4 C19 C18 109.31(12)
C20 C19 C18 124.83(13)
N4 C16 C15 125.87(13)
N4 C16 C17 109.21(12)
C15 C16 C17 124.79(13)
N3 C14 C15 125.52(12)
N3 C14 C13 109.16(12)
C15 C14 C13 125.25(13)
N2 C9 C10 125.25(13)
N2 C9 C8 109.46(12)
C10 C9 C8 124.94(14)
C40 C39 C44 118.83(14)
C40 C39 C20 121.35(13)
C44 C39 C20 119.79(13)
N2 C6 C5 126.20(13)
N2 C6 C7 109.42(12)
C5 C6 C7 124.29(13)
N1 C4 C5 125.30(13)
N1 C4 C3 109.42(12)
C5 C4 C3 125.22(13)
C28 C27 C32 118.52(14)
C28 C27 C10 121.58(13)
C32 C27 C10 119.80(13)
C14 C15 C16 123.67(13)
C14 C15 C33 118.51(12)
C16 C15 C33 117.83(12)
N3 C11 C10 126.26(13)
N3 C11 C12 109.18(12)
C10 C11 C12 124.37(13)
N1 C1 C20 126.55(13)
N1 C1 C2 109.51(12)
C20 C1 C2 123.60(14)
C34 C33 C38 118.41(13)
C34 C33 C15 119.22(13)
C38 C33 C15 122.36(13)
C8 C7 C6 107.38(13)
C8 C7 H7 126.3
C6 C7 H7 126.3
C18 C17 C16 107.28(13)
C18 C17 H17 126.4
C16 C17 H17 126.4
C1 C20 C19 123.38(14)
C1 C20 C39 117.16(12)
C19 C20 C39 118.99(13)
C4 C5 C6 123.12(13)
C4 C5 C21 119.95(13)
C6 C5 C21 116.91(12)
C36 C35 C34 119.66(15)
C36 C35 H35 120.2
C34 C35 H35 120.2
C29 C28 C27 120.88(14)
C29 C28 H28 119.6
C27 C28 H28 119.6
C59 N7 C55 116.02(16)
C13 C12 C11 107.45(13)
C13 C12 H12 126.3
C11 C12 H12 126.3
C7 C8 C9 107.11(13)
C7 C8 H8 126.4
C9 C8 H8 126.4
N5 C49 C48 123.33(15)
N5 C49 H49 118.3
C48 C49 H49 118.3
C39 C40 C41 120.90(14)
C39 C40 H40 119.6
C41 C40 H40 119.6
C22 C21 C26 118.55(13)
C22 C21 C5 119.75(13)
C26 C21 C5 121.67(13)
C17 C18 C19 107.27(13)
C17 C18 H18 126.4
C19 C18 H18 126.4
C2 C3 C4 107.15(13)
C2 C3 H3 126.4
C4 C3 H3 126.4
C35 C34 C33 121.25(14)
C35 C34 H34 119.4
C33 C34 H34 119.4
C12 C13 C14 107.10(13)
C12 C13 H13 126.4
C14 C13 H13 126.4
C37 C38 C33 120.44(14)
C37 C38 H38 119.8
C33 C38 H38 119.8
C3 C2 C1 107.32(13)
C3 C2 H2 126.3
C1 C2 H2 126.3
C9 C10 C11 123.38(13)
C9 C10 C27 119.06(13)
C11 C10 C27 117.21(12)
C23 C22 C21 120.75(15)
C23 C22 H22 119.6
C21 C22 H22 119.6
C31 C32 C27 120.51(14)
C31 C32 H32 119.7
C27 C32 H32 119.7
C25 C26 C21 120.27(15)
C25 C26 H26 119.9
C21 C26 H26 119.9
C24 C23 C22 120.25(15)
C24 C23 H23 119.9
C22 C23 H23 119.9
C42 C41 C40 119.59(15)
C42 C41 H41 120.2
C40 C41 H41 120.2
C32 C31 C30 120.41(14)
C32 C31 H31 119.8
C30 C31 H31 119.8
C30 C29 C28 120.05(14)
C30 C29 H29 120.0
C28 C29 H29 120.0
C41 C42 C43 119.98(14)
C41 C42 H42 120.0
C43 C42 H42 120.0
C35 C36 C37 119.95(14)
C35 C36 H36 120.0
C37 C36 H36 120.0
C36 C37 C38 120.28(14)
C36 C37 H37 119.9
C38 C37 H37 119.9
C29 C30 C31 119.56(14)
C29 C30 H30 120.2
C31 C30 H30 120.2
C24 C25 C26 120.57(15)
C24 C25 H25 119.7
C26 C25 H25 119.7
C43 C44 C39 120.45(15)
C43 C44 H44 119.8
C39 C44 H44 119.8
C23 C24 C25 119.59(14)
C23 C24 H24 120.2
C25 C24 H24 120.2
C47 C46 C45 118.98(15)
C47 C46 H46 120.5
C45 C46 H46 120.5
C57 C56 C55 118.85(16)
C57 C56 H56 120.6
C55 C56 H56 120.6
N5 C45 C46 123.24(15)
N5 C45 H45 118.4
C46 C45 H45 118.4
C46 C47 C48 118.46(15)
C46 C47 H47 120.8
C48 C47 H47 120.8
C42 C43 C44 120.23(15)
C42 C43 H43 119.9
C44 C43 H43 119.9
C56 C57 C58 118.07(17)
C56 C57 H57 121.0
C58 C57 H57 121.0
C49 C48 C47 118.84(15)
C49 C48 H48 120.6
C47 C48 H48 120.6
N6 C54 C53 123.86(17)
N6 C54 H54 118.1
C53 C54 H54 118.1
C59 C58 C57 118.74(19)
C59 C58 H58 120.6
C57 C58 H58 120.6
N6 C50 C51 123.76(17)
N6 C50 H50 118.1
C51 C50 H50 118.1
C50 C51 C52 118.78(17)
C50 C51 H51 120.6
C52 C51 H51 120.6
N7 C55 C56 123.99(18)
N7 C55 H55 118.0
C56 C55 H55 118.0
N7 C59 C58 124.31(17)
N7 C59 H59 117.8
C58 C59 H59 117.8
C52 C53 C54 118.43(18)
C52 C53 H53 120.8
C54 C53 H53 120.8
C51 C52 C53 118.67(17)
C51 C52 H52 120.7
C53 C52 H52 120.7
loop_
_geom_bond_atom_site_label_1
_geom_bond_atom_site_label_2
_geom_bond_distance
Mn1 N4 2.0024(12)
Mn1 N2 2.0056(12)
Mn1 N3 2.0081(12)
Mn1 N1 2.0119(12)
Mn1 N5 2.4203(12)
Mn1 Cl1 2.4693(4)
N3 C14 1.3732(18)
N3 C11 1.3747(19)
N2 C6 1.3771(18)
N2 C9 1.3776(19)
N4 C19 1.3735(18)
N4 C16 1.3752(18)
N1 C1 1.3709(19)
N1 C4 1.3798(18)
N5 C49 1.336(2)
N5 C45 1.344(2)
N6 C54 1.335(2)
N6 C50 1.339(2)
C19 C20 1.400(2)
C19 C18 1.439(2)
C16 C15 1.403(2)
C16 C17 1.441(2)
C14 C15 1.401(2)
C14 C13 1.4413(19)
C9 C10 1.397(2)
C9 C8 1.436(2)
C39 C40 1.387(2)
C39 C44 1.391(2)
C39 C20 1.492(2)
C6 C5 1.399(2)
C6 C7 1.434(2)
C4 C5 1.394(2)
C4 C3 1.436(2)
C27 C28 1.390(2)
C27 C32 1.397(2)
C27 C10 1.493(2)
C15 C33 1.493(2)
C11 C10 1.400(2)
C11 C12 1.4360(19)
C1 C20 1.399(2)
C1 C2 1.437(2)
C33 C34 1.396(2)
C33 C38 1.396(2)
C7 C8 1.357(2)
C7 H7 0.9500
C17 C18 1.352(2)
C17 H17 0.9500
C5 C21 1.494(2)
C35 C36 1.385(2)
C35 C34 1.390(2)
C35 H35 0.9500
C28 C29 1.387(2)
C28 H28 0.9500
N7 C59 1.333(3)
N7 C55 1.336(2)
C12 C13 1.354(2)
C12 H12 0.9500
C8 H8 0.9500
C49 C48 1.384(2)
C49 H49 0.9500
C40 C41 1.393(2)
C40 H40 0.9500
C21 C22 1.395(2)
C21 C26 1.397(2)
C18 H18 0.9500
C3 C2 1.354(2)
C3 H3 0.9500
C34 H34 0.9500
C13 H13 0.9500
C38 C37 1.392(2)
C38 H38 0.9500
C2 H2 0.9500
C22 C23 1.390(2)
C22 H22 0.9500
C32 C31 1.382(2)
C32 H32 0.9500
C26 C25 1.390(2)
C26 H26 0.9500
C23 C24 1.381(2)
C23 H23 0.9500
C41 C42 1.381(2)
C41 H41 0.9500
C31 C30 1.387(2)
C31 H31 0.9500
C29 C30 1.384(2)
C29 H29 0.9500
C42 C43 1.385(2)
C42 H42 0.9500
C36 C37 1.387(2)
C36 H36 0.9500
C37 H37 0.9500
C30 H30 0.9500
C25 C24 1.384(2)
C25 H25 0.9500
C44 C43 1.385(2)
C44 H44 0.9500
C24 H24 0.9500
C46 C47 1.379(2)
C46 C45 1.382(2)
C46 H46 0.9500
C56 C57 1.377(3)
C56 C55 1.383(2)
C56 H56 0.9500
C45 H45 0.9500
C47 C48 1.386(2)
C47 H47 0.9500
C43 H43 0.9500
C57 C58 1.385(2)
C57 H57 0.9500
C48 H48 0.9500
C54 C53 1.382(3)
C54 H54 0.9500
C58 C59 1.377(3)
C58 H58 0.9500
C50 C51 1.376(3)
C50 H50 0.9500
C51 C52 1.377(3)
C51 H51 0.9500
C55 H55 0.9500
C59 H59 0.9500
C53 C52 1.381(3)
C53 H53 0.9500
C52 H52 0.9500

_cod_database_fobs_code 2021487
