#------------------------------------------------------------------------------
#$Date: 2020-11-10 07:02:29 +0200 (Tue, 10 Nov 2020) $
#$Revision: 259057 $
#$URL: file:///home/coder/svn-repositories/cod/cif/2/02/22/2022274.cif $
#------------------------------------------------------------------------------
#
# This file is available in the Crystallography Open Database (COD),
# http://www.crystallography.net/. The original data for this entry
# were provided by IUCr Journals, http://journals.iucr.org/.
#
# The file may be used within the scientific community so long as
# proper attribution is given to the journal article from which the
# data were obtained.
#
data_2022274
loop_
_publ_author_name
'Chen, Wen-Tong'
_publ_section_title
;
 Crystal structure and photophysical properties of a novel
 polyoxomolybdate porphyrin
;
_journal_coeditor_code           ZO3009
_journal_issue                   12
_journal_name_full               'Acta Crystallographica Section C'
_journal_page_first
;
;
_journal_paper_doi               10.1107/S2053229620014461
_journal_volume                  76
_journal_year                    2020
_chemical_formula_iupac          '(C48 H32 N4 O8) [Mo6 O19], 5H2 O'
_chemical_formula_moiety         'C48 H32 N4 O8 2+, Mo6 O19 2-, 5(H2 O)'
_chemical_formula_sum            'C48 H42 Mo6 N4 O32'
_chemical_formula_weight         1762.49
_chemical_melting_point          ?
_chemical_name_common            Mo6O19.H2TCPP.5H2O
_chemical_name_systematic
;5,10,15,20-Tetrakis(4-carboxyphenyl)-21<i>H</i>,22<i>H</i>,23<i>H</i>,
\24<i>H</i>-porphine(2+) hexamolybdate(VI) pentahydrate
;
_space_group_crystal_system      orthorhombic
_space_group_IT_number           58
_space_group_name_Hall           '-P 2 2n'
_space_group_name_H-M_alt        'P n n m'
_atom_sites_solution_hydrogens   mixed
_audit_creation_method           SHELXL-2018/3
_cell_angle_alpha                90
_cell_angle_beta                 90
_cell_angle_gamma                90
_cell_formula_units_Z            4
_cell_length_a                   19.3159(8)
_cell_length_b                   15.0183(5)
_cell_length_c                   19.6537(10)
_cell_measurement_reflns_used    3496
_cell_measurement_temperature    293(2)
_cell_measurement_theta_max      26.2010
_cell_measurement_theta_min      3.5620
_cell_volume                     5701.4(4)
_computing_cell_refinement
;
CrysAlis PRO (Rigaku OD, 2015)
;
_computing_data_collection
;
CrysAlis PRO (Rigaku OD, 2015)
;
_computing_data_reduction
;
CrysAlis PRO (Rigaku OD, 2015)
;
_computing_molecular_graphics
;
DIAMOND (Brandenburg & Putz, 2005)
;
_computing_publication_material
;
SHELXTL (Sheldrick, 2008) and publCIF (Westrip, 2010)
;
_computing_structure_refinement
;
SHELXL2018 (Sheldrick, 2015)
;
_computing_structure_solution
;
SHELXS97 (Sheldrick, 2008)
;
_diffrn_ambient_temperature      293(2)
_diffrn_detector_area_resol_mean 16.1787
_diffrn_measured_fraction_theta_full 0.986
_diffrn_measured_fraction_theta_max 0.986
_diffrn_measurement_device_type  'Rigaku SuperNova (Mo) X-ray Source'
_diffrn_measurement_method       '\w scans'
_diffrn_radiation_type           MoK\a
_diffrn_radiation_wavelength     0.71073
_diffrn_reflns_av_R_equivalents  0.0897
_diffrn_reflns_av_unetI/netI     0.1623
_diffrn_reflns_limit_h_max       15
_diffrn_reflns_limit_h_min       -22
_diffrn_reflns_limit_k_max       12
_diffrn_reflns_limit_k_min       -17
_diffrn_reflns_limit_l_max       23
_diffrn_reflns_limit_l_min       -21
_diffrn_reflns_number            15930
_diffrn_reflns_theta_full        25.026
_diffrn_reflns_theta_max         25.026
_diffrn_reflns_theta_min         3.393
_diffrn_source                   'micro-focus sealed X-ray tube'
_exptl_absorpt_coefficient_mu    1.382
_exptl_absorpt_correction_T_max  0.959
_exptl_absorpt_correction_T_min  0.936
_exptl_absorpt_correction_type   multi-scan
_exptl_absorpt_process_details
;
(CrysAlis PRO; Rigaku OD, 2015)
;
_exptl_crystal_colour            blue
_exptl_crystal_density_diffrn    2.053
_exptl_crystal_density_method    'not measured'
_exptl_crystal_description       needle-like
_exptl_crystal_F_000             3464
_exptl_crystal_size_max          0.25
_exptl_crystal_size_mid          0.04
_exptl_crystal_size_min          0.03
_refine_diff_density_max         0.808
_refine_diff_density_min         -0.733
_refine_ls_extinction_method     none
_refine_ls_goodness_of_fit_ref   1.007
_refine_ls_hydrogen_treatment    mixed
_refine_ls_matrix_type           full
_refine_ls_number_parameters     448
_refine_ls_number_reflns         5129
_refine_ls_number_restraints     57
_refine_ls_restrained_S_all      1.010
_refine_ls_R_factor_all          0.2046
_refine_ls_R_factor_gt           0.0922
_refine_ls_shift/su_max          0.001
_refine_ls_shift/su_mean         0.000
_refine_ls_structure_factor_coef Fsqd
_refine_ls_weighting_details
'w=1/[\s^2^(Fo^2^)+(0.0397P)^2^] where P=(Fo^2^+2Fc^2^)/3'
_refine_ls_weighting_scheme      calc
_refine_ls_wR_factor_gt          0.1374
_refine_ls_wR_factor_ref         0.1748
_reflns_number_gt                2187
_reflns_number_total             5129
_reflns_threshold_expression     'I > 2\s(I)'
_cod_data_source_file            zo3009sup1.cif
_cod_data_source_block           I
_cod_depositor_comments
;
The following automatic conversions were performed:

data item '_chemical_melting_point' value 'not measured' was changed
to '?' -- the value is undefined or not given.

Automatic conversion script
Id: cif_fix_values 7556 2019-12-06 15:28:31Z antanas 
;
_cod_database_code               2022274
_shelx_space_group_comment
;
The symmetry employed for this shelxl refinement is uniquely defined
by the following loop, which should always be used as a source of
symmetry information in preference to the above space-group names.
They are only intended as comments.
;
_shelx_hkl_file
;
   0   0   4  815.51   31.32
   0   0   5   -2.15    3.17
   0   0   7   12.38    6.61
   0   0   8 3699.64   95.43
   0   0   9    0.67    2.58
   0   0  10 3639.78  106.23
   0   0  11    2.70    3.78
   0   0  12   49.21   14.07
   0   0  13    5.34    6.44
   0   0  14   18.49   10.01
   0   0  15    9.95   10.01
   0   0  16  409.39   46.89
   0   0  17   12.08   11.05
   0   0  18  245.49   39.65
   0   0  19    8.30   10.40
   0   0  20   31.05   16.34
   0   0  21    9.07    9.68
   0   0  22   19.49   15.22
   0   0  23   10.07   10.15
   0   0  24   27.10   16.84
  -1   0   4   -6.48    4.91
  -1   0  -4   -3.26    3.98
   1   0   4   -1.42    1.53
  -1   0  -5   -3.99    5.21
  -1   0   5   -4.42    4.60
   1   0   5   -1.17    1.82
  -1   0  -6   -5.32    5.18
  -1   0   6   -2.07    4.47
   1   0   6    0.32    1.04
   1   0   7    5.98    3.95
  -1   0   7    1.07    2.93
   1   0   8   -1.13    1.73
  -1   0   8   -2.01    3.66
  -1   0   9    7.92    4.12
   1   0   9   10.33    5.88
   1   0  10    2.41    3.65
  -1   0  10   -0.80    3.20
   1   0  11    6.81    5.82
  -1   0  11    0.66    1.35
   1   0  12    2.62    5.78
  -1   0  12   -0.16    3.18
   1   0  13    1.56    5.46
  -1   0  13    1.40    3.72
   1   0  14    5.58    6.47
  -1   0  14    3.49    6.91
   1   0  15    4.57    7.14
  -1   0  15    6.11    8.29
   1   0  16    2.62    7.35
  -1   0  16   16.09   11.22
  -1   0  17    8.67   10.21
   1   0  17    8.76    9.62
  -1   0  18    8.42   10.60
   1   0  18    6.58   10.44
  -1   0  19    3.42    8.24
   1   0  19    2.34    6.32
  -1   0  20    5.19    7.54
   1   0  20    2.95    5.49
  -1   0  21    0.09    2.21
   1   0  21    0.94    2.88
   1   0  22   -0.13    1.24
  -1   0  22    6.51    9.00
  -1   0  23    5.50    8.75
   1   0  23    5.17    9.00
  -1   0  24    5.90    8.79
   1   0  24    9.31   10.93
   2   0   3    1.39    2.40
  -2   0  -3    0.24    0.72
  -2   0  -4  180.24   14.74
   2   0   4  191.22   15.27
  -2   0  -5   -3.78    3.75
   2   0   5    1.15    2.81
   2   0   6  137.91   15.81
  -2   0   6  126.42   14.77
  -2   0  -6  123.46   14.81
  -2   0  -7   -2.24    4.28
  -2   0   7   -2.55    4.11
   2   0   7    1.42    3.41
  -2   0  -8 1822.45   67.43
   2   0   8 1765.56   66.15
  -2   0   8 1770.29   66.70
  -2   0   9   -2.61    4.67
   2   0   9    1.72    4.32
  -2   0  10 1189.09   61.72
   2   0  10 1159.58   60.22
   2   0  11    5.60    6.09
  -2   0  11   -1.17    0.65
  -2   0  12    0.83    2.99
   2   0  12    5.44    7.02
   2   0  13    3.66    5.77
  -2   0  13    8.06    8.25
   2   0  14   13.29   10.57
  -2   0  14    7.30    5.97
   2   0  15    6.62    7.78
  -2   0  15    7.22    9.15
   2   0  16  301.44   40.22
  -2   0  16  297.51   40.27
   2   0  17    9.40    9.89
  -2   0  17    8.93   10.40
  -2   0  18   21.09   12.50
   2   0  18   22.38   12.62
   2   0  19    9.10    8.91
  -2   0  19    2.64    7.86
  -2   0  20    7.47    9.25
   2   0  20    6.59    6.79
  -2   0  21    2.77    5.57
   2   0  21   -1.65    3.83
   2   0  22    6.29    9.86
  -2   0  22    3.95    9.16
  -2   0  23    3.66   10.05
   2   0  23    5.75    9.21
  -2   0  24    2.04    7.63
  -3   0  -2   -4.25    3.04
  -3   0  -2    0.69    1.50
   3   0   3   35.46    4.15
   3   0   3   40.90    6.34
  -3   0  -3   38.55    6.24
   3   0   4    0.69    0.99
   3   0   4    1.45    2.12
  -3   0  -4    0.47    0.58
   3   0   5   44.10    8.82
  -3   0  -5   40.46    7.36
  -3   0   6   -4.53    5.60
   3   0   6    1.08    2.61
  -3   0  -6   -2.81    4.05
  -3   0  -7   -4.91    5.36
  -3   0   7   -6.31    5.99
   3   0   7    2.67    3.95
  -3   0   8   -6.44    5.59
  -3   0  -8   -3.85    4.82
   3   0   8    1.20    3.71
  -3   0  -9   -3.04    6.21
  -3   0   9   -1.17    3.69
   3   0   9    3.90    4.74
   3   0  10    4.39    5.11
  -3   0  10   -1.41    3.90
   3   0  11    8.60    7.67
  -3   0  11    1.66    1.73
  -3   0  12    1.23    1.24
   3   0  12    7.57    7.01
  -3   0  13   25.81   10.31
   3   0  13   32.67   13.14
   3   0  14    4.99    7.24
  -3   0  14    1.24    5.53
   3   0  15   19.03   11.22
  -3   0  15   12.26    9.06
   3   0  16    0.61    4.32
  -3   0  16    7.42    8.90
   3   0  17   13.44    9.83
  -3   0  17   19.45   12.19
  -3   0  18    2.17    6.32
   3   0  18    6.61    9.37
  -3   0  19   13.29   12.45
   3   0  19    6.32    8.47
  -3   0  20   11.24   10.83
   3   0  20    5.26    8.64
  -3   0  21   11.15   12.35
   3   0  21    6.03    7.32
  -3   0  22    4.71    7.52
   3   0  22    6.03    9.19
  -3   0  23    7.22   10.02
  -3   0  24    5.77    9.65
  -4   0   0   10.23    2.39
  -4   0  -1   10.71    4.29
   4   0   1   -3.34    3.16
  -4   0  -2 1417.59   33.28
   4   0   2 1361.24   34.00
  -4   0  -2 1373.93   32.29
  -4   0  -3   -0.81    0.98
  -4   0  -3    1.95    2.20
   4   0   4 2261.14   40.91
  -4   0  -4 2242.54   54.16
   4   0   5    0.71    1.90
   4   0   5    0.86    1.63
  -4   0  -5   -0.17    1.82
   4   0   6  630.64   21.36
  -4   0  -6  662.27   35.33
   4   0   6  637.61   34.76
  -4   0   7   -5.86    6.10
  -4   0  -7   -0.35    2.28
   4   0   7    1.71    3.46
   4   0  -8    1.79    1.06
  -4   0  -8   -1.56    4.17
  -4   0   8   -1.73    4.53
   4   0   8    3.86    4.09
  -4   0  -9   -4.13    6.02
   4   0   9    1.44    2.34
  -4   0   9   -5.14    6.75
   4   0  10    3.79    4.88
  -4   0  10   -2.86    5.19
   4   0  11    3.49    4.93
  -4   0  11   -3.32    4.57
  -4   0  12  587.26   48.50
   4   0  12  609.13   48.04
  -4   0  13    1.34    1.25
   4   0  13    0.80    5.53
   4   0  14   72.44   18.14
  -4   0  14   70.10   18.66
   4   0  15    2.86    4.83
  -4   0  15    4.52    6.44
  -4   0  16   49.93   16.96
   4   0  16   50.97   16.75
  -4   0  17    3.21    7.64
   4   0  17    1.50    5.03
  -4   0  18    8.14    9.57
   4   0  18    7.66    7.72
  -4   0  19    7.68    9.26
   4   0  19    1.85    4.04
   4   0  20    7.75    8.89
  -4   0  20   15.79   11.88
  -4   0  21   12.96   13.50
  -4   0  22   57.47   22.31
  -4   0  23    8.95   11.23
  -4   0  24   -0.47    4.29
  -5   0   0   -0.78    2.36
  -5   0  -1  218.72   16.05
  -5   0  -2   28.04    8.00
   5   0   2   -1.17    1.78
   5   0   3  415.20   20.27
  -5   0  -3  431.83   20.94
  -5   0  -3  434.18   21.52
  -5   0  -4    1.92    2.10
  -5   0  -4    1.43    2.57
   5   0   5   92.13    8.16
  -5   0  -5  103.47   13.18
   5   0   6   -0.78    1.10
  -5   0  -6   -0.32    2.22
   5   0   6    0.70    2.09
   5   0   7   54.79    7.56
  -5   0  -7   52.01   10.65
   5   0   7   54.33   11.18
  -5   0   8   -4.64    6.35
  -5   0  -8   -3.39    4.12
   5   0   8    0.49    1.34
   5   0   8    0.56    2.71
  -5   0   9   -1.62    5.18
  -5   0  -9    2.12    3.23
   5   0   9    5.77    3.80
   5   0  10    2.51    4.36
  -5   0  10   -3.90    5.33
   5   0 -11   80.28    6.28
   5   0  11   80.18   17.17
  -5   0  11   78.31   16.59
   5   0 -12    0.26    0.67
   5   0  12    1.45    4.72
  -5   0  12   -4.04    5.51
   5   0 -13  108.33    9.25
   5   0  13  105.87   21.30
  -5   0  13  108.98   21.95
   5   0  14    5.57    6.66
  -5   0  14    0.29    1.80
  -5   0  15    4.78    5.36
   5   0  15    9.03    7.25
   5   0  16    1.09    4.20
  -5   0  16    2.84    6.46
   5   0  17    3.18    4.48
  -5   0  17    4.57    7.51
   5   0  18   -0.52    1.89
  -5   0  18    3.89    6.44
  -5   0  19    4.10    6.19
   5   0  19   -0.34    4.25
  -5   0  20    9.22   11.30
  -5   0  21   17.13   14.28
  -5   0  22    5.93    9.80
  -5   0  23    4.45    8.36
  -5   0  24    7.60   10.51
  -6   0   0   11.44    3.98
  -6   0  -1    6.18    4.45
  -6   0  -2  785.46   30.46
   6   0   2  838.13   34.62
  -6   0  -3    0.83    1.63
   6   0   3    0.17    1.22
  -6   0   4 1277.24   29.36
   6   0   4 1262.24   37.71
  -6   0  -4 1301.31   37.60
  -6   0  -4 1288.97   42.13
  -6   0  -5    0.15    0.83
  -6   0  -5    1.54    2.25
   6   0   6  607.42   24.94
  -6   0  -6  612.31   34.93
   6   0   7   -4.06    3.87
  -6   0  -7    0.06    0.70
  -6   0   8   18.96    3.55
   6   0   8   26.05    5.21
  -6   0  -8   24.56    7.52
  -6   0   9   -4.81    6.12
   6   0   9    3.88    3.50
   6   0   9    1.10    1.31
   6   0  10  129.05   12.24
  -6   0  10  119.92   19.25
   6   0  10  122.80   20.30
   6   0  11    1.93    2.87
   6   0  11    4.91    5.55
  -6   0  11   -2.46    4.44
   6   0  12  431.75   24.12
  -6   0  12  446.04   42.46
   6   0  12  439.22   41.40
   6   0  13    5.48    6.05
  -6   0  13   -2.66    4.01
  -6   0  14  440.86   45.59
   6   0  14  443.39   45.41
   6   0  15    0.23    2.14
  -6   0  15    3.50    4.91
   6   0 -16   24.59    3.52
   6   0  16   30.05   12.01
  -6   0  16   28.16   13.09
  -6   0  17    3.23    7.79
  -6   0  18   14.54   11.50
  -6   0  19   11.00   10.57
  -6   0  20   46.63   19.44
  -6   0  21   10.84   11.81
  -6   0  22   52.32   22.00
  -6   0  23    6.58   11.10
  -6   0  24    5.42   11.29
  -7   0   0   11.28    4.40
  -7   0  -1  166.64   16.79
  -7   0   1  141.76   16.31
  -7   0  -2   14.04    7.43
  -7   0  -3  129.70   12.52
  -7   0  -3  152.15   13.47
   7   0   3  156.56   15.50
  -7   0   4   -0.04    0.30
  -7   0  -4   -3.49    3.92
   7   0   4    0.38    1.05
  -7   0  -4    1.41    2.42
  -7   0   5   85.17    7.44
   7   0   5   90.20   11.34
  -7   0  -5   94.65   10.99
  -7   0  -5   87.15   12.23
  -7   0   6    0.05    0.21
  -7   0  -6    1.62    1.77
   7   0   7   38.77    6.54
  -7   0  -7    5.33    3.70
  -7   0  -8   -3.36    3.92
  -7   0   9    7.93    2.45
   7   0   9    3.88    3.20
  -7   0  10   -4.71    6.52
   7   0  10   -1.32    2.76
   7   0  11  136.33   13.71
  -7   0  11  139.55   22.33
   7   0  12    2.39    3.25
  -7   0  12   -1.51    3.03
   7   0  13   84.79   11.58
  -7   0  13   76.92   18.38
   7   0  14    7.98    5.34
  -7   0  14    1.85    2.85
  -7   0  15   17.94   10.06
  -7   0  16    1.77    4.79
  -7   0  17    3.85    6.28
  -7   0  18    5.36    8.00
  -7   0  19   11.85   12.36
  -7   0  20   13.74   12.72
  -7   0  21   11.39   12.38
  -7   0  22    7.76   11.85
  -7   0  23    9.31   11.22
  -7   0  24   10.88   11.98
  -8   0   0   11.51    5.18
  -8   0  -1    7.97    5.15
  -8   0   1   -3.65    4.60
  -8   0  -2   36.12    8.97
  -8   0  -3    1.66    2.58
  -8   0  -4   89.13   11.24
   8   0   4   84.10   12.34
  -8   0  -4   97.81   12.38
  -8   0   5   -0.29    0.50
  -8   0  -5    1.64    2.19
   8   0   5   -0.42    1.48
  -8   0  -5    0.04    1.09
  -8   0   6    0.29    0.33
  -8   0  -6    1.56    2.34
   8   0   6    3.01    3.41
  -8   0  -6    0.66    1.38
   8   0   7    5.87    4.69
  -8   0  -7    0.38    0.67
   8   0   8   60.49    9.36
  -8   0  -8   45.68   11.24
  -8   0   9   -3.37    7.21
   8   0   9   27.38    5.35
  -8   0  10   -4.73    7.35
  -8   0  11   -0.35    4.13
   8   0  12   85.71   10.13
  -8   0  12   79.19   17.80
   8   0  13   -2.75    3.32
  -8   0  13   -0.62    3.23
   8   0  14    2.48    1.89
  -8   0  14   -1.32    3.56
  -8   0  15    0.07    1.13
  -8   0  16   40.80   16.05
  -8   0  17    1.42    5.83
  -8   0  18   28.00   14.02
  -8   0  19    7.75   10.56
  -8   0  20   14.55   12.57
  -8   0  21   11.58   12.10
  -8   0  22   22.49   16.34
  -8   0  23   10.24   10.87
  -8   0  24   18.42   14.54
  -9   0   0    3.53    4.49
  -9   0  -1   13.16    7.00
  -9   0   1    2.76    0.90
  -9   0  -2   26.02    8.66
  -9   0   2   -4.27    5.35
  -9   0  -3   76.91   10.21
  -9   0  -3   71.24    9.86
  -9   0  -4   -8.78    8.98
  -9   0  -4    2.78    3.31
  -9   0   5    0.44    1.16
  -9   0  -5   -1.80    3.12
   9   0   5   -0.87    3.36
  -9   0  -5    0.94    2.65
  -9   0   6   -0.37    0.63
  -9   0  -6    3.89    3.74
   9   0   6   -1.90    3.55
  -9   0  -6    0.74    2.20
  -9   0   7   23.52    3.43
   9   0   7   23.48    6.17
  -9   0  -7   22.41    7.39
  -9   0  -8   -1.27    2.44
   9   0   8    3.11    3.53
  -9   0   9    3.63    3.23
   9   0   9   15.55    6.21
  -9   0  10   -2.93    5.93
   9   0  10   17.18    5.98
   9   0  11   33.17    7.01
  -9   0  11    6.76    3.71
   9   0  12   10.43    2.12
  -9   0  12   -2.38    5.65
  -9   0  13    1.22    2.88
  -9   0  14   -2.12    3.61
  -9   0  15   15.52    9.76
  -9   0  16    5.87    7.45
  -9   0  17   21.91   13.79
  -9   0  18    1.25    6.32
  -9   0  19    5.69    8.92
  -9   0  20    8.28   12.06
  -9   0  21   14.60   12.92
  -9   0  22    8.81   10.45
  -9   0  23    4.58    7.14
  -9   0  24    0.31    6.21
 -10   0   0  452.98   34.40
 -10   0   1   -0.87    2.52
 -10   0  -1    8.13    6.56
 -10   0  -2  115.28   16.72
 -10   0   2   95.42   16.30
 -10   0   3   -3.77    7.43
 -10   0  -3    0.73    1.78
 -10   0  -4   75.73   10.79
 -10   0  -4   89.99   12.15
 -10   0   5    0.06    0.31
 -10   0  -5   -3.32    4.22
 -10   0  -5    2.55    3.48
 -10   0   6   69.17    8.68
 -10   0  -6   69.16   11.56
  10   0   6   61.38   10.50
 -10   0  -6   69.05   12.27
 -10   0   7    0.08    0.24
 -10   0  -7    0.87    2.72
 -10   0  -7   -0.83    0.97
  10   0   7   -2.70    3.91
  10   0   8  152.04   16.74
 -10   0  -8  164.04   21.13
 -10   0   9   -4.70    5.48
  10   0   9   -1.08    1.84
  10   0  10  269.25   21.57
 -10   0  10  289.87   31.23
  10   0  11    6.17    4.82
 -10   0  11   -2.64    4.68
  10   0  12   18.28    6.51
 -10   0  12    9.37    5.40
  10   0  13   15.61    6.67
 -10   0  13   -1.69    3.36
 -10   0  14    1.50    3.42
 -10   0  15   -0.36    3.11
 -10   0  16   20.86   11.32
 -10   0  17    3.22    7.15
 -10   0  18   20.79   12.95
 -10   0  19    6.62   10.42
 -10   0  20   13.57   12.16
 -10   0  21    9.09   11.26
 -10   0  22   -1.42    2.30
 -10   0  23    2.63    5.45
 -10   0  24    7.41    9.89
 -11   0   0    4.74    5.29
 -11   0   1  596.85   43.00
 -11   0  -1  568.23   38.57
 -11   0  -2   13.07    7.40
 -11   0   2   -0.89    3.58
 -11   0  -3  263.90   24.42
 -11   0  -3  260.33   19.52
 -11   0   3  264.70   30.35
 -11   0  -4  -15.13   11.25
 -11   0   4   -4.99    8.30
 -11   0  -4    3.43    3.34
 -11   0   5  128.32   14.91
 -11   0  -5  111.87   15.93
 -11   0  -5  122.23   15.24
 -11   0   6    0.48    0.33
 -11   0  -6    1.30    3.30
 -11   0  -6    1.02    2.20
 -11   0   7  274.66   16.38
 -11   0  -7  278.74   22.12
 -11   0  -7  258.76   25.48
 -11   0   8    0.07    0.62
  11   0   8   -3.36    5.11
  11   0   9  239.01   22.12
 -11   0   9  250.85   27.73
 -11   0  10   -2.02    4.48
  11   0  10   -3.21    4.23
  11   0  11   21.60    5.90
 -11   0  11   25.35    9.49
 -11   0  12   -2.07    4.21
  11   0  12    0.90    1.61
 -11   0  13   30.46   11.16
 -11   0  14   -1.29    2.44
 -11   0  15   87.61   22.19
 -11   0  16    4.01    6.09
 -11   0  17   33.24   14.58
 -11   0  18    6.84    7.69
 -11   0  19    8.38   10.77
 -11   0  20    9.20    9.82
 -11   0  21    0.50    7.22
 -11   0  22    5.21   10.01
 -11   0  23    4.40    9.87
 -12   0   0  162.86   22.81
 -12   0  -1    4.94    6.28
 -12   0   1    0.26    2.68
 -12   0   2  135.28   21.82
 -12   0  -2  170.03   21.69
 -12   0  -3    9.02    5.34
 -12   0  -3    0.75    2.32
 -12   0   3   -2.80    6.43
 -12   0  -4  -13.59   12.24
 -12   0   4  -13.51    7.44
 -12   0  -4    7.05    4.26
 -12   0   5   -0.51    1.13
 -12   0  -5    0.93    2.63
 -12   0   6   50.64    9.05
 -12   0  -6   58.27   12.26
 -12   0  -6   53.30   10.94
 -12   0   7    0.19    1.68
 -12   0  -7    0.32    1.55
 -12   0   8  142.78   10.84
 -12   0   9   -0.48    5.13
 -12   0  10    3.24    0.39
  12   0  11   -3.38    4.94
 -12   0  11    0.40    2.86
 -12   0  12   81.23   18.06
 -12   0  13   -0.88    5.07
 -12   0  14    0.91    4.13
 -12   0  15    4.57    6.48
 -12   0  16   16.35    9.89
 -12   0  17    3.89    6.69
 -12   0  18   17.61   12.44
 -12   0  19    7.09    9.96
 -12   0  20    6.50    9.71
 -12   0  21    7.09   11.02
 -12   0  22   11.06   12.11
 -12   0  23    5.60    9.32
 -13   0   0    5.93    6.68
 -13   0   1  957.97   59.16
 -13   0  -1  942.17   53.77
 -13   0  -2   29.06   12.09
 -13   0   2   -1.02    1.39
 -13   0  -3  251.80   25.60
 -13   0   3  252.91   32.30
 -13   0  -3  255.46   19.92
 -13   0  -4    2.59    3.41
 -13   0   4   -4.31    7.59
 -13   0   5  266.74   24.25
 -13   0  -5  252.44   26.44
 -13   0  -5  243.28   22.31
 -13   0   5  259.55   34.74
 -13   0   6    0.35    1.13
 -13   0  -6    4.07    3.57
 -13   0   6   -3.50    6.77
 -13   0  -6   -0.36    1.47
 -13   0   7  404.35   24.68
 -13   0  -7  406.53   30.46
 -13   0  -7  367.06   31.20
 -13   0   8    0.20    0.40
 -13   0  -8   -0.74    1.50
 -13   0   9  400.89   15.43
 -13   0   9  387.39   34.77
 -13   0  10   -2.92    5.95
 -13   0  11  206.37   28.00
 -13   0  12   -0.77    4.35
 -13   0  13    3.06    3.63
 -13   0  14   -0.40    4.04
 -13   0  15   43.80   15.83
 -13   0  16    2.08    5.80
 -13   0  17   36.35   15.64
 -13   0  18    4.35    8.28
 -13   0  19    3.43    7.83
 -13   0  20    2.07    8.36
 -13   0  21   11.54   11.84
 -13   0  22    7.70   10.71
 -13   0  23    2.93    5.47
 -14   0   0   26.17   12.98
 -14   0  -1    7.60    8.40
 -14   0   1    5.19    6.29
 -14   0  -2   29.76    6.73
 -14   0   2   27.05   10.49
 -14   0   3    1.49    1.43
 -14   0  -3    2.22    3.25
 -14   0   4    6.88    4.28
 -14   0  -4    8.15    4.33
 -14   0   4    0.09    5.79
 -14   0   5    0.05    1.54
 -14   0  -5    1.78    2.83
 -14   0   5   -1.88    4.67
 -14   0   6    9.06    4.45
 -14   0  -6    4.57    3.09
 -14   0   6    1.20    6.48
 -14   0  -6   10.06    4.99
 -14   0   7    2.04    2.40
 -14   0  -7   12.72    8.11
 -14   0   7   -2.75    9.30
 -14   0  -7    2.02    2.00
 -14   0   8   14.63    4.88
 -14   0   8   18.37    5.04
 -14   0  -8   23.26    7.83
 -14   0   8   13.98    5.07
 -14   0   9   -3.99    5.46
 -14   0  10   -2.89    4.31
 -14   0  11   -1.50    3.99
 -14   0  12   12.44    6.85
 -14   0  13   -1.73    2.89
 -14   0  14   18.56   10.14
 -14   0  15    5.42    6.76
 -14   0  16    6.17    7.53
 -14   0  17    7.85    8.50
 -14   0  18    6.68    9.05
 -14   0  19    7.20    9.79
 -14   0  20    1.84    6.88
 -14   0  21    4.87    8.63
 -14   0  22    9.11   11.31
 -15   0   0    9.72   10.09
 -15   0   1   37.41   13.06
 -15   0  -1   50.99   15.14
 -15   0   2    7.49    7.61
 -15   0  -2    1.64    2.39
 -15   0   3   31.04   11.64
 -15   0  -3   30.55    7.38
 -15   0   4   -0.28    0.66
 -15   0  -4    0.98    1.49
 -15   0   5   15.88    6.44
 -15   0  -5    9.21    4.23
 -15   0  -5   17.29    6.27
 -15   0   5   13.31    6.23
 -15   0   6    1.52    2.37
 -15   0  -6    0.58    1.09
 -15   0  -6   -1.38    0.65
 -15   0  -7    8.96    6.52
 -15   0   7   -2.88    6.16
 -15   0   8   -2.31    5.00
 -15   0  -8    2.38    4.44
 -15   0   9   12.12    4.47
 -15   0   9    5.69    8.42
 -15   0  10  -20.75   12.44
 -15   0  10   -1.72    4.20
 -15   0  11    9.88    5.88
 -15   0  11   -6.67   13.41
 -15   0  12   -2.36    3.89
 -15   0  13    2.10    4.15
 -15   0  14    3.79    5.15
 -15   0  14  -24.44   14.78
 -15   0  15  -14.20   11.44
 -15   0  15    5.47    7.12
 -15   0  16  -18.99   13.41
 -15   0  16    2.08    6.16
 -15   0  17  -24.38   15.37
 -15   0  17    4.33    7.86
 -15   0  18    3.93    6.24
 -15   0  19    4.46    8.38
 -16   0   0   23.48   12.04
 -16   0  -1   34.94   13.27
 -16   0   1   11.28    9.81
 -16   0  -2   58.34   15.35
 -16   0   2   12.05    9.20
 -16   0   3    1.00    4.09
 -16   0  -4    8.57    7.26
 -16   0   4   21.46    9.68
 -16   0  -5   -8.75    7.29
 -16   0   5   -1.83    4.85
 -16   0  -6    9.75    5.68
 -16   0   6    0.76    5.53
 -16   0   7   -2.87    4.23
 -16   0  -7    8.03    6.25
 -16   0   7   -2.90    7.81
 -16   0   8   10.09    3.71
 -16   0  -8   20.67    7.89
 -16   0   8   10.48    5.40
 -16   0   9   -2.26    4.47
 -16   0   9  -20.83   12.36
 -16   0  10  -12.70   12.49
 -16   0  10   -0.73    3.27
 -16   0  11   -2.67    3.36
 -16   0  11  -20.95   13.15
 -16   0  12   -4.21   12.95
 -16   0  12    5.96    5.72
 -16   0  13    0.56    1.45
 -16   0  13  -17.75   15.73
 -16   0  14  -19.73   13.61
 -16   0  14    3.88    4.53
 -16   0  15   -6.48   12.84
 -16   0  16   -6.84   13.88
 -16   0  18  -27.22   16.77
 -17   0   0   30.69   14.97
 -17   0   1  249.22   33.79
 -17   0  -1  284.02   33.11
 -17   0  -2   15.98    3.96
 -17   0   2   10.71    9.47
 -17   0  -3   79.78   12.76
 -17   0   3  100.40   22.90
 -17   0  -4  -23.78   14.15
 -17   0   4    0.52    2.52
 -17   0  -5  361.98   37.06
 -17   0   5  318.02   42.98
 -17   0  -6    0.02    1.47
 -17   0   6   -5.31    7.92
 -17   0  -7  236.60   28.05
 -17   0   7  194.96   35.69
 -17   0  -8    7.96    6.14
 -17   0   8   -5.53    9.31
 -17   0   9   92.94   24.86
 -17   0  10  -23.21   13.75
 -17   0  11  115.17   30.38
 -17   0  12   -9.53    9.27
 -17   0  13   63.78   25.45
 -17   0  14  -23.69   15.25
 -17   0  15   11.31    8.28
 -17   0  16  -29.16   17.40
 -17   0  17  -19.70   14.41
 -18   0   0   64.33   18.28
 -18   0  -1   59.35   17.62
 -18   0   1   18.73   12.67
 -18   0   2   24.68   13.09
 -18   0  -3  -19.87   16.83
 -18   0   3   12.14   11.49
 -18   0  -4    7.12    2.89
 -18   0   4   30.02   13.58
 -18   0  -5   -6.71    5.67
 -18   0   5    3.42    7.59
 -18   0  -6   18.61    8.81
 -18   0   6   12.55    7.28
 -18   0  -7   10.85    7.62
 -18   0   7   -1.58    5.85
 -18   0  -8   18.35    9.01
 -18   0   8    1.65    4.64
 -18   0   9   -6.66    9.50
 -18   0  10   -2.38    8.11
 -18   0  11  -14.77   11.51
 -18   0  12    0.96    4.91
 -18   0  13  -16.46   16.09
 -18   0  14   -9.70   14.14
 -18   0  15   -8.07   14.89
 -18   0  16  -13.68   16.49
 -19   0   0   38.68   14.64
 -19   0   1  158.80   28.09
 -19   0  -1  158.51   25.13
 -19   0   2   14.59   11.33
 -19   0  -3  197.15   28.55
 -19   0   3  202.80   34.54
 -19   0  -4  -26.08   11.34
 -19   0   4    9.24   11.99
 -19   0   5  107.91   26.88
 -19   0  -5  112.32   22.27
 -19   0  -6    6.83    7.09
 -19   0   6    6.62    9.52
 -19   0  -7   85.80   18.91
 -19   0   7   53.24   19.21
 -19   0   8   -1.26    1.98
 -19   0   9   32.29   16.20
 -19   0  10   -2.28    7.93
 -19   0  11   19.13   12.65
 -19   0  12   -8.80   11.86
 -19   0  13   18.62   12.86
 -19   0  14  -20.08   14.59
 -19   0  15  -18.65   14.28
 -20   0   0   50.48   17.80
 -20   0   1   33.08   15.13
 -20   0   2   27.83   15.91
 -20   0  -3  -21.52   14.60
 -20   0   3   12.22   12.76
 -20   0  -4  -18.84   11.02
 -20   0   4    9.01    9.84
 -20   0  -5   -1.45    4.55
 -20   0   5    7.78   11.06
 -20   0  -6   12.16    8.94
 -20   0   6   10.35   10.11
 -20   0  -7   15.92   10.10
 -20   0   7    6.98    8.46
 -20   0   8    3.22    8.26
 -20   0   9    3.55    6.24
 -20   0  10   -4.46    8.59
 -20   0  11   -3.32    7.66
 -20   0  12   -8.27    9.11
 -20   0  13  -13.41   13.36
 -21   0   0   21.16    4.43
 -21   0   1   49.16   17.60
 -21   0   2   39.10   16.09
 -21   0   3   25.90   14.29
 -21   0  -3  -14.36   11.92
 -21   0  -4   -8.49    8.88
 -21   0   4   19.05   14.59
 -21   0  -5   16.17    8.93
 -21   0   5   23.84   14.49
 -21   0  -6   16.66    9.83
 -21   0   6    7.79    9.72
 -21   0   7   22.60   14.24
 -21   0   8    2.24    7.50
 -21   0   9    6.19    8.72
 -21   0  10    1.94    4.33
 -21   0  11   -0.99    5.08
 -21   0  12   -8.28    9.23
 -22   0   0  -19.02   15.81
 -22   0   1   56.01   20.32
 -22   0  -2  -19.15   11.05
 -22   0   2   60.86   20.03
 -22   0   3   40.32   17.97
 -22   0  -3  -17.81   11.79
 -22   0   4   35.22   16.83
 -22   0  -4   15.07   10.11
 -22   0   5   24.92   16.06
 -22   0  -5    4.20    5.82
 -22   0   6   32.13   17.38
 -22   0   7    8.19   12.13
 -22   0   8   26.52   15.87
 -22   0   9    8.41   11.86
 -22   0  10   13.51   13.56
 -23   0   1    0.45    8.52
 -23   0  -1    1.74    4.02
 -23   0   2   63.92   20.99
 -23   0  -2  -29.49   15.88
 -23   0   3   96.84   25.95
 -23   0  -3   63.84   21.28
 -23   0   4   38.42   17.29
 -23   0  -4   -8.69    8.28
 -23   0   5   71.52   24.00
 -23   0   6   16.15   13.34
 -23   0   7   43.96   20.82
 -23   0   8   17.07   14.31
 -24   0   0   -4.14   12.08
 -24   0  -1  -27.64   16.60
 -24   0  -2   10.80    5.79
 -24   0   2   15.19   10.14
 -24   0  -3   -5.53    6.92
 -24   0   3   58.37   21.08
 -24   0   4   59.49   21.74
 -24   0   5   37.11   17.89
 -24   0   6   49.58   21.47
 -25   0   0  -35.92   19.32
 -25   0  -1  -24.36   16.36
 -25   0   1  -33.55   21.12
 -25   0   3   -9.17    8.43
 -25   0   4   57.50   21.52
 -26   0   0  -33.17   16.57
 -26   0   2  -34.88   23.37
   0   1  -3   46.10    6.70
   0  -1   4    0.94    1.99
   0   1  -4    2.60    2.80
   0  -1   5   24.64    6.59
   0   1  -5   22.24    5.45
   0   1  -6    0.29    1.89
   0  -1   6    0.71    2.11
   0   1   7  145.19   17.32
   0  -1   7  161.84   18.68
   0   1  -7  157.63   17.97
   0   1  -8   -2.19    4.38
   0   1   8   -5.04    6.70
   0  -1   8    0.40    3.27
   0   1   9   33.25    7.72
   0  -1   9   38.65   10.80
   0   1  -9   38.22   10.04
   0  -1  10    3.58    4.82
   0   1  10   -4.95    6.06
   0  -1  11    8.73    6.42
   0   1  11    4.10    1.62
   0   1  12   -2.79    5.57
   0  -1  12    6.43    6.96
   0  -1  13   12.32    8.13
   0   1  13   15.30    7.60
   0  -1  14    6.94    8.77
   0   1  14    0.69    3.28
   0   1  15   41.57   15.55
   0  -1  15   43.58   15.27
   0  -1  16    0.66    3.77
   0   1  16   12.92    9.60
   0  -1  17    5.88    7.20
   0   1  17    2.02    5.72
   0   1  18    6.19    8.37
   0  -1  18    2.02    6.39
   0  -1  19    9.25    8.98
   0   1  19    5.38    8.28
   0   1  20    6.48    9.54
   0  -1  20    8.46    9.65
   0  -1  21   11.82    9.58
   0   1  21    7.43    9.17
   0  -1  22    4.08    6.93
   0   1  22    6.50    9.37
   0   1  23    4.59    6.88
   0   1  24    7.87   12.29
   1   1  -3  703.15   16.42
   1   1  -3  708.31   25.22
  -1   1  -3  702.09   26.45
  -1  -1   3  689.22   25.11
   1   1  -4    0.38    0.63
   1  -1   4    0.35    1.76
  -1   1  -4    3.58    3.09
   1   1  -4    0.26    0.81
  -1  -1   4    2.81    3.11
   1  -1   5   18.25    6.08
  -1   1  -5   18.69    5.65
   1   1  -5   14.16    3.74
  -1  -1   5   20.00    5.99
   1   1  -6   -2.66    3.92
  -1   1  -6    0.33    0.37
  -1  -1   6    1.85    2.73
   1  -1   6    0.60    2.79
  -1   1  -7  399.52   29.41
   1   1  -7  406.95   29.04
   1   1   7  415.82   29.83
   1  -1   7  398.75   29.50
  -1  -1   7  404.72   29.22
   1   1  -8    1.45    3.66
  -1   1   8   -3.31    7.55
   1   1   8   -2.45    4.36
  -1  -1   8    4.13    3.27
  -1   1  -8    4.17    2.73
   1  -1   8    5.33    4.19
   1  -1   9 1284.89   60.13
   1   1   9 1336.76   61.89
  -1   1   9 1330.03   61.90
  -1  -1   9 1291.40   60.05
  -1   1  -9 1325.33   60.28
  -1   1  10   -6.43    7.84
   1   1  10   -0.76    3.70
   1  -1  10    2.85    3.07
  -1  -1  10    4.55    4.63
   1   1  11  224.28   28.37
  -1  -1  11  223.35   28.10
   1  -1  11  226.59   28.10
  -1   1  11  216.27   27.51
  -1  -1  12    1.98    5.85
   1  -1  12    2.70    5.10
   1   1  12   -1.44    3.28
  -1   1  12   -0.51    4.23
   1   1  13    1.59    2.90
  -1  -1  13    5.48    6.96
   1  -1  13    8.98    7.51
  -1   1  13   -2.14    4.90
   1  -1  14    2.24    5.57
   1   1  14    0.54    4.66
  -1  -1  14    3.66    7.64
  -1   1  14    3.98    3.60
  -1  -1  15   27.59   13.16
   1  -1  15   23.12   11.08
   1   1  15   28.00   12.21
  -1   1  15   21.18   10.65
   1   1  16    4.19    8.74
   1  -1  16    2.62    4.36
  -1   1  16    2.82    6.44
  -1  -1  16    9.10    8.84
   1   1  17   34.43   15.83
   1  -1  17   33.02   14.40
  -1   1  17   46.85   16.95
  -1  -1  17   36.70   16.54
   1  -1  18    3.01    8.57
  -1  -1  18    5.51    8.03
   1   1  18    7.88    9.77
  -1   1  18    2.16    7.35
  -1  -1  19   19.82   12.02
   1   1  19   28.47   14.60
   1  -1  19   21.80   13.22
  -1   1  19   21.31   12.74
   1  -1  20   -0.12    4.89
   1   1  20   14.00   13.60
  -1  -1  20    0.33    7.43
  -1   1  20    4.74    8.43
   1  -1  21   31.09   15.51
  -1   1  21   26.02   14.98
   1   1  21   23.36   15.19
  -1  -1  21   25.11   14.38
  -1  -1  22    5.49    6.59
  -1   1  22    5.48   11.16
   1   1  22    2.44    7.92
   1   1  23    1.60    5.52
  -1   1  23    7.90   11.40
  -1  -1  23    4.04    7.10
  -1   1  24   12.00   13.91
   1   1  24    7.60    9.60
   2  -1  -3   22.89    2.94
  -2   1   3   23.63    3.18
  -2  -1   3   24.02    4.71
   2   1  -3   21.43    3.86
   2   1  -4    4.19    2.26
   2   1   4    3.62    3.87
   2  -1  -4    9.34    2.26
  -2   1  -4    8.81    4.22
  -2  -1   4   13.49    4.42
   2   1  -5    3.17    1.18
   2   1   5   -2.49    4.69
   2   1  -5   -0.77    3.60
  -2  -1   5    0.94    1.05
  -2   1  -5    4.33    4.12
   2   1  -6   -4.30    5.00
   2   1   6   -4.76    4.19
  -2   1  -6    2.08    2.61
  -2  -1   6    1.03    2.33
   2  -1   6    1.50    2.49
  -2  -1   7    2.66    3.60
   2  -1   7    3.17    3.37
   2   1   7   -1.90    3.89
  -2   1  -7    2.28    2.58
  -2  -1   8   23.94    7.65
   2   1   8   19.80    6.10
  -2   1  -8   23.79    7.98
   2  -1   8   25.19    7.84
   2   1   9  259.26   26.97
  -2  -1   9  266.80   27.39
  -2   1  -9  267.73   27.46
   2  -1   9  255.10   27.23
  -2   1   9  253.86   26.80
  -2   1  10    2.39    5.54
  -2  -1  10   13.22    6.54
   2   1  10   11.61    5.60
   2  -1  10   13.45    6.58
  -2   1  11    0.61    5.04
  -2  -1  11   11.03    7.53
   2   1  11    6.75    5.64
   2  -1  11    5.68    5.11
   2  -1  12    7.27    6.25
  -2  -1  12    5.03    5.49
   2   1  12    6.53    4.97
  -2   1  12   -2.43    4.66
  -2   1  13    5.75    4.45
  -2  -1  13   10.33    7.41
   2   1  13   11.31    7.23
   2  -1  13    9.82    7.51
  -2  -1  14    4.74    7.21
   2  -1  14    2.65    5.39
  -2   1  14    1.65    2.55
   2   1  14    3.86    7.08
   2  -1  15    6.98    6.90
  -2  -1  15   14.52    9.87
   2   1  15    7.91    9.24
  -2   1  15    3.93    5.07
   2  -1  16    8.93    8.60
  -2   1  16    2.93    5.55
  -2  -1  16   11.18    9.65
   2   1  16    9.91   10.76
  -2   1  17   14.88   10.32
  -2  -1  17   15.96   11.84
   2  -1  17   11.31    9.64
   2   1  17    9.96    9.06
   2   1  18    3.75    8.04
   2  -1  18   -1.43    2.65
  -2   1  18    2.12    6.29
  -2  -1  18    4.56    7.79
   2  -1  19    2.87    5.44
   2   1  19    7.20    9.33
  -2  -1  19    5.44    7.19
  -2   1  19   10.07    9.80
  -2  -1  20   -1.92    3.76
  -2   1  20    6.94   10.85
   2  -1  20    3.78    7.20
   2   1  20    5.58    8.43
  -2  -1  21    5.02    7.49
   2   1  21    2.83    5.18
  -2   1  21    9.16   12.06
   2   1  22    6.62    9.14
  -2   1  22    8.74   11.46
  -2  -1  22   -1.94    1.47
   2   1  23    5.02    6.52
  -2  -1  23   10.03   11.65
  -2   1  23   11.61   13.54
  -2   1  24    6.52   11.97
   2   1  24    5.95    9.45
  -3   1   0    1.75    1.43
   3   1   0    8.64    4.41
   3  -1  -1 1021.30   26.70
  -3   1   1 1013.59   25.63
   3   1  -1 1073.71   34.25
  -3  -1   1  992.33   31.76
   3   1   1 1046.81   30.03
  -3   1   2    3.39    1.33
   3  -1  -2    4.36    1.60
   3   1   2    1.39    1.06
  -3  -1  -2    2.98    2.06
  -3  -1   2    5.44    1.94
  -3  -1   2   -0.08    2.60
   3   1   2    1.55    1.01
   3  -1  -3  363.04   13.01
  -3   1   3  372.12   12.68
   3   1   3  354.73   16.77
  -3  -1   3  375.12   17.88
   3   1   3  377.11   18.57
   3  -1  -4    1.44    0.90
   3   1   4   -0.59    2.36
  -3  -1   4    0.10    0.95
   3  -1  -5  383.71   13.60
   3   1   5  379.31   24.50
  -3  -1   5  389.82   24.20
  -3   1  -5  389.96   25.11
   3  -1  -6    2.63    1.47
  -3  -1   6    1.64    1.68
  -3   1  -6    1.90    3.01
   3   1   6   -0.02    2.20
   3   1  -7   22.66    3.33
   3   1   7   24.33    7.25
  -3  -1   7   22.72    6.98
   3  -1   7   22.11    6.84
  -3   1  -7   24.52    7.40
   3   1  -8    7.50    2.28
  -3   1  -8    7.77    3.96
   3   1   8    7.17    3.99
  -3  -1   8    9.54    5.26
   3  -1   8    7.71    4.07
  -3   1  -9  104.08   17.51
  -3  -1   9  104.91   16.85
   3   1   9  109.28   17.35
   3  -1   9  100.21   17.02
  -3   1  10   -7.30    8.76
   3   1  10   -0.24    0.45
   3  -1  10    0.92    1.39
  -3  -1  10    1.35    3.99
  -3   1  11   12.45    4.57
   3  -1  11   11.78    7.07
  -3  -1  11   17.27    8.36
   3   1  11   20.01    8.91
   3  -1  12    2.53    4.16
  -3  -1  12    2.55    5.43
   3   1  12    2.41    6.19
  -3   1  12   -2.85    6.24
   3  -1  13  150.91   25.61
  -3  -1  13  147.05   25.37
   3   1  13  143.20   25.05
  -3   1  13  143.88   25.37
  -3  -1  14    2.43    5.42
  -3   1  14   -1.81    4.65
   3   1  14    2.37    6.69
   3  -1  14   -1.12    1.37
   3  -1  15   10.27    8.04
  -3   1  15    7.14    6.69
  -3  -1  15   13.59    9.43
   3   1  15   14.59   10.06
   3  -1  16    4.60    7.24
   3   1  16    4.07    5.99
  -3  -1  16    5.87    7.52
  -3   1  16    0.77    1.59
   3  -1  17  184.46   33.02
  -3  -1  17  178.57   33.38
  -3   1  17  200.67   34.70
   3   1  17  196.71   34.35
   3  -1  18    5.97    8.92
   3   1  18   10.19   10.63
  -3   1  18    2.44    8.12
  -3  -1  18    3.61    7.70
  -3   1  19    4.68    7.65
  -3  -1  19    2.32    3.76
   3   1  19    8.15    9.38
  -3   1  20    5.95    9.55
   3   1  20    1.94    6.75
  -3  -1  20   -3.14    1.90
   3   1  21   29.17   15.77
  -3   1  21   26.80   15.39
  -3  -1  21   21.51   11.88
  -3   1  22    6.68    9.88
   3   1  22    5.04    7.29
  -3  -1  22    3.26    7.32
  -3  -1  23   -0.98    3.47
  -3   1  23    6.12   10.51
   3   1  23    7.04   10.31
  -3  -1  24    8.36   10.07
  -3   1  24   12.99   12.95
   3   1  24    3.86    7.05
  -4  -1   0   23.66    8.06
   4   1   0    7.18    4.14
  -4   1   1    0.56    0.87
  -4  -1   1    7.17    4.98
  -4   1   2   95.86    8.34
  -4   1  -2   95.59    7.85
   4   1   2   74.64    5.48
  -4  -1  -2   97.39    9.66
  -4  -1   2   94.36    7.11
  -4  -1   2   88.97   10.90
   4   1   2  101.23    8.18
  -4   1   3  367.54   14.21
   4  -1  -3  362.95   15.13
  -4  -1  -3  366.34   18.31
   4   1   3  362.04   19.41
  -4   1  -3  392.61   13.28
  -4  -1   3  365.79   17.64
   4   1   3  372.17   18.65
  -4   1   4  187.26    9.48
   4  -1  -4  186.28   10.08
  -4   1  -4  199.05    8.26
   4  -1   4  184.04    9.02
   4   1   4  188.87   13.92
  -4  -1   4  185.49   14.73
  -4   1  -4  199.82   17.26
   4   1   4  188.39   15.55
   4  -1  -5   13.54    2.56
   4   1   5   15.85    3.86
  -4   1  -5   17.45    5.93
  -4  -1   5   11.21    3.37
   4   1   5   16.37    5.14
   4  -1  -6   54.09    5.12
   4  -1   6   57.37    5.06
   4   1   6   52.46    9.94
  -4   1  -6   53.91   10.64
  -4  -1   6   46.83    9.31
   4  -1  -7    0.14    0.50
  -4   1  -7    4.36    4.06
  -4  -1   7    0.83    1.63
   4   1   7    4.18    4.53
   4  -1  -8    2.07    1.21
   4   1   8    2.39    3.01
  -4  -1   8    0.58    1.24
  -4   1  -8    3.30    3.31
   4   1  -9   42.99    4.56
   4  -1  -9   42.86    5.92
   4   1   9   40.35   11.11
  -4  -1   9   42.53   10.97
   4   1 -10    0.80    0.87
   4  -1  10    4.39    4.64
   4   1  10    0.96    3.22
  -4  -1  10    1.81    2.85
   4   1 -11   19.10    3.96
  -4   1  11    9.89    3.36
   4  -1  11   20.90    8.75
   4   1  11   22.87    9.38
  -4  -1  11   18.81    8.02
   4   1 -12   67.64    8.20
  -4   1  12   66.14   15.70
   4  -1  12   73.16   17.15
   4   1  12   72.07   17.32
  -4  -1  12   67.03   16.73
   4   1 -13   38.28    6.69
   4   1  13   42.50   14.22
  -4  -1  13   38.82   13.63
   4  -1  13   38.08   13.36
  -4   1  13   45.95   13.76
   4   1 -14   20.52    5.14
  -4   1  14   25.44    9.95
  -4  -1  14   24.88   11.76
   4  -1  14   30.58   12.10
   4   1  14   23.06   11.76
   4   1 -15    0.64    1.10
   4   1  15    5.59    7.22
  -4  -1  15    5.26    7.48
   4  -1  15    3.40    5.09
  -4   1  15   -2.21    4.82
   4   1 -16    4.51    2.73
   4   1  16   12.19   10.59
  -4   1  16    5.42    4.82
  -4  -1  16   10.76   10.33
  -4   1  17    4.11    6.17
  -4  -1  17   11.55   11.27
   4   1  17    4.57    7.38
  -4   1  18    3.44    6.51
  -4  -1  18    9.41   10.30
   4   1  18    3.56    7.04
   4   1  19    3.90    7.10
  -4   1  19    1.46    5.69
  -4  -1  19    5.10    8.07
  -4   1  20    7.67   10.48
   4   1  20    6.75    8.80
  -4  -1  20    2.09    5.29
   4   1  21    5.15    6.27
  -4  -1  21    3.76    7.47
  -4   1  21    4.08    7.17
  -4   1  22   15.74   14.40
  -4  -1  22   11.46   11.64
   4   1  22   12.22   10.81
   4   1  23    3.40    6.18
  -4   1  23   15.51   14.92
  -4  -1  23    4.77    5.97
  -4   1  24    7.45   11.45
  -4  -1  24    8.25   12.53
  -5  -1   0   23.73    8.25
   5   1   0    0.80    0.77
  -5  -1  -1  387.48   21.40
  -5  -1   1  414.90   25.21
   5   1   1  433.70   24.66
  -5  -1   2    4.42    1.85
  -5   1   2    7.95    2.85
  -5  -1  -2   -2.20    5.80
  -5   1  -2    6.45    1.21
  -5  -1  -2    5.04    0.30
  -5  -1   2    8.15    1.57
  -5   1   3 1218.63   30.75
  -5  -1  -3 1225.90   37.18
   5   1   3 1250.77   38.88
  -5   1  -3 1162.53   29.00
  -5  -1  -3 1213.12   34.36
  -5  -1   3 1207.87   32.33
  -5  -1   3 1206.30   47.26
  -5   1   4   78.69    6.80
  -5   1  -4   80.01    6.69
   5   1   4   70.51    8.49
  -5  -1  -4   74.23    9.00
  -5  -1   4   74.67    9.16
  -5  -1  -4   76.40    9.55
   5   1   4   84.31   10.44
  -5   1   5  353.43   13.30
  -5  -1  -5  349.36   23.49
   5  -1  -5  350.28   14.54
   5   1   5  345.12   20.36
   5  -1   5  342.45   14.50
  -5   1  -5  355.02   25.09
   5   1   5  362.02   23.48
  -5  -1   5  354.52   22.84
   5  -1  -6   45.96    5.01
   5   1   6   45.41    7.67
   5  -1   6   63.25    5.53
   5   1   6   52.11   10.19
  -5   1  -6   49.33   10.40
  -5  -1   6   42.45    8.61
   5  -1  -7   71.61    5.94
   5  -1   7   64.04    5.54
   5   1   7   65.82    8.84
  -5  -1   7   67.72   11.70
   5   1   7   73.58   13.38
  -5   1  -7   71.79   13.04
   5  -1  -8    9.62    2.22
   5  -1   8   11.14    2.87
  -5   1  -8   10.31    5.36
  -5  -1   8   10.52    5.00
   5   1   8   10.57    6.06
   5  -1  -9    0.74    0.96
   5  -1   9    1.31    1.49
  -5  -1   9    0.02    1.65
   5   1   9    3.13    4.16
   5  -1 -10    1.99    1.07
  -5  -1  10    3.21    3.30
   5   1  10    8.38    6.09
   5  -1 -11  195.81   12.42
  -5   1  11  187.15   26.41
   5   1  11  198.92   26.70
  -5  -1  11  187.07   25.74
   5  -1 -12   18.27    4.17
   5   1 -12   16.32    2.88
  -5   1  12    8.97    1.81
  -5  -1  12   17.02    8.49
   5   1  12   30.41   11.53
   5   1 -13  216.43   12.06
   5  -1 -13  208.35   14.81
  -5  -1  13  202.40   29.18
   5   1  13  207.81   29.48
  -5   1  13  203.71   30.36
   5   1 -14    2.19    1.38
   5  -1 -14    2.54    2.02
  -5  -1  14    5.76    5.70
   5   1  14    8.00    9.44
  -5   1  14   -2.22    6.40
   5   1 -15   51.10    7.07
   5  -1 -15   50.63    8.07
  -5  -1  15   52.50   16.65
   5   1  15   51.72   16.61
  -5   1  15   50.49   16.10
   5   1 -16   -0.04    0.58
   5  -1 -16    0.17    1.52
  -5   1  16    0.42    2.50
  -5  -1  16    9.52    9.45
   5   1  16    7.78    7.40
   5  -1 -17    0.52    0.82
  -5   1  17    1.53    6.95
  -5  -1  17    4.05    8.13
   5   1  17   -0.49    3.81
  -5  -1  18    7.79    8.70
  -5   1  18    3.50    6.70
   5   1  18    3.15    4.85
   5   1  19    3.76    5.71
  -5  -1  19    8.49   10.05
  -5   1  19    7.02    8.58
   5   1  20    2.39    6.00
  -5  -1  20    3.59    8.49
  -5   1  20    7.31    9.11
   5   1  21   15.04   11.87
  -5   1  21   32.17   17.90
  -5  -1  21   22.56   13.70
  -5  -1  22    6.52   10.54
  -5   1  22    9.29   13.07
   5   1  22    2.65    7.74
  -5  -1  23    9.22    9.99
  -5   1  23    5.82    8.69
  -5  -1  24    2.05    6.92
  -5   1  24   12.55   12.53
  -6  -1   0   25.78    8.77
   6   1   0   10.43    1.97
   6   1   1   91.66   12.32
  -6  -1  -1  126.40   14.83
  -6  -1   1  105.74   13.96
  -6  -1  -1   98.40    6.44
  -6   1   2  235.56   16.89
  -6   1  -2  230.23   16.46
   6   1   2  249.22   19.58
  -6  -1  -2  229.03   17.92
  -6  -1   2  222.51   20.82
  -6  -1  -2  234.30   13.01
  -6  -1   3    9.86    1.35
  -6   1   3   12.17    3.62
  -6  -1  -3    9.94    2.71
   6   1   3   30.00    7.95
  -6   1  -3   23.52    5.94
  -6  -1  -3   11.22    2.97
  -6  -1   3    7.03    2.49
  -6   1   4  293.39   15.08
   6   1   4  280.06   18.70
  -6   1  -4  287.48   16.39
  -6  -1  -4  293.29   19.59
   6   1   4  292.68   19.24
  -6  -1   4  288.71   18.27
  -6  -1  -4  288.52   19.21
  -6   1   5   34.47    4.63
  -6   1  -5   39.30    5.51
   6   1   5   21.91    1.26
   6   1   5   37.37    7.75
  -6   1  -5   35.90    8.00
  -6  -1   5   28.40    6.10
  -6  -1  -5   31.00    6.41
  -6   1   6  120.16    7.96
   6  -1   6  111.39    9.28
   6   1   6  109.30   12.15
   6   1   6  129.60   15.53
  -6   1  -6  125.42   16.44
  -6  -1  -6  115.03   14.49
  -6  -1   6  115.41   14.26
   6  -1  -7  165.70    9.65
   6  -1   7  159.76   10.60
   6   1   7  168.27   15.39
   6   1   7  173.05   19.35
  -6  -1   7  171.63   19.10
  -6   1  -7  168.03   20.23
   6  -1  -8    6.51    1.77
   6  -1   8   10.19    1.02
   6   1   8   14.62    5.71
   6   1   8    9.76    5.51
  -6  -1   8    4.63    2.67
  -6   1  -8    8.14    4.90
   6  -1  -9    3.01    1.17
   6   1   9    3.62    2.97
   6  -1   9   -2.95    3.45
  -6  -1   9    3.08    2.17
   6   1   9    5.07    4.32
   6  -1 -10   27.17    3.61
   6  -1  10   28.46    4.75
   6   1  10   28.05    6.63
   6   1  10   32.33   10.28
  -6  -1  10   28.72    9.74
  -6   1  11   12.00    2.72
   6  -1 -11   16.40    2.89
   6  -1  11   23.75    5.30
  -6  -1  11   20.86    9.02
   6   1  11   17.36    8.97
   6  -1 -12  126.11    8.89
   6  -1  12  134.79   11.38
  -6   1  12  115.92   21.75
  -6  -1  12  126.87   22.19
   6   1  12  129.69   22.63
   6  -1 -13   41.65    5.31
  -6   1  13   32.92   11.07
   6  -1  13   43.37    6.90
  -6  -1  13   49.20   14.79
   6   1  13   48.05   14.99
   6  -1 -14   88.26    8.27
  -6  -1  14   93.80   20.71
  -6   1  14   96.04   21.44
   6   1  14   91.46   21.06
   6   1  15    7.29    8.12
  -6  -1  15    5.38    7.66
  -6   1  15    1.32    1.67
   6  -1 -16    5.13    2.06
  -6  -1  16    8.19    9.23
   6   1  16   11.21    8.15
  -6   1  16    8.00    5.87
  -6  -1  17    4.96    8.00
  -6   1  17    2.26    5.25
   6   1  17   -0.82    3.89
  -6  -1  18   11.68   10.95
   6   1  18    5.02    6.97
  -6   1  18    2.76    6.86
   6   1  19    5.96    6.05
  -6  -1  19   17.58   12.77
  -6   1  19   11.19    8.30
  -6  -1  20    7.43    8.95
   6   1  20    5.80    8.22
  -6   1  20   15.38   14.46
   6   1  21    4.41    7.61
  -6  -1  21    0.11    0.37
  -6   1  21   -1.26    4.63
  -6  -1  22    8.42   10.25
  -6   1  22   23.16   14.90
  -6  -1  23    2.55    6.04
  -6   1  23   11.95   12.08
  -6   1  24   12.42   12.31
  -6  -1  24    2.50    7.90
  -7  -1   0   13.91    7.31
  -7  -1   1  173.22   19.16
  -7  -1  -1  207.24   18.16
  -7   1  -1  174.73   16.24
   7   1   1  182.37   18.67
  -7  -1  -1  172.19    9.01
  -7   1   2   10.29    3.76
  -7   1  -2    9.44    3.25
  -7  -1  -2    9.90    2.80
   7   1   2   12.38    4.74
  -7  -1   2   10.84    4.95
  -7   1   3  213.90   16.17
  -7  -1  -3  207.01   18.73
  -7   1  -3  218.14   16.48
   7   1   3  203.30   18.93
  -7  -1  -3  206.56   14.72
  -7  -1   3  198.83   21.42
  -7   1   4   55.23    7.45
  -7   1  -4   36.57    2.51
  -7  -1  -4   61.42   10.37
   7   1   4   66.96   10.51
  -7  -1   4   50.55    7.41
  -7  -1  -4   53.39    8.33
  -7  -1   4   46.45   10.27
  -7   1   5  133.76   10.30
  -7   1  -5  131.68   11.66
   7   1   5  163.91   15.03
  -7  -1  -5  134.47   13.60
  -7  -1  -5  129.00   14.31
  -7  -1   5  133.22   13.84
  -7   1  -5  129.86   15.81
  -7  -1  -6    0.67    4.11
  -7   1   6    3.75    1.54
  -7   1  -6    3.29    1.17
   7   1   6    5.72    3.75
  -7   1  -6    7.59    5.20
  -7  -1   6   -0.06    3.43
  -7  -1  -7   -3.30    4.88
  -7   1   7    2.00    1.23
   7   1   7   -3.57    5.45
   7   1   7    3.62    3.44
  -7   1  -7    4.28    4.54
   7  -1   7    0.82    0.69
  -7  -1   7    0.37    3.35
   7   1   8   -0.07    2.68
  -7  -1   8   -1.52    2.98
   7   1   8    1.30    2.97
   7  -1   8    4.39    2.74
  -7   1  -8    2.60    2.76
   7   1   9   16.66    5.54
   7  -1   9   28.92    5.40
  -7  -1   9   12.22    5.86
   7   1   9   13.75    6.47
   7  -1  10   16.98    1.13
   7   1  10   10.47    5.08
  -7  -1  10    5.03    3.83
   7   1  10    5.00    4.81
  -7   1  11  201.74   27.24
   7  -1  11  197.43   12.45
   7   1  11  218.59   18.44
  -7  -1  11  192.68   25.82
   7   1  11  184.98   25.82
  -7   1  12    0.15    5.92
   7  -1  12    3.53    2.75
   7   1  12   15.74    6.09
  -7  -1  12   13.67    8.55
   7   1  12   12.62    8.69
   7  -1  13  108.11    9.94
   7   1  13  101.37   13.30
  -7  -1  13   98.08   21.34
  -7   1  13   90.73   19.53
   7   1  13   98.01   20.42
   7  -1  14   10.50    4.23
   7   1  14    5.14    3.69
   7   1  14   10.19    7.95
  -7  -1  14    5.78    6.07
  -7   1  14    1.65    4.71
   7   1  15   22.43    7.01
  -7  -1  15   24.88   11.66
  -7   1  15   15.29    8.28
   7   1  15   21.58   10.14
   7   1  16    2.95    4.58
  -7  -1  16    9.00    8.38
  -7   1  16   -2.80    4.09
   7   1  17   -1.52    4.98
  -7   1  17   -0.32    2.94
  -7  -1  17    6.02    8.76
  -7   1  18    2.71    5.32
   7   1  18    1.03    1.01
  -7  -1  18    1.78    6.16
   7   1  19   22.42   13.16
  -7   1  19   21.43   12.50
  -7  -1  19   29.58   16.13
  -7   1  20    8.38    9.89
  -7  -1  20    9.25    9.73
  -7   1  21   17.41   13.06
  -7  -1  21   21.20   13.95
  -7   1  22    8.42   12.19
  -7  -1  22    2.08    6.11
  -7  -1  23    5.93    9.76
  -7   1  23   10.49   11.87
  -7  -1  24    6.76   10.21
  -7   1  24    3.26    8.14
  -8  -1   0   17.85    8.44
  -8  -1   1    7.72    5.53
  -8   1  -1   -1.88    3.39
  -8  -1  -1    1.20    1.43
   8   1   1   -3.95    5.33
  -8   1  -2    0.83    2.19
  -8  -1   2    3.63    2.93
   8   1   2    0.19    2.03
  -8  -1  -2    2.23    1.74
  -8   1   3    0.59    0.81
  -8  -1  -3    0.03    1.32
  -8  -1   3   -0.17    2.89
   8   1   3    1.62    2.57
  -8   1   4   76.64    9.84
  -8  -1  -4   73.06   11.67
   8   1   4   81.90   12.82
  -8   1  -4   62.64    8.11
  -8  -1  -4   71.84    9.67
  -8  -1   4   67.96   12.84
  -8   1   5  114.82   10.85
   8   1   5  123.82   15.06
  -8  -1  -5  126.03   14.44
  -8   1  -5  112.68   11.78
  -8  -1  -5  113.09   13.44
  -8  -1   5  117.63   12.94
  -8   1  -5  117.73   15.38
  -8  -1  -6   -0.06    3.39
  -8  -1   6    1.76    0.91
  -8   1   6    2.38    1.45
  -8   1  -6    7.00    3.93
  -8   1  -6    4.39    4.06
  -8  -1   6   -1.27    4.26
  -8  -1  -7    9.29    1.45
  -8   1   7   13.39    2.82
   8   1   7   -1.70    4.70
  -8  -1   7   13.29    3.96
  -8   1  -7   18.13    7.03
   8  -1   8   25.48    4.68
   8   1   8   19.88    1.15
  -8   1  -8   32.38    9.61
  -8  -1   8   29.84    8.50
   8  -1   9    0.52    0.22
  -8  -1   9   -1.10    2.81
   8  -1  10    6.35    3.55
   8   1  10   -4.88    3.89
   8   1  10    0.85    1.71
  -8  -1  10    2.08    2.90
   8  -1  11   21.08    5.19
   8   1  11    9.45    3.76
  -8  -1  11   11.78    6.82
   8   1  11   10.78    6.50
  -8   1  12   50.05   13.38
   8   1  12   67.98   11.16
   8  -1  12   73.77    7.72
  -8  -1  12   58.56   15.29
   8   1  12   58.73   16.05
  -8   1  13   -1.39    5.88
   8   1  13    8.33    4.78
   8   1  13    5.93    4.76
  -8  -1  13    2.92    4.13
   8   1  14    7.93    5.30
   8   1  14    1.58    2.97
  -8  -1  14    4.73    6.88
  -8   1  14   -1.96    6.65
  -8  -1  15    6.82    8.17
   8   1  15    6.17    5.08
  -8   1  15    0.35    4.50
  -8   1  16   20.87   10.87
  -8  -1  16   28.07   13.24
  -8   1  17    6.93    5.90
  -8  -1  17   14.31   10.80
  -8  -1  18   24.07   14.31
  -8   1  18   19.68   11.87
  -8   1  19    9.42   10.13
  -8  -1  19    8.38   11.24
  -8  -1  20    8.18   10.53
  -8   1  20    8.91   11.06
  -8   1  21   20.46   15.51
  -8  -1  21    8.86    8.99
  -8  -1  22    7.85    8.88
  -8   1  22   15.54   12.98
  -8  -1  23   -1.36    0.39
  -8   1  23    6.90    8.68
  -8   1  24    9.66   12.04
  -8  -1  24    4.18    7.57
  -9  -1   0   92.30   16.07
  -9   1   0   79.89   13.33
  -9   1  -1    3.60    1.65
  -9  -1  -1    5.20    2.06
  -9  -1   1   13.62    7.44
  -9  -1   2   12.32    6.51
  -9  -1  -2   10.69    3.14
  -9   1  -2   12.38    5.52
   9   1   2    1.11    3.53
  -9   1   3  134.54   15.24
  -9  -1   3  117.23   18.23
  -9  -1  -3  116.83   14.90
  -9   1  -3  131.10   15.34
   9   1   3  128.26   16.45
  -9  -1  -3  124.52   11.73
  -9   1   4    3.59    2.50
  -9  -1  -4   -0.27    3.79
  -9  -1   4   -2.24    4.63
  -9  -1  -4    2.20    0.77
   9   1   4    4.76    3.43
  -9  -1   5   -3.40    3.95
  -9   1   5    1.05    1.22
  -9  -1  -5    2.29    3.88
  -9   1  -5   -5.53    6.51
  -9   1  -5   -0.15    2.07
  -9  -1  -5   -1.76    2.94
   9   1   5    2.95    4.24
  -9  -1   6   -2.16    3.80
  -9  -1  -6   -1.75    3.51
  -9   1   6    1.86    1.24
  -9  -1   6    1.11    0.75
  -9  -1  -6    2.26    2.80
  -9   1  -6    2.62    3.08
   9   1   6    9.84    5.90
  -9   1  -6    4.40    4.23
  -9  -1  -7   -0.28    2.83
  -9   1   7    5.17    2.01
  -9   1  -7    4.53    2.19
  -9  -1   7    2.42    1.08
  -9   1  -7    6.87    4.83
  -9   1   8    6.10    1.90
  -9  -1   8    2.54    1.18
   9   1   9   -7.86    6.42
  -9  -1   9    1.14    2.26
  -9  -1  10    2.00    3.58
   9  -1  10   -1.36    3.04
  -9  -1  11   16.97    7.76
   9  -1  11   16.01    3.47
  -9   1  12   -3.21    7.91
   9   1  12   -6.51    7.15
   9  -1  12    3.10    1.91
  -9  -1  12    3.40    5.53
  -9   1  13    9.76    1.42
   9   1  13   -0.71    5.20
   9  -1  13   16.81    4.47
  -9  -1  13   18.94    9.66
  -9   1  14   -0.82    4.45
  -9  -1  14    4.60    6.28
  -9  -1  15   11.51    9.62
  -9   1  15    8.84    0.93
  -9   1  16    5.38    5.14
  -9  -1  16    5.45    8.22
  -9  -1  17   11.08    9.28
  -9   1  17    2.32    0.57
  -9   1  18    4.03    6.63
  -9  -1  18    5.03    7.29
  -9  -1  19    9.38   10.55
  -9   1  19    4.95    8.61
  -9   1  20    4.00    7.59
  -9  -1  20    6.39    8.75
  -9   1  21   13.57   11.59
  -9  -1  21   10.95   10.32
  -9   1  22    2.84    7.91
  -9  -1  22    5.80    8.40
  -9  -1  23    3.66    9.06
  -9   1  23   -1.28    5.39
  -9   1  24    8.74   10.70
  -9  -1  24   -2.52    1.84
  -9  -1  25  -22.29   18.16
 -10  -1   0  423.04   33.38
 -10   1   0  442.07   33.93
 -10  -1   1   16.01    8.55
 -10   1  -1    6.20    2.31
 -10  -1  -1   10.87    2.97
 -10  -1  -2  112.61   13.12
 -10  -1   2  134.90   20.40
 -10   1  -2  149.31   18.30
 -10  -1  -2  134.56   10.86
 -10   1   3   59.22   11.01
 -10  -1  -3   43.21    5.37
 -10  -1   3   55.08   12.80
 -10   1  -3   69.51   12.45
 -10  -1  -3   51.34    7.56
  10   1   3   45.16   10.29
 -10   1   4   53.45    9.65
 -10   1  -4   74.65   11.48
 -10  -1   4   51.31   12.53
 -10  -1  -4   48.74    9.98
  10   1   4   44.48    9.97
 -10  -1  -4   53.65    8.60
 -10  -1   5   -2.98    3.90
 -10   1   5    1.21    1.74
 -10   1  -5   -7.43    6.99
 -10  -1  -5    3.77    4.63
 -10  -1   5   -3.41    6.62
 -10   1  -5    0.65    2.28
  10   1   5   -0.72    1.97
 -10  -1  -5   -1.40    2.32
 -10   1   6   88.40   10.32
 -10  -1   6   92.29   10.23
 -10   1  -6   84.02   11.89
  10   1   6   90.32   14.30
 -10  -1  -6   93.54   13.99
 -10  -1  -6   80.98   12.46
 -10   1  -6   91.12   14.73
 -10  -1   6   87.68   12.34
 -10  -1   6   84.86   17.25
 -10  -1  -7   -0.77    3.50
 -10  -1   7    3.28    1.49
 -10   1   7    3.98    2.04
 -10   1  -7    7.60    4.00
  10   1   7    7.23    5.33
 -10  -1   7   -0.01    2.57
 -10   1  -7    3.02    3.48
 -10   1   8  220.87   12.45
  10   1   8  202.43   20.63
 -10  -1   8  209.96   22.99
  10   1   9   12.93    6.92
 -10  -1   9    2.14    1.90
  10   1  10  223.09   20.12
 -10  -1  10  228.49   27.07
  10   1  11   36.21    8.47
 -10  -1  11    4.14    3.29
 -10   1  12   -4.55    8.58
 -10  -1  12    0.65    4.78
 -10   1  13   -4.25    9.06
 -10  -1  13    5.14    5.58
 -10  -1  14    2.60    5.01
 -10   1  14   -2.10    6.86
 -10  -1  15    5.64    6.52
 -10   1  15   -2.52    5.83
 -10   1  16   24.43   12.04
 -10  -1  16   22.48   10.80
 -10  -1  17    7.56    8.12
 -10   1  17    3.21    5.51
 -10  -1  18   28.28   13.98
 -10   1  18   21.61   12.03
 -10  -1  19    6.94    9.56
 -10   1  19   -0.15    3.84
 -10   1  20    5.32    7.84
 -10  -1  20    7.53    9.31
 -10   1  21    9.46   10.89
 -10  -1  21    8.07    8.90
 -10  -1  22  -20.98   17.63
 -10   1  22    3.24    9.31
 -10  -1  22    1.75    7.67
 -10   1  23   16.88   14.39
 -10  -1  23   10.06   11.43
 -10  -1  24   12.72   11.73
 -11  -1   0  149.46   21.01
 -11   1   0  159.03   21.07
 -11  -1   1   97.60   18.19
 -11  -1  -1  126.18   18.44
 -11   1  -1   86.64   14.94
 -11  -1  -1  101.14    8.36
 -11   1   1   88.46   16.12
 -11   1  -2   34.98   10.37
 -11  -1   2   28.50   10.51
 -11  -1  -2   26.15    4.96
 -11   1   3   46.54   10.51
 -11  -1  -3   20.32    2.86
 -11   1  -3   53.65   12.17
 -11  -1  -3   39.90    6.79
 -11  -1   3   36.49   10.83
 -11   1   4    3.09    2.61
 -11  -1  -4   -4.68    7.26
 -11  -1  -4    1.47    0.68
  11   1   4   -0.24    5.19
 -11  -1   4    1.96    1.49
 -11  -1   5    1.29    2.82
 -11   1   5    3.12    2.04
 -11  -1  -5    4.90    3.82
 -11  -1   5    2.07    2.41
  11   1   5   -1.41    4.07
 -11  -1  -5    2.41    1.61
 -11   1  -5    4.88    4.17
 -11  -1   6   19.40    5.15
 -11  -1  -6   17.47    4.92
 -11   1   6   23.26    5.70
 -11  -1   6   22.48    5.64
 -11  -1  -6   29.69    9.06
 -11   1  -6   18.15    5.45
 -11  -1   6   18.18    5.35
 -11   1  -6   23.42    8.06
  11   1   6   17.91    5.86
 -11   1   7   41.79    6.90
 -11  -1   7   45.93    6.67
 -11  -1  -7   45.18    9.60
 -11   1  -7   54.65   10.00
  11   1   7   35.80    9.23
 -11   1  -7   41.52   10.69
 -11  -1   7   41.58    9.21
 -11  -1  -7   37.54    9.10
 -11  -1   7   36.59   12.02
 -11  -1   8   26.72    3.37
 -11   1   8   30.59    5.19
  11   1   8   26.64    8.10
 -11  -1   8   26.12    7.90
 -11  -1   8   17.25    7.25
 -11   1   9   24.92    3.84
  11   1   9   27.53    8.14
 -11  -1   9   24.81    8.64
  11   1  10   29.74    9.09
 -11  -1  10   23.58    8.56
  11   1  11   17.90    7.58
 -11  -1  11    7.46    6.49
 -11   1  12   -5.88    9.00
  11   1  12   15.47    8.00
 -11  -1  12    2.88    4.25
 -11   1  13   -3.68    7.25
 -11  -1  13    3.96    4.27
 -11  -1  14    7.40    7.66
 -11   1  14    1.58    4.29
 -11  -1  15   20.61   11.62
 -11   1  15   22.72   10.64
 -11  -1  16   18.96   10.91
 -11   1  16   16.08   10.18
 -11  -1  17    7.71    9.14
 -11   1  17    2.60    2.99
 -11  -1  18    5.41    8.50
 -11   1  18    5.98    7.69
 -11  -1  19    4.92    7.56
 -11   1  19    4.28    6.94
 -11   1  20    8.93    9.06
 -11  -1  20    4.61    7.51
 -11   1  21    3.51    6.20
 -11  -1  21    4.82    8.71
 -11  -1  22    4.71    5.05
 -11   1  22    5.99   11.08
 -11  -1  22  -18.82   18.49
 -11   1  23    6.79   10.29
 -11  -1  23    4.58    6.96
 -11  -1  24    9.46   12.62
 -12  -1   0  592.04   42.67
 -12   1   0  615.87   44.36
 -12  -1  -1   40.59   11.86
 -12  -1   1   22.88   10.67
 -12  -1  -1   21.01    4.02
 -12   1  -1   20.88    8.74
 -12   1   1    3.45    3.19
 -12  -1   2  325.00   33.48
 -12   1  -2  336.92   30.28
 -12  -1  -2  310.81   29.10
 -12   1   2  333.86   35.19
 -12  -1  -2  327.05   17.57
 -12   1   3   23.45    7.72
 -12   1  -3   40.36   11.64
 -12  -1  -3    5.33    9.07
 -12  -1  -3   18.93    4.52
 -12  -1   3   21.43    9.32
 -12   1   4   49.55   10.68
 -12  -1  -4   41.38    8.04
 -12   1  -4   75.75   11.51
 -12  -1   4   44.66   12.56
 -12  -1  -4   47.00    8.29
 -12  -1  -5   10.90    3.72
 -12  -1   5   12.60    3.48
 -12   1   5   16.88    5.79
 -12  -1  -5   13.31    6.22
 -12   1  -5   -3.78    8.56
 -12  -1   5    9.77    2.17
 -12   1  -5   11.80    4.89
 -12   1   6  127.04   14.70
 -12  -1   6  117.12   13.88
 -12  -1  -6  122.35   18.09
 -12   1  -6  108.45   15.14
 -12  -1   6  121.65   22.90
  12   1   6  107.55   16.94
 -12  -1  -6  116.47   15.40
 -12   1  -6  117.33   16.99
 -12  -1   6  117.03   14.47
 -12  -1  -7    3.50    3.29
 -12  -1   7    7.74    2.96
 -12   1   7    8.90    3.58
 -12  -1  -7   10.36    5.11
 -12   1  -7   16.13    7.03
  12   1   7    0.62    4.18
 -12  -1   7    9.27    0.62
 -12  -1   7    4.00    1.73
 -12  -1   8  329.85   15.32
 -12   1   8  334.55   18.91
 -12   1  -8  326.76   22.68
  12   1   8  299.67   28.95
 -12  -1   8  329.28   28.63
 -12  -1   8  346.90   42.37
 -12   1   9    9.74    2.69
  12   1   9    3.55    1.06
 -12  -1   9    2.83    5.53
 -12  -1   9    9.68    4.96
  12   1  10  122.68   17.61
 -12  -1  10  138.00   28.22
 -12  -1  10  130.48   20.57
  12   1  11    3.88    3.30
 -12  -1  11    4.31    4.64
 -12   1  12   92.31   19.56
 -12  -1  12  102.00   20.03
 -12   1  13   15.87    7.06
 -12  -1  13   22.22    9.85
 -12   1  14   -0.30    5.46
 -12  -1  14   10.71    8.55
 -12   1  15   -4.37    6.68
 -12  -1  15    4.50    6.53
 -12  -1  16   50.34   17.33
 -12   1  16   43.52   16.25
 -12   1  17   -2.75    5.31
 -12  -1  17    1.23    5.99
 -12  -1  18   14.96    9.81
 -12   1  18   34.86   15.97
 -12  -1  18   39.43   17.10
 -12  -1  19  -12.96   14.48
 -12   1  19   10.04   11.05
 -12  -1  19   12.55   11.79
 -12   1  20    1.80    6.37
 -12  -1  20   14.44   12.35
 -12   1  21    5.62    8.73
 -12  -1  21    4.56    7.83
 -12   1  22    3.99   10.63
 -12  -1  22    5.34    6.71
 -12  -1  23   11.68   11.41
 -12   1  23    9.66   12.20
 -13  -1   0   45.51   13.66
 -13   1   0   45.97   12.67
 -13  -1   0   43.78    4.98
 -13  -1  -1   70.63   16.05
 -13   1  -1   40.80   11.51
 -13  -1   1   53.26   15.55
 -13   1   1   22.27    6.54
 -13  -1  -1   38.53    5.33
 -13  -1  -2   -3.80   14.04
 -13   1  -2   33.27   11.89
 -13  -1  -2   20.17    4.25
 -13   1   2    2.46   10.80
 -13  -1   2   23.56   10.52
 -13   1   3    2.47    3.37
 -13  -1   3    5.93    7.18
 -13  -1  -3    2.26    1.41
 -13   1   3   -3.10    8.47
 -13  -1   4   -2.21    3.35
 -13   1   4    3.43    3.26
 -13  -1  -4  -12.69    9.91
 -13   1  -4    4.17    8.74
 -13   1  -4    2.65    2.81
 -13  -1  -4    0.67    1.82
 -13  -1   4    6.13    5.50
 -13  -1  -5    9.83    3.44
 -13   1   5   11.34    5.08
 -13  -1  -5   12.56    5.70
 -13   1  -5   12.41    5.47
 -13  -1   5    8.42    2.39
 -13  -1   5    9.99    5.75
 -13  -1  -6   13.55    4.16
 -13  -1   6   17.20    5.68
 -13   1   6   18.49    6.09
 -13  -1  -6   22.19    9.12
 -13   1  -6   15.87    5.39
 -13  -1   6   17.71    7.75
 -13  -1   6   16.10    4.84
 -13   1  -6   16.34    6.72
 -13   1   7   30.74    7.08
 -13  -1   7   29.76    6.66
 -13  -1  -7   34.41   10.08
 -13   1  -7   40.84   10.17
 -13  -1   7   30.09    7.81
  13   1   7   23.57    7.07
 -13  -1   7   16.16    7.49
 -13   1   8   30.66    6.22
 -13  -1   8   32.72    5.65
 -13   1  -8   33.21    7.85
 -13  -1   8   27.39    8.12
  13   1   8   18.06    5.56
 -13  -1   8   23.12    9.73
 -13   1   9   17.30    4.34
 -13  -1   9    8.35    1.85
 -13  -1   9   17.69    7.28
  13   1   9    9.21    1.13
 -13  -1  10   14.01    7.24
 -13  -1  10   -1.09   10.24
  13   1  10    5.18    2.81
 -13  -1  11   -9.85    8.22
 -13  -1  11    6.13    5.60
 -13   1  12   -3.90    7.16
 -13  -1  12    0.96    2.85
 -13   1  13   -2.62    6.57
 -13  -1  13  -14.30   14.30
 -13  -1  13    4.34    4.61
 -13  -1  14    8.09    8.39
 -13  -1  14  -15.72   14.45
 -13   1  14   -1.86    6.83
 -13  -1  15   -5.03   11.88
 -13   1  15    7.61    4.20
 -13  -1  15    8.42    8.57
 -13  -1  16   -8.17   12.69
 -13  -1  16   13.64    9.99
 -13   1  16    3.22    3.53
 -13  -1  17   11.71    9.70
 -13   1  17    1.31    4.96
 -13  -1  18    9.76   10.27
 -13   1  18    1.91    4.40
 -13   1  19    3.43    6.73
 -13  -1  19   10.41   11.01
 -13   1  20    7.23    8.66
 -13  -1  20    6.04    8.58
 -13  -1  21    3.28    5.45
 -13   1  21   -0.82    3.08
 -13   1  22   10.90   11.23
 -13  -1  22    1.33    4.12
 -13  -1  23    2.47    8.65
 -13   1  23    9.92   12.07
 -14  -1   0  327.16   33.77
 -14   1   0  317.21   34.12
 -14  -1   0  321.87   12.98
 -14   1  -1   24.47   11.24
 -14  -1   1   24.07   11.52
 -14  -1  -1   16.99    3.43
 -14   1   1   13.67    6.74
 -14   1   2  171.76   26.50
 -14  -1   2  177.99   26.50
 -14  -1  -2  130.17   20.00
 -14   1  -2  177.71   24.67
 -14  -1  -2  170.54   12.83
 -14   1   3    7.98    4.96
 -14  -1  -3    7.03    2.12
 -14   1   3    0.90    7.55
 -14  -1   3   17.35   10.04
 -14  -1  -4    2.93    0.70
 -14   1   4    6.24    4.39
 -14  -1  -4   -4.52    7.41
 -14  -1   4    6.41    6.22
 -14  -1   4    4.52    0.24
 -14   1  -4    6.19    3.37
 -14  -1  -5   -2.68    3.94
 -14   1   5    0.13    1.37
 -14  -1  -5   -1.01    2.84
 -14  -1   5   -1.29    2.91
 -14   1  -5   -0.52    0.67
 -14  -1   5    2.73    3.71
 -14  -1   6   -0.53    1.98
 -14   1   6    1.01    2.73
 -14   1  -6   -7.92    5.80
 -14  -1  -6    3.72    4.06
 -14   1  -6    1.22    3.11
 -14  -1   6   -0.77    2.08
 -14  -1   6    2.39    5.33
 -14  -1   7    3.01    2.17
 -14   1   7    3.95    2.86
 -14   1  -7   12.63    6.54
 -14  -1  -7    9.61    6.78
 -14  -1   7   -0.09    4.59
 -14  -1   7    0.97    1.56
 -14   1   8   89.18   11.38
 -14  -1  -8   82.78   14.73
 -14   1  -8   94.03   14.26
 -14  -1   8   94.84   23.13
 -14  -1   8   93.06   14.97
 -14  -1   9    1.39    1.25
 -14  -1   9   -2.02    8.24
 -14  -1  10   40.01   11.09
 -14  -1  10   33.30   14.54
 -14   1  11   -4.86    8.97
 -14  -1  11    5.39    5.31
 -14  -1  11   -9.41   11.51
 -14   1  12   14.13    6.23
 -14  -1  12    2.61    4.14
 -14  -1  12   18.83    9.53
 -14  -1  13    4.22    5.77
 -14   1  13   -5.51    6.38
 -14   1  14   -2.74    5.67
 -14  -1  14  -13.78   10.77
 -14  -1  14   12.00    8.60
 -14   1  15    4.77    3.84
 -14  -1  15    2.97    6.08
 -14   1  16    1.05    0.90
 -14  -1  16    1.46    6.42
 -14  -1  17    3.54    7.68
 -14   1  17   -0.23    0.11
 -14  -1  18   10.73    9.27
 -14   1  18    1.54    3.82
 -14  -1  19    7.34    8.17
 -14   1  19    1.02    5.36
 -14   1  20   -0.70    3.58
 -14  -1  20    3.11    5.89
 -14  -1  21    5.95    9.31
 -14   1  21   11.49   10.54
 -14   1  22    7.98   11.34
 -14   1  23   10.37   11.26
 -15  -1   0   42.53   14.51
 -15   1   0    3.61    5.68
 -15  -1   1   20.63   13.79
 -15   1   1    0.44    2.60
 -15   1  -1   16.17    9.89
 -15   1  -2   18.85   12.18
 -15  -1   2   22.77   11.63
 -15  -1  -2   -0.85    1.84
 -15   1   3    0.15    6.00
 -15  -1   3    0.26    1.88
 -15  -1  -3    2.19    1.44
 -15  -1  -4   -2.00    3.52
 -15   1   4   -0.07    1.49
 -15  -1  -4  -12.38    8.31
 -15  -1   4    7.38    8.71
 -15  -1   4   -1.58    2.08
 -15   1   4   -5.42    7.44
 -15   1  -4    1.06    2.53
 -15   1   5   14.43    6.60
 -15  -1  -5   13.19    5.68
 -15   1   5    3.89    6.21
 -15  -1   5   17.76   10.54
 -15   1  -5   13.73    5.92
 -15  -1   5   13.31    3.97
 -15   1   6    3.80    3.52
 -15  -1   6    4.25    3.05
 -15  -1  -6   16.79    9.75
 -15   1  -6   -2.33    5.34
 -15   1   6   -5.08    8.59
 -15   1  -6    4.10    3.91
 -15  -1   6    2.92    2.90
 -15  -1   6    5.72    6.56
 -15  -1  -7    6.08    7.13
 -15   1  -7    8.26    5.60
 -15  -1   7   -3.13    5.77
 -15  -1   7   -1.58    2.61
 -15   1  -8    8.83    5.78
 -15  -1  -8    2.76    3.33
 -15  -1   8    2.11    2.23
 -15  -1   9   -0.17    2.41
 -15  -1   9  -10.81    8.58
 -15  -1  10   -2.22    7.20
 -15  -1  10    7.05    5.31
 -15   1  11   -3.13    7.30
 -15  -1  11    4.50    5.71
 -15  -1  11   -8.54    8.09
 -15   1  12   -5.00    7.57
 -15  -1  12    4.17    6.68
 -15  -1  12  -17.68   11.96
 -15  -1  13  -10.59   11.97
 -15  -1  13    7.07    6.70
 -15   1  13   -1.31    6.59
 -15  -1  14    7.79    7.74
 -15   1  14    0.64    1.59
 -15  -1  15    4.30    6.34
 -15   1  15    1.21    1.28
 -15  -1  16  -13.64   15.02
 -15  -1  16    2.69    6.43
 -15   1  16   -0.39    3.09
 -15  -1  17  -11.81   14.63
 -15   1  17    7.45    7.49
 -15  -1  17    3.89    7.50
 -15   1  18    2.54    6.59
 -15   1  19    6.01    7.77
 -15  -1  19  -22.67   15.14
 -15   1  20    5.66    8.47
 -16  -1   0   37.90   14.34
 -16   1   0   12.79    9.64
 -16  -1   1   26.66   13.67
 -16   1  -1   13.95   11.01
 -16  -1  -1   17.35    4.19
 -16   1   1    3.00    6.35
 -16   1  -2   56.32   15.33
 -16  -1   2   40.07   16.09
 -16   1   2   22.73   10.41
 -16  -1   3    7.40    2.19
 -16   1   3    4.22    1.56
 -16  -1   4  300.67   38.89
 -16  -1  -4  333.21   34.63
 -16   1  -4  300.34   30.89
 -16   1   4  299.08   39.34
 -16  -1   4  304.40   17.84
 -16  -1  -5   -1.45    3.64
 -16  -1   5   -0.14    0.74
 -16  -1  -6   40.57   12.58
 -16   1  -6   27.66    7.54
 -16  -1   6   33.71   13.60
 -16   1   6   13.64    6.75
 -16  -1   6   33.68    7.48
 -16  -1  -7   13.64    9.46
 -16   1  -7    8.30    6.21
 -16  -1   7   -0.57    4.37
 -16  -1   7    0.67    2.36
 -16   1  -8   11.63    7.42
 -16  -1  -8   -2.88    3.59
 -16  -1   8   -0.41    4.55
 -16  -1   8    4.68    3.95
 -16   1  -9    2.37    2.56
 -16  -1   9    0.01    2.57
 -16  -1   9   -3.75    7.54
 -16   1  10   -2.02    6.05
 -16  -1  10    7.67    5.85
 -16  -1  10   -4.24    5.69
 -16   1  11    0.18    6.45
 -16  -1  11   -1.20    6.55
 -16  -1  11    4.92    5.49
 -16   1  12   12.36    6.01
 -16  -1  12    1.91    3.08
 -16  -1  13   -8.89    8.90
 -16   1  13   -0.73    4.51
 -16  -1  14   18.44   10.61
 -16   1  14   20.88   10.63
 -16  -1  15  -14.82   14.03
 -16   1  15    0.72    2.43
 -16  -1  16   -7.77   10.00
 -16   1  16    1.76    2.05
 -16  -1  17  -14.82   12.28
 -16  -1  18  -18.63   13.94
 -17   1   0   19.56   12.73
 -17  -1   0   63.23   19.38
 -17   1  -1   23.55   12.52
 -17  -1   1   38.02   14.73
 -17   1   1   11.52    9.30
 -17  -1   2   25.94   13.82
 -17   1   2    9.29    7.91
 -17  -1  -3    4.89    7.67
 -17   1   3   16.24    7.55
 -17  -1  -4    8.17    2.51
 -17   1   4   12.04    4.47
 -17   1  -5  -16.69   11.21
 -17  -1  -5   11.62    8.28
 -17  -1   5    8.25    8.72
 -17   1   5   -2.48    8.55
 -17   1  -6    6.02    4.23
 -17  -1   6    3.84    2.24
 -17   1  -7   10.99    7.00
 -17  -1  -7    5.66    8.02
 -17  -1   7    4.33    6.89
 -17   1  -8   25.40    9.45
 -17  -1  -8   15.55    6.58
 -17   1   8   -1.95    9.53
 -17  -1   8   19.57   12.05
 -17   1   9  -10.00   13.48
 -17  -1   9    0.93    3.40
 -17   1  10   -4.04    7.11
 -17   1  10  -22.45   13.55
 -17  -1  10   -2.61    7.86
 -17   1  11  -11.08   13.84
 -17  -1  11    1.38    5.68
 -17   1  12  -15.74   11.89
 -17  -1  12    5.37    4.97
 -17   1  13  -25.78   15.50
 -17  -1  13   -2.88    8.69
 -17   1  14  -28.17   16.47
 -17  -1  14    4.06    8.55
 -17  -1  15  -17.78   13.42
 -17  -1  16  -16.74   13.21
 -17  -1  17  -13.18   11.87
 -18  -1   0   73.83   17.02
 -18   1   0   45.62   16.20
 -18   1  -1   26.10   12.82
 -18  -1   1   48.88   16.37
 -18   1   1   15.21   10.97
 -18   1   2  163.91   28.95
 -18   1  -2  195.42   28.31
 -18  -1   2  167.01   29.24
 -18  -1  -2  110.48   22.34
 -18  -1   3   13.85   10.51
 -18  -1  -3  -13.14   11.17
 -18   1   3    4.83    5.92
 -18   1  -4   97.59   16.52
 -18  -1  -4  100.23   20.79
 -18  -1   4  112.52   25.30
 -18   1   4   93.20   22.58
 -18  -1  -5   13.74    8.50
 -18   1  -5   -6.27    9.95
 -18  -1   5    5.76    6.55
 -18   1   5    0.65    4.76
 -18   1  -6   69.90   15.70
 -18  -1  -6   94.77   20.85
 -18  -1   6   70.92   22.65
 -18   1   6   64.41   19.16
 -18   1  -7    5.71    6.04
 -18  -1  -7    9.64    8.54
 -18   1   7   -6.22    9.35
 -18  -1   7    6.02    8.57
 -18   1  -8   15.24    8.93
 -18  -1  -8    6.48    5.67
 -18  -1   8    5.72    7.71
 -18   1   9  -13.28   10.31
 -18  -1   9    7.07    9.98
 -18   1  10   -2.74   10.96
 -18  -1  10    4.86    7.49
 -18   1  11  -19.46   13.17
 -18  -1  11    4.11    4.78
 -18   1  12    2.81    6.99
 -18  -1  12    8.10    9.83
 -18   1  13  -26.83   16.13
 -18  -1  13   -3.23    5.54
 -18   1  14   -4.70   13.09
 -18  -1  14    3.62    4.22
 -18  -1  15  -16.00   12.99
 -18   1  15  -14.57   18.48
 -18  -1  16  -16.27   13.29
 -19  -1   0  -16.95   15.62
 -19   1   0   19.46   14.49
 -19  -1   1   51.10   18.42
 -19   1  -1   37.76   13.98
 -19   1   1   17.17   10.84
 -19   1  -2   68.83   18.47
 -19  -1   2   60.17   18.51
 -19   1   2   32.82   14.63
 -19  -1  -3   -6.50    9.70
 -19  -1   3   28.94   16.51
 -19   1   3   14.26   11.68
 -19  -1  -4    2.07    2.43
 -19   1   4    5.45    7.23
 -19  -1  -5   21.31   10.01
 -19   1  -5   -2.33    9.82
 -19  -1   5   26.20   14.52
 -19   1   5    6.07    4.76
 -19  -1  -6    7.94    8.26
 -19   1  -6   -0.55    1.52
 -19   1   6   -3.85    7.47
 -19  -1  -7   18.59   11.96
 -19   1  -7    6.48    6.20
 -19  -1   7   11.46   11.91
 -19   1   7   -1.91    9.14
 -19  -1  -8   16.20    8.84
 -19   1   8    1.22    6.30
 -19  -1   8   14.42   12.38
 -19  -1   9    6.36    7.33
 -19   1   9  -12.84   10.32
 -19  -1  10    3.44    6.38
 -19   1  11  -23.36   14.67
 -19  -1  11    0.40    0.69
 -19   1  12  -11.23   12.79
 -19  -1  12    2.24    2.05
 -19   1  13  -26.77   16.37
 -19  -1  13   -2.45    4.97
 -19   1  14  -17.43   13.42
 -19  -1  14   -0.85    5.81
 -19  -1  15   -5.76    7.93
 -20   1   0   21.93   12.54
 -20  -1   1   38.88   10.34
 -20   1  -1   50.14   16.65
 -20   1   1   19.76   11.89
 -20  -1  -2  -19.58   14.22
 -20   1  -2  -10.54    9.93
 -20   1   2   15.63   11.40
 -20  -1  -3  -14.58   10.74
 -20   1   3    8.27   10.34
 -20  -1  -4    0.29    2.31
 -20   1   4   15.90   12.30
 -20  -1  -5   11.93    9.40
 -20  -1   5   29.18   16.48
 -20   1  -5   -4.91    6.09
 -20   1   5   10.76   11.01
 -20  -1  -6    9.92    8.91
 -20   1  -6    4.66    4.98
 -20  -1   6   10.15   12.00
 -20   1   6    4.82    6.04
 -20  -1  -7   19.63   11.76
 -20  -1   7    9.29   12.73
 -20   1   7   -0.90    4.89
 -20   1   8   -1.72    7.09
 -20  -1   8    9.61   11.18
 -20   1   9   -4.36    8.84
 -20  -1   9    8.47   10.82
 -20  -1  10    6.48   10.97
 -20   1  10  -14.07   11.29
 -20   1  11   -8.31   12.72
 -20  -1  11    1.05    7.51
 -20  -1  12   11.12   13.25
 -20   1  12  -21.56   14.65
 -20   1  13  -15.46   12.63
 -20  -1  13    5.29    9.97
 -21   1   0   33.28   14.56
 -21   1  -1   51.02   17.09
 -21   1   1   33.98   16.29
 -21  -1   2   53.65   19.61
 -21   1   2   21.10   13.54
 -21  -1  -3   -7.37    8.14
 -21   1   3   19.44   12.83
 -21  -1  -4   -0.19    2.03
 -21   1   4    7.07    9.21
 -21  -1   5   19.97   14.70
 -21  -1  -5   14.28    9.58
 -21   1  -5    7.19    5.92
 -21   1   5    6.76    8.76
 -21  -1  -6   18.18   11.59
 -21  -1   6   28.84   16.63
 -21   1   6   10.39    9.99
 -21  -1   7   23.37   17.00
 -21   1   7    2.95    4.57
 -21   1   8    2.75    3.47
 -21  -1   8   21.59   14.55
 -21  -1   9   16.15   13.27
 -21   1   9   -2.80    7.49
 -21  -1  10    6.82    9.73
 -21   1  10   -2.86    7.62
 -21  -1  11   16.88   15.62
 -21   1  11  -13.76   11.59
 -21  -1  12    4.26   10.42
 -21   1  12  -11.86   11.02
 -22   1   0   69.89   21.15
 -22   1   1   37.17   16.11
 -22  -1  -1  -22.12   14.51
 -22  -1  -2  -11.28    8.52
 -22  -1   2   10.51    6.85
 -22  -1  -3   -4.06    7.30
 -22   1   3   22.47   14.58
 -22   1  -4   -5.52    7.20
 -22  -1  -4    9.05    8.92
 -22   1   4   12.52   10.95
 -22  -1   5   36.38   17.52
 -22  -1  -5    6.02    8.58
 -22   1   5   10.26   11.26
 -22  -1   6   36.46   17.89
 -22   1   6   12.69   10.99
 -22  -1   7   21.65   16.51
 -22   1   7    4.17    9.08
 -22  -1   8   29.92   18.74
 -22   1   8    7.90    8.62
 -22  -1   9   16.94   14.58
 -22   1   9   -3.58    6.39
 -22  -1  10   31.00   19.14
 -22   1  10    6.08    7.35
 -23  -1   0  -32.16   17.64
 -23   1   0   16.98    5.21
 -23  -1   1  -15.75   15.11
 -23   1  -1  -13.39   15.64
 -23  -1  -1    5.94    3.30
 -23   1   2   47.67   19.02
 -23  -1  -2   -0.87    3.53
 -23  -1  -3   21.12   12.01
 -23   1   3   37.86   16.71
 -23  -1   3   40.79   11.56
 -23   1  -3    2.14    9.07
 -23   1   4   30.26   16.18
 -23  -1  -4   10.34    8.44
 -23  -1   5   71.31   23.00
 -23   1   5   26.02   16.43
 -23  -1   6   43.84   19.44
 -23   1   6   13.39   12.23
 -23  -1   7   50.10   22.61
 -23   1   7   18.53   12.97
 -23  -1   8   43.44   21.29
 -23   1   8   18.42   12.64
 -23   1   9   17.98   14.32
 -24  -1   0   -2.87    8.78
 -24   1   0  -11.45   17.30
 -24  -1  -1  -27.97   14.36
 -24  -1   1  -23.33   16.57
 -24   1  -2  -30.82   18.66
 -24  -1  -2    1.71    2.04
 -24   1   3   32.86   16.98
 -24  -1  -3   -0.95    3.75
 -24   1   4   36.44   17.87
 -24  -1   4   34.63    7.41
 -24   1   5   20.59   14.76
 -24  -1   5   53.77   21.88
 -24  -1   6   56.56   22.36
 -24   1   6   19.41   13.53
 -24   1   7   10.29   11.62
 -25  -1   0  -15.73   13.13
 -25   1  -1  -25.31   17.68
 -25  -1  -1   -5.50    9.42
 -25  -1  -2   -8.53    7.51
 -25  -1   2  -29.55   21.61
 -25   1   3   49.37   20.25
 -25   1   4   33.60   16.56
 -25   1   5   35.73   18.03
 -26  -1   0  -16.04   14.30
 -26  -1  -1  -11.16   11.89
 -26  -1   1  -31.15   20.04
 -26   1   3   48.14   19.07
   0   2  -2  677.12   21.23
   0  -2   2  669.80   21.85
   0   2  -2  695.47   20.42
   0   2  -3    0.24    0.52
   0  -2   3   -1.28    1.34
   0   2  -4   32.10    5.43
   0  -2   4   55.32    6.53
   0   2  -4   40.46    7.72
   0   2  -5    0.41    0.97
   0   2  -5    2.58    3.14
   0  -2   5   -0.12    0.41
   0   2  -6  133.72   12.56
   0   2  -6  145.48   16.65
   0   2  -7   -0.10    0.80
   0   2  -7    3.39    3.95
   0  -2   8  378.30   31.09
   0   2  -8  390.44   31.46
   0  -2   9   -1.19    2.28
   0   2  -9   -0.95    1.54
   0   2  10   -4.27    8.41
   0  -2  10    2.36    2.16
   0   2  11   -7.65    8.61
   0  -2  11    0.41    2.32
   0   2  12   40.11   11.93
   0  -2  12   43.18   13.10
   0   2  13   -2.28    4.17
   0  -2  13    7.24    6.39
   0   2  14   20.12    8.95
   0  -2  14   19.13   10.64
   0   2  15   -1.88    5.13
   0  -2  15   -2.30    4.95
   0   2  16   27.17   12.23
   0  -2  16   16.17    8.84
   0   2  17   -0.77    1.00
   0  -2  17    4.61    6.38
   0   2  18   23.75   12.39
   0   2  19    2.78    5.88
   0   2  20    3.26    8.63
   0   2  21   -1.09    5.42
   0   2  22   11.82   11.75
   0   2  23   13.15   13.14
   0   2  24   16.68   14.31
  -1  -2   2   59.39    5.87
   1  -2  -2   58.87    6.27
  -1   2   2   58.42    6.48
   1   2  -2   59.99    5.74
   1  -2   2   56.70    7.04
  -1   2  -2   56.46    7.09
  -1  -2   2   49.18    4.64
  -1   2  -2   56.93    4.56
   1   2  -2   78.27    7.93
   1  -2  -3    1.89    1.36
   1  -2   3    2.15    1.26
   1   2  -3    1.99    1.04
  -1   2  -3    1.61    1.20
  -1  -2   3    1.91    1.17
   1  -2   3    3.00    1.31
   1   2  -3    2.58    2.24
   1   2  -4   10.23    2.60
  -1   2  -4   10.46    3.37
  -1  -2   4   10.54    2.83
  -1  -2   4   19.67    5.29
   1   2  -4   10.85    3.94
   1   2  -5    1.83    1.50
  -1   2  -5    0.40    1.09
   1   2  -5    2.79    3.58
   1  -2   5    4.75    2.44
  -1  -2   5   -0.16    1.74
  -1   2  -5    2.32    3.00
   1   2  -6    5.22    2.15
  -1   2  -6    6.65    4.45
  -1  -2   6    4.83    2.88
   1   2  -6    6.59    4.03
   1   2  -7   -0.23    0.65
   1   2  -7    1.49    2.47
  -1   2  -7    2.16    3.24
  -1  -2   7    1.16    2.44
   1   2  -8   71.28    9.45
  -1  -2   8   71.29   12.96
  -1   2  -8   73.52   13.74
   1   2  -8   71.09   13.05
   1   2  -9    0.89    1.68
   1   2   9   -7.52    9.53
  -1   2  -9    2.49    3.11
  -1  -2   9    0.44    0.93
   1   2  -9   -0.99    2.90
   1   2 -10  273.95   20.70
   1  -2  10  260.58   29.21
   1   2  10  266.17   29.08
  -1  -2  10  276.55   29.82
  -1   2  11  -11.14   10.27
   1   2  11   -3.99    6.70
   1  -2  11   -0.05    1.78
  -1  -2  11    2.69    4.89
  -1   2  12   -9.28    8.96
   1   2  12   -1.52    4.15
   1  -2  12    0.91    3.12
  -1  -2  12    0.47    3.70
  -1   2  13   -0.43    4.48
   1   2  13   -0.32    5.17
   1  -2  13    4.80    6.82
  -1  -2  13    6.21    6.01
   1   2 -14    1.97    1.61
  -1   2  14   -0.12    1.65
   1  -2  14    1.18    5.51
  -1  -2  14   11.01    8.21
   1   2  14    3.29    3.86
   1   2 -15    0.18    0.16
  -1  -2  15    1.74    5.58
  -1   2  15   -4.19    6.69
   1   2  15   -0.25    0.65
   1  -2  15   -0.10    1.16
   1   2 -16    6.38    4.23
   1   2  16    8.14    6.58
  -1  -2  16    8.13    6.59
  -1   2  16    8.98    7.97
  -1  -2  17   -2.09    2.65
  -1   2  17    2.82    4.39
   1   2  17    2.23    3.93
  -1   2  18   40.34   16.92
  -1  -2  18   47.67   18.37
   1   2  18   57.28   19.33
  -1   2  19    2.45    7.15
  -1  -2  19    2.72    5.28
   1   2  19    8.53   10.35
   1   2  20   16.51   12.33
  -1   2  20   11.94   10.77
   1   2  21    4.51    8.28
  -1   2  21    6.57   10.47
  -1   2  22    5.65   10.43
   1   2  22   12.21   13.24
  -1   2  23    2.77    8.71
   1   2  23    9.70   11.31
  -1   2  24   18.05   16.19
   1   2  24    6.56    9.65
  -2   2   0  423.40   18.49
   2  -2   0  434.05   19.50
  -2  -2   1    7.68    2.43
   2   2   1    9.25    3.36
  -2  -2   1   -1.66    3.75
  -2  -2  -1    4.74    1.07
   2   2  -1   -5.47    6.34
   2  -2  -1    7.67    2.28
   2  -2   1    6.77    2.43
  -2   2  -1    6.52    2.68
  -2   2   1    7.98    2.46
   2  -2  -2   19.30    3.62
  -2  -2   2   20.16    3.27
   2   2  -2   20.15    3.40
  -2   2   2   18.89    3.60
  -2   2  -2   19.45    4.47
   2  -2   2   18.34    4.32
   2   2  -2   29.89    6.72
   2  -2  -3    6.42    1.97
  -2   2   3    6.90    2.30
   2   2  -3    6.42    1.77
  -2  -2   3    6.29    1.77
  -2   2  -3    5.42    2.60
   2   2  -3    5.28    1.91
   2   2  -3    8.95    3.26
   2  -2  -4  354.91   16.75
   2   2  -4  354.78   13.61
  -2  -2   4  355.47   14.57
  -2   2  -4  359.24   22.06
  -2  -2   4  365.28   21.43
   2   2  -4  353.87   20.95
  -2  -2   5    6.06    2.08
   2   2  -5    5.69    1.70
   2  -2  -5    6.69    2.58
  -2  -2   5    7.72    3.90
   2   2  -5    7.13    3.83
  -2   2  -5    7.70    4.07
  -2  -2   5    3.76    1.24
   2   2  -6   15.31    3.39
  -2  -2   6   15.53    5.68
  -2   2  -6   18.42    6.46
   2  -2   6   12.11    1.78
   2   2  -6   14.15    5.48
  -2   2  -7    1.35    1.06
   2   2  -7   -1.87    3.12
  -2  -2   7    2.63    3.47
   2   2  -8  303.91   17.75
  -2  -2   8  289.33   26.90
  -2   2  -8  303.15   28.13
   2   2  -8  310.30   27.02
   2   2   8  283.86   26.96
   2   2  -9   15.79    4.38
   2   2   9   10.26    2.64
   2   2  -9   14.78    5.95
  -2  -2   9   16.80    6.86
   2   2 -10  170.68   14.95
   2   2  10  167.18   22.56
  -2  -2  10  174.54   23.41
   2   2 -11    1.13    0.25
   2   2  11   -2.72    5.68
  -2  -2  11    2.25    4.47
   2   2 -12   15.30    4.73
  -2   2  12   10.83    2.57
   2   2  12   15.54    6.95
  -2  -2  12   17.14    8.22
   2   2 -13    0.19    0.59
  -2   2  13   -4.77    7.26
   2   2  13    0.52    4.60
  -2  -2  13    0.44    3.03
   2   2 -14    3.52    2.31
   2   2  14    6.39    5.41
  -2  -2  14    3.22    5.84
  -2   2  14    0.68    5.48
   2   2 -15    0.52    1.10
  -2  -2  15    0.60    2.05
   2   2  15    2.57    4.46
  -2   2  15   -2.58    6.51
   2   2 -16   13.01    5.29
  -2   2  16   15.32    7.35
   2   2  16   17.98   10.84
  -2  -2  16   22.78   11.80
   2   2 -17    1.52    2.46
   2   2  17    5.35    5.99
  -2   2  17   -1.35    4.88
  -2  -2  17    3.05    3.58
  -2   2  18   47.25   17.64
   2   2  18   45.67   17.34
  -2  -2  18   44.49   17.24
   2   2  19    5.52    8.01
  -2   2  19    1.48    5.31
  -2  -2  19   -1.96    2.07
   2   2  20    4.10    5.61
  -2  -2  20    5.99    7.93
  -2   2  20    8.52    9.65
  -2   2  21    4.98    8.85
   2   2  21    1.55    5.54
  -2   2  22   20.32   14.75
   2   2  22   13.30   11.79
   2   2  23    4.56    9.52
  -2   2  23    4.96   11.01
  -2   2  24   18.35   15.33
   2   2  24    0.09    8.20
  -3  -2   0   62.64    7.64
   3   2   0   49.77    4.61
  -3   2   0   62.97    8.04
   3  -2   0   65.29    8.32
  -3   2   1   32.16    5.21
  -3   2  -1   33.52    6.38
   3  -2   1   34.60    6.40
   3  -2  -1   33.26    5.47
  -3  -2  -1   35.90    6.38
   3   2   1   34.88    5.61
   3   2  -1   54.96    9.73
  -3   2   2   48.38    6.15
   3  -2  -2   50.22    6.32
  -3   2  -2   49.77    7.96
  -3  -2  -2   46.20    6.13
   3   2   2   56.72    8.02
  -3  -2   2   93.36   11.30
   3   2  -2   62.15    9.59
   3   2  -2   48.53    5.87
  -3  -2   3   18.99    3.03
  -3   2   3   17.88    3.61
   3  -2  -3   19.13    3.85
  -3   2  -3   17.86    5.13
  -3  -2   3   30.95    8.91
   3   2   3   16.96    3.92
   3   2  -3   16.02    4.03
   3   2  -3   20.97    4.56
  -3  -2   4    0.10    0.39
   3  -2  -4    0.47    0.62
   3   2  -4    0.47    0.65
  -3   2   4    0.65    0.84
   3   2  -4   -0.16    0.32
  -3  -2   4    1.73    3.00
  -3  -2   5   20.24    3.31
   3   2  -5   21.88    3.11
   3  -2  -5   18.97    3.81
   3   2  -5   21.58    5.42
  -3  -2   5   16.46    3.84
  -3  -2   5   20.18    5.46
   3   2   6   18.79    3.75
   3  -2  -6   23.78    4.61
   3   2  -6   26.64    3.64
   3   2  -6   25.54    6.30
  -3   2  -6   30.06    8.16
  -3  -2   6   17.14    4.54
  -3  -2   6   26.87    6.99
   3   2  -7    0.97    0.79
   3   2  -7   -1.12    3.54
   3   2   7   -4.85    6.04
   3  -2  -7    1.05    1.14
  -3   2  -7    2.62    3.35
  -3  -2   7    4.60    4.30
   3  -2  -8   84.09    9.82
   3   2  -8   85.22    7.91
  -3  -2   8   83.67   14.90
  -3   2  -8   85.14   15.22
   3   2   8   80.15   13.49
   3   2  -8   77.51   13.47
   3   2  -9    6.64    2.46
   3   2  -9    2.61    3.65
   3   2   9    2.85    2.56
  -3  -2   9    9.23    6.14
   3   2 -10   46.94    7.03
  -3  -2  10   47.61   12.40
   3   2  10   40.14   10.82
   3   2 -11   10.09    3.58
   3   2  11    9.44    4.17
  -3  -2  11   15.54    8.32
   3   2 -12    7.11    3.30
  -3   2  12   -3.53    9.40
  -3  -2  12    6.41    5.15
   3   2  12    5.57    3.76
   3   2 -13   24.01    5.94
  -3   2  13   12.86    2.59
   3   2  13   22.26    9.02
  -3  -2  13   21.11    9.83
   3   2 -14    5.71    2.91
  -3   2  14   -0.40    5.50
   3   2  14    7.43    7.27
  -3  -2  14    6.38    5.68
   3   2 -15    1.04    2.12
  -3   2  15   -2.12    6.77
  -3  -2  15    0.53    3.28
   3   2  15    1.71    3.35
   3   2 -16   39.45    8.59
  -3  -2  16   41.63   15.53
  -3   2  16   30.35   11.78
   3   2  16   42.91   16.27
  -3  -2  17    0.29    2.02
  -3   2  17    0.14    2.37
   3   2  17    9.97    9.87
  -3   2  18    4.42    1.43
  -3  -2  18    2.36    5.57
   3   2  18    8.42    8.70
  -3   2  19    0.65    2.80
   3   2  19    5.17    8.20
  -3  -2  19    3.60    8.61
   3   2  20   12.02   12.20
  -3   2  20   10.90   10.17
  -3  -2  20    4.32    4.81
   3   2  21    6.56    9.86
  -3  -2  21    9.49   11.30
  -3   2  21    0.68    7.69
   3   2  22   11.17   11.03
  -3   2  22    9.05   10.30
  -3   2  23    9.02   13.79
   3   2  23    1.53    3.89
   3   2  24   21.51   15.30
  -3   2  24   16.01   13.23
  -4   2   0  199.10   15.57
   4  -2   0  208.09   16.03
  -4  -2   0  175.13   14.57
   4   2   0  252.46   17.47
  -4   2   1   15.36    4.12
  -4   2  -1   14.93    4.43
   4  -2  -1   13.90    3.97
   4   2  -1   24.64    7.63
   4   2   1   -3.29    8.79
  -4  -2  -1   11.87    2.12
   4  -2  -2    1.86    1.28
  -4   2  -2    2.12    1.59
  -4   2   2    1.68    0.80
   4   2   2   -3.26    4.21
  -4  -2  -2    4.58    3.84
   4   2  -2    4.29    1.82
   4   2  -2    1.84    0.58
  -4   2   3   40.78    5.93
   4  -2  -3   42.50    6.18
   4   2   3   39.55    7.03
  -4  -2   3   51.27   10.23
   4   2  -3   38.81    5.66
   4  -2  -4   96.07    8.96
  -4  -2   4  102.12    6.80
  -4   2   4   99.53    8.80
  -4  -2   4  100.46   13.03
   4   2   4  100.47   11.35
  -4  -2   4   97.35   10.70
   4   2  -4   99.42   10.55
   4   2   4   92.97   10.35
   4   2   5   -0.01    4.07
  -4   2   5    3.09    1.73
   4   2  -5    0.45    2.60
   4  -2  -5    3.52    1.64
  -4  -2   5    3.11    0.95
   4   2   5    1.38    1.52
  -4  -2   5    0.81    2.78
  -4  -2   5    3.24    2.73
   4   2  -6    2.32    3.08
   4   2   6    2.76    3.85
   4  -2  -6    5.67    2.14
  -4  -2   6    4.35    2.18
  -4   2  -6    5.67    4.18
  -4  -2   6    9.63    4.89
   4   2  -7    0.18    4.37
   4   2  -7    6.13    1.49
   4  -2  -7    4.20    1.86
  -4   2  -7    7.86    4.84
   4   2   7    3.87    1.24
  -4  -2   7    8.31    4.91
   4   2  -8   14.27    2.55
   4  -2  -8   12.43    3.37
  -4  -2   8   17.64    7.03
   4   2   8    7.97    2.80
  -4   2  -8   19.46    7.75
   4   2  -9    3.46    1.42
   4  -2  -9    3.08    1.91
   4   2   9    2.74    1.63
  -4  -2   9   10.58    6.49
   4  -2 -10   70.55    9.18
   4   2 -10   69.33    6.96
  -4  -2  10   78.76   15.93
   4   2  10   64.08   14.65
   4   2 -11    1.19    0.49
   4  -2 -11    2.52    2.04
  -4  -2  11    6.41    5.61
   4   2  11   -0.27    1.90
   4   2 -12   49.78    7.12
   4  -2 -12   48.43    8.43
  -4  -2  12   51.57   13.99
   4   2  12   49.60   13.59
   4   2 -13    6.22    2.57
   4  -2 -13    9.37    4.12
  -4   2  13   -1.58    9.31
   4   2  13    7.84    7.26
  -4  -2  13    4.90    5.21
   4   2 -14   27.18    5.88
   4  -2 -14   26.46    7.09
  -4   2  14   22.74    9.52
   4   2  14   27.62   12.16
  -4  -2  14   30.81   12.28
   4   2 -15    0.36    1.29
  -4   2  15   -5.74    8.87
  -4  -2  15    0.17    3.20
   4   2  15    6.81    6.96
   4   2 -16    6.06    3.19
  -4  -2  16   10.72    9.06
   4   2  16   13.77    9.94
  -4   2  16    2.51    4.39
  -4   2  17    0.94    1.61
  -4  -2  17    3.47    6.97
   4   2  17    5.51    6.83
   4  -2 -18    6.04    3.34
  -4   2  18    3.32    3.68
  -4  -2  18    8.17    9.07
   4   2  18   13.09   11.08
   4   2  19    1.19    6.89
  -4   2  19   -3.35    6.52
  -4  -2  19   -0.68    0.54
   4   2  20   17.67   12.61
  -4  -2  20    4.39    7.12
  -4   2  20    3.55    5.88
  -4   2  21    8.02    8.98
  -4  -2  21    1.04    5.59
   4   2  21    6.33    8.60
  -4   2  22    9.87   10.38
  -4  -2  22  -11.34   10.85
   4   2  22    9.48   11.53
  -4   2  23    8.00   11.64
   4   2  23    4.42    8.09
  -4   2  24    6.46   12.25
   4   2  24    6.50   10.51
  -5   2   0   22.76    5.67
   5   2   0   38.21    9.00
  -5   2   1    2.13    1.86
  -5   2  -1    2.39    2.04
  -5  -2  -1   -9.72    7.12
  -5  -2   1   51.74   10.04
   5   2   1   42.49    9.10
   5   2  -1    5.31    4.18
   5  -2  -2    3.88    2.22
  -5   2   2    3.05    1.96
  -5  -2   2   16.67    7.90
  -5  -2  -2    5.79    2.99
   5   2   2  -12.44    9.55
   5   2   2    1.75    1.30
   5   2  -2   -0.37    3.31
  -5   2   3  138.85   11.63
   5  -2  -3  133.84   12.05
   5   2   3  123.55   13.37
  -5  -2  -3  134.17   13.58
  -5  -2   3  147.10   16.82
   5   2   3  137.05   11.30
  -5   2   4  261.91   15.23
  -5  -2   4  272.73   12.41
   5  -2  -4  257.12   16.02
  -5   2  -4  269.67   11.57
  -5  -2   4  274.42   23.59
   5   2   4  263.73   19.98
  -5  -2   4  263.29   17.09
   5   2   4  271.87   18.50
  -5  -2   5  127.41    7.09
  -5   2   5  121.78   10.06
   5  -2  -5  123.68   10.75
  -5  -2   5  119.57   15.90
   5   2   5  127.37   13.71
  -5  -2   5  121.13   13.27
   5   2   5  125.08   14.02
  -5   2   6  112.67    9.87
   5  -2  -6  114.46    9.93
   5   2   6  108.84   12.35
   5   2   6  108.22   14.28
  -5  -2   6  108.64   15.65
  -5   2  -6  118.40   16.22
  -5  -2   6  113.62   14.38
   5  -2  -7    0.46    0.62
   5   2   7   -0.64    1.32
  -5  -2   7    2.91    3.52
   5   2   7   -1.12    1.33
  -5   2  -7    3.54    4.56
   5  -2  -8  203.17   13.38
  -5  -2   8  196.53   21.86
  -5   2  -8  202.91   23.61
   5   2   8  194.56   22.29
   5  -2  -9   11.93    3.42
   5   2   9    9.72    5.52
  -5  -2   9   15.49    8.23
   5  -2 -10    0.97    1.17
  -5  -2  10    3.70    4.54
   5   2  10    0.41    3.60
   5   2 -11   13.29    2.30
   5  -2 -11   12.62    3.67
  -5  -2  11   14.93    8.19
   5   2  11   17.34    8.46
   5   2 -12  155.54    9.08
   5  -2 -12  148.48   13.49
  -5  -2  12  149.07   23.64
   5   2  12  158.20   24.68
   5   2 -13   35.14    4.77
   5  -2 -13   30.92    6.45
  -5   2  13   22.75    7.24
  -5  -2  13   32.66   12.50
   5   2  13   42.69   14.10
   5   2 -14    0.62    0.72
  -5   2  14   -4.28    8.31
   5  -2 -14   -0.17    0.58
  -5  -2  14    0.26    0.75
   5   2  14    1.96    5.54
   5   2 -15   -0.29    0.41
   5  -2 -15    0.09    0.75
  -5   2  15   -5.24    7.01
   5   2  15   12.44    9.07
  -5  -2  15    6.82    7.88
   5  -2 -16    3.26    1.77
  -5  -2  16    6.14    7.93
   5   2  16    4.82    6.14
  -5   2  16    0.98    5.36
   5  -2 -17    8.53    3.94
  -5  -2  17   14.48   11.34
  -5   2  17    7.54    5.91
   5   2  17   11.67    9.29
  -5  -2  18   24.56   13.35
   5   2  18   24.72   13.19
  -5   2  18   22.86   13.01
  -5  -2  19    0.60    6.30
  -5   2  19    0.76    1.91
   5   2  19    7.44    8.61
  -5  -2  20   22.87   14.58
  -5   2  20   18.74   13.06
   5   2  20   21.29   13.89
  -5  -2  21    6.50    8.36
  -5   2  21    5.10    8.08
   5   2  21    7.34   10.34
   5   2  22    6.99   10.91
  -5   2  22   12.57   11.51
  -5  -2  22   -9.87   12.79
  -5  -2  23  -13.25   13.15
  -5   2  23    7.26   10.70
   5   2  23    6.43    7.37
  -5   2  24   11.05   13.53
   5   2  24    2.18    6.39
  -6   2   0   69.03   10.52
   6   2   0   83.41   12.93
  -6   2   1    0.04    1.01
  -6   2  -1    0.17    1.37
   6   2  -1   -0.02    0.81
  -6   2   2   66.25    9.40
  -6  -2  -2   61.93    9.62
   6   2   2  103.99   12.78
  -6  -2   2   83.93   13.11
   6   2  -2   69.60   11.83
   6   2   2   70.49    6.58
  -6   2   3   25.60    5.42
   6  -2  -3   26.68    6.03
   6   2   3    6.83    7.33
  -6  -2  -3   27.02    6.94
  -6  -2   3   35.06    9.23
  -6  -2   3   26.95    4.62
   6   2   3   26.79    5.28
  -6   2   4   43.59    6.53
   6  -2  -4   41.81    7.14
  -6   2  -4   53.06    6.75
  -6  -2   4   48.78   11.13
  -6  -2  -4   41.74    8.20
   6   2   4   39.67    6.35
   6   2   4   45.52    7.70
  -6  -2   4   45.85    7.12
  -6  -2   5    3.42    1.38
  -6   2   5    4.41    2.24
   6  -2  -5    2.30    1.64
  -6   2  -5   -1.16    2.47
   6   2   5   -0.56    2.78
  -6  -2   5    6.24    4.07
  -6  -2   5   -1.23    2.63
   6   2   5    2.92    2.52
  -6   2   6   24.62    4.60
   6  -2  -6   25.96    5.09
   6   2   6   28.88    6.93
  -6  -2   6   17.08    4.40
  -6  -2   6   29.95    7.46
   6   2   6   29.16    7.49
  -6   2  -6   24.88    7.79
   6  -2  -7   35.52    5.91
   6   2   7   42.54    8.66
  -6  -2   7   30.60    7.88
  -6   2  -7   36.61    9.89
  -6  -2   7   38.09    9.57
   6   2   7   34.64    8.78
   6  -2  -8   10.71    2.93
   6   2   8   12.93    4.88
  -6   2  -8   16.71    7.86
  -6  -2   8   12.78    6.94
   6   2   8   12.56    6.52
   6  -2  -9    7.32    2.48
   6   2   9   12.67    5.51
  -6  -2   9   10.27    6.15
   6   2   9    8.13    5.38
   6  -2 -10   -0.05    0.97
   6   2  10    2.76    2.74
  -6  -2  10    4.86    5.69
   6   2  10    0.76    0.49
   6  -2 -11    4.24    2.13
  -6  -2  11    3.30    4.25
   6   2  11    8.16    6.68
   6  -2 -12   36.08    6.15
  -6  -2  12   38.02   12.65
   6   2  12   39.59   13.63
   6  -2 -13   25.70    5.44
  -6   2  13   14.28    2.07
   6  -2  13   33.07    4.39
  -6  -2  13   37.22   13.23
   6   2  13   29.29   11.93
   6  -2 -14    9.34    3.27
  -6   2  14   -5.41    9.29
   6  -2  14   18.68    4.17
   6   2  14   15.88   10.19
  -6  -2  14   15.20   10.13
  -6   2  15   -2.30    7.69
   6  -2 -15   -0.46    1.01
   6  -2  15    6.22    3.35
   6   2  15    5.39    7.22
  -6  -2  15    4.63    7.75
   6  -2 -16   19.27    4.87
  -6   2  16   20.88   10.67
   6   2  16   28.90   12.91
  -6  -2  16   26.33   13.14
  -6  -2  17    7.85    8.62
  -6   2  17    6.35    5.87
   6   2  17    6.84    7.64
  -6  -2  18    9.73    9.79
   6   2  18    6.43    7.46
  -6   2  18    4.87    5.32
   6   2  19   -0.34    5.21
  -6  -2  19    5.43    6.67
  -6   2  19   -1.81    4.25
  -6   2  20   -3.39    0.29
  -6  -2  20   -0.97    3.05
   6   2  20    2.95    6.89
  -6  -2  21  -16.47   13.96
  -6   2  21   12.77   12.35
   6   2  21    3.56    8.04
  -6  -2  21    2.96    6.63
  -6  -2  22   -8.85   11.53
  -6  -2  22    7.39    7.94
   6   2  22    8.99   10.36
  -6   2  22   -1.83    2.38
  -6   2  23    7.28    9.54
   6   2  23    3.07    4.64
  -6   2  24    6.11    9.85
  -7   2   0   19.95    5.90
  -7  -2   0   29.62    5.22
   7   2   0   20.20    6.57
  -7   2   1    0.15    1.22
   7   2  -1   -7.09    4.10
  -7   2   2    8.96    3.85
  -7  -2  -2    1.99    4.94
  -7  -2   2   21.62    9.00
   7   2   2   21.35    8.66
  -7   2   3   74.08   10.09
   7   2   3   97.31   13.09
  -7  -2   3   71.67   13.84
  -7  -2  -3   70.77   12.28
   7   2   3   69.51    7.94
  -7   2  -3   63.86    8.46
  -7  -2   3   69.37    7.06
  -7   2   4   74.97    9.42
  -7  -2  -4   79.23   12.38
  -7   2  -4   90.03    9.78
   7   2   4   57.15    7.55
  -7  -2   4   79.85   13.99
   7   2   4   80.60    9.90
  -7  -2   4   79.95    9.34
  -7   2   5   20.63    4.70
  -7   2  -5    3.01    4.08
   7   2   5   11.54    4.49
  -7  -2   5   17.04    5.14
   7   2   5   22.67    6.83
  -7  -2   5   23.69    6.20
  -7  -2   6  126.02    7.22
  -7   2   6  123.56   10.69
   7  -2  -6  119.71   11.88
  -7   2  -6  126.49    8.46
   7   2   6  131.19   14.78
  -7   2  -6  131.40   17.86
   7   2   6  125.13   15.40
  -7  -2   6  131.06   14.87
  -7  -2   6  127.60   18.85
  -7   2   7    7.32    2.65
   7  -2  -7    5.97    2.60
   7   2   7    6.78    2.71
  -7   2  -7    7.47    4.92
   7   2   7   10.04    5.47
  -7  -2   7   10.13    5.12
  -7  -2   7    3.13    4.48
   7  -2  -8    0.42    0.99
   7   2   8    2.42    3.57
  -7  -2   8   -4.82    7.13
   7   2   8    3.33    4.15
  -7  -2   8    1.73    3.72
   7  -2  -9    9.02    2.96
   7   2   9   15.45    5.97
   7   2   9    9.47    5.55
  -7  -2   9   11.73    6.49
   7  -2 -10    9.41    2.91
   7   2  10   14.38    6.94
   7   2  10    9.32    6.65
  -7  -2  10    8.51    6.48
   7  -2 -11   10.43    3.00
   7   2  11   12.83    6.36
  -7  -2  11   14.97    7.87
   7   2  11    9.66    6.32
   7  -2 -12   17.95    3.83
   7   2  12   22.73    7.20
  -7  -2  12   21.56    9.67
   7   2  12   21.35   10.39
   7  -2 -13   43.73    6.15
   7   2  13   45.33   10.07
   7   2  13   46.25   14.35
  -7  -2  13   44.44   14.53
  -7   2  14   -4.55    8.19
   7  -2 -14    0.35    0.25
   7   2  14    0.57    1.32
   7   2  14    4.37    7.76
  -7  -2  14    3.93    7.12
  -7   2  15   -3.76    6.26
   7  -2 -15    0.13    0.51
   7   2  15    1.37    2.79
   7   2  15    3.19    5.91
  -7  -2  15    9.82    8.32
  -7   2  16    0.75    3.94
   7   2  16    1.54    6.79
  -7  -2  16    5.46    6.73
   7   2  17    9.12    8.16
  -7  -2  17    7.88    8.25
  -7   2  17    7.10    6.02
  -7   2  18   -4.71    6.23
   7   2  18    5.76    6.24
  -7  -2  18    6.96    7.95
  -7  -2  19    3.84    3.25
  -7   2  19    2.00    4.38
   7   2  19    4.20    5.85
  -7   2  20    8.47    8.36
   7   2  20    6.42    7.85
  -7  -2  20    7.15    8.11
  -7  -2  20   -4.85    8.95
  -7  -2  21  -20.32   11.94
   7   2  21   16.42   12.63
  -7  -2  21   13.68   13.08
  -7   2  21   10.21    9.67
  -7  -2  22  -18.90   11.75
  -7  -2  22    2.71    4.78
   7   2  22    7.93   10.90
  -7   2  22    5.69   11.53
  -7  -2  23  -10.81   11.63
  -7   2  23    9.60   11.39
  -7   2  24    7.24    9.87
  -7  -2  24  -14.73   14.01
  -8   2   0   29.60    8.22
   8   2   0   27.95    7.37
  -8   2   1   20.40    6.33
   8   2  -1   16.30    5.13
   8   2   1   24.91    7.48
  -8   2   2    0.25    1.19
   8   2   2    6.53    5.22
  -8   2   3   24.80    6.19
  -8  -2   3   38.90   10.84
   8   2   3   37.12    9.62
  -8  -2  -3   22.24    6.70
  -8  -2   3   24.15    4.03
  -8   2  -3   18.46    4.34
  -8   2   4   52.57    8.44
  -8   2  -4   65.64    9.40
   8   2   4   82.43   12.67
  -8  -2   4   61.96   12.99
  -8  -2  -4   58.80   11.07
  -8  -2   4   52.87    7.42
  -8   2   5  141.78   13.01
   8   2   5  147.29   16.54
  -8  -2   5  140.19   20.46
  -8  -2  -5  132.59   16.39
  -8   2  -5  120.39   11.76
   8   2   5  146.66   15.29
  -8  -2   5  147.95   14.02
  -8   2   6   18.94    4.45
   8   2   6   -0.61    7.91
  -8   2  -6   19.01    4.24
  -8  -2   6    9.20    2.64
  -8  -2   6   18.24    6.05
   8   2   6   21.58    6.41
  -8   2   7    6.00    2.45
   8   2   7   -7.81    7.12
  -8  -2   7   -1.52    4.86
  -8  -2   7    9.71    4.67
   8   2   7   10.01    4.92
  -8   2  -7    6.83    4.77
  -8   2   8   38.83    5.86
   8   2   8   38.16    6.73
  -8  -2   8   33.68    9.68
   8   2   8   37.32    9.76
  -8  -2   8   38.34    9.77
   8   2   9   11.15    3.72
   8   2   9   15.83    6.79
  -8  -2   9    7.63    5.68
  -8  -2   9   18.19    7.88
   8  -2 -10    7.83    2.38
   8   2  10    8.33    3.84
  -8  -2  10   11.27    6.50
   8   2  10    9.87    5.52
   8  -2 -11    5.65    2.09
   8   2  11    9.44    5.01
   8   2  11    7.66    6.30
  -8  -2  11    8.61    6.87
   8  -2 -12   25.25    4.06
   8   2  12   40.60    9.64
   8   2  12   25.46   10.79
  -8  -2  12   24.94   11.19
   8  -2 -13   18.40    3.28
   8   2  13   28.25    8.62
   8   2  13   23.99   10.40
  -8  -2  13   25.88   11.14
   8  -2 -14    0.17    0.43
   8   2  14    9.64    6.72
  -8  -2  14    6.39    6.72
   8   2  14    3.39    4.77
  -8   2  15   -1.01    7.65
   8   2  15    1.55    1.57
  -8   2  16    7.98    3.64
   8   2  16   10.29    7.86
  -8  -2  16   17.18   11.43
  -8   2  17    6.00    5.21
   8   2  17    8.60    6.36
  -8  -2  17   10.44    8.23
  -8   2  18    4.19    3.59
  -8  -2  18   15.96   11.84
   8   2  18    7.99    6.58
  -8  -2  19    7.78    8.44
   8   2  19    6.83    7.80
  -8   2  19    2.52    3.93
  -8  -2  19  -10.12    8.32
  -8  -2  20  -16.96   11.00
   8   2  20    8.67    9.89
  -8  -2  20    4.02    7.89
  -8   2  20    2.63    6.87
  -8  -2  21   -4.63   10.72
  -8  -2  21   10.67    8.63
  -8   2  21   14.94   13.11
  -8  -2  22   -9.17   12.91
  -8   2  22    8.59    8.85
  -8  -2  22    8.29   10.00
  -8  -2  23  -13.64   15.67
  -8   2  23    5.55    8.59
  -8  -2  24   -8.26   14.43
  -9   2   0   99.25   15.72
   9   2   0   98.11   16.11
  -9   2   1   40.48    9.71
   9   2   1   40.04    9.67
  -9   2   2   50.82   10.18
  -9  -2   2   60.22   13.27
   9   2   2   49.42   11.07
  -9  -2  -2   38.61    5.62
  -9   2  -2   41.59    7.96
  -9   2   3   36.08    8.27
  -9  -2   3   47.48   12.39
   9   2   3   42.47   10.36
  -9   2  -3   32.96    7.40
  -9  -2  -3   31.15    7.56
  -9  -2   3   35.39    4.73
  -9   2   4   31.11    7.13
  -9  -2   4   35.83   10.55
   9   2   4   49.94   11.04
  -9   2  -4   43.73    8.79
  -9  -2  -4   34.52   10.16
  -9  -2   4   35.45    5.98
  -9   2   5    2.54    1.81
  -9   2  -5   18.90    2.07
  -9  -2  -5    4.53    4.26
   9   2   5   20.32    8.60
  -9  -2   5    5.55    3.28
  -9  -2   5    3.97    4.38
  -9   2   6    2.24    1.83
  -9   2  -6   -1.78    3.13
  -9  -2   6    2.50    2.93
  -9  -2   6    3.71    3.19
  -9   2   7   10.93    3.24
  -9  -2   7   12.45    2.36
  -9   2  -7   12.00    3.56
  -9  -2   7    2.06    3.39
  -9  -2   7   12.54    5.35
  -9   2  -7   12.34    6.21
  -9   2   8    8.01    2.70
  -9  -2   8    3.37    5.29
  -9  -2   8   11.21    5.34
   9   2   8    7.98    4.38
   9   2   9   32.19    4.39
  -9  -2   9   47.05   11.82
   9   2   9   49.47   11.95
  -9  -2   9   46.33   11.40
   9   2  10   -9.95    6.54
  -9  -2  10   -9.77    6.75
  -9  -2  10    8.99    6.29
   9   2  10    3.79    4.43
   9   2  11   -7.46    4.82
  -9  -2  11  -12.11    7.75
  -9  -2  11    1.85    4.35
   9   2  11   -0.37    2.60
   9   2  12    0.40    2.10
  -9  -2  12    3.32    5.09
   9   2  12    0.75    4.72
   9   2  13   12.02    5.54
  -9  -2  13   13.53    8.19
   9   2  13   13.79    8.60
  -9   2  14   -5.74    9.15
   9   2  14    8.23    5.27
  -9  -2  14   13.59    9.45
   9   2  14    6.24    4.86
  -9   2  15   -4.85    8.03
  -9  -2  15   15.90   10.61
   9   2  15    6.19    6.40
  -9  -2  16   19.68   10.83
   9   2  16   18.56   10.14
  -9   2  16   11.97    5.81
  -9   2  17   14.78    8.58
  -9  -2  17    4.88    3.31
  -9  -2  17   20.91   11.33
   9   2  17   17.70    9.43
  -9  -2  18    3.57    4.60
  -9   2  18   -4.29    6.22
  -9  -2  18  -12.39   12.86
   9   2  18    1.18    4.59
  -9   2  19    8.71    7.03
  -9  -2  19   -0.09    4.57
  -9  -2  20  -16.61   11.20
  -9   2  20    6.22    9.35
  -9  -2  20    5.64    7.06
  -9  -2  21    2.76    5.94
  -9   2  21    4.06    7.81
  -9  -2  21  -13.15   12.40
  -9  -2  22  -13.64   14.14
  -9  -2  22    6.33    9.21
  -9   2  22    9.71    9.53
  -9   2  23    0.66    1.40
  -9  -2  24   -9.65   12.96
 -10   2   0   28.20    8.80
 -10  -2   0   79.17   14.82
 -10   2   1    2.34    2.99
  10   2   1   -8.01    4.90
 -10   2   2   19.73    6.89
 -10  -2  -2    7.06    7.26
  10   2   2   12.34    4.77
 -10   2  -2    9.80    3.26
 -10   2   3    7.23    3.68
 -10  -2  -3    0.74    4.88
 -10  -2   3   18.68    9.55
 -10   2  -3    7.26    3.94
 -10  -2   3    8.17    2.37
  10   2   3    5.57    4.14
 -10   2   4    1.42    1.69
 -10  -2  -4    2.01    4.17
 -10   2  -4    9.80    5.68
 -10  -2   4    2.72    2.27
  10   2   4    6.81    5.26
 -10  -2   4    5.88    6.32
 -10   2   5    8.36    3.43
 -10  -2  -5    8.61    5.65
 -10   2  -5   29.89    5.42
 -10  -2   5   10.79    7.19
 -10  -2   5    8.94    3.67
  10   2   5   17.06    7.37
 -10   2   6   10.09    3.74
 -10   2  -6    3.52    4.26
  10   2   6   15.47    9.04
 -10  -2  -6   11.16    5.62
 -10  -2   6   12.64    4.83
 -10   2  -6   11.46    5.73
 -10  -2   6   12.53    6.32
 -10   2   7    4.32    2.28
 -10   2  -7    8.15    4.09
 -10  -2   7    6.34    4.37
 -10  -2   7   -2.30    3.07
 -10   2   8   17.46    4.30
 -10  -2   8   11.80    5.99
 -10  -2   8   20.07    6.83
 -10   2   9   22.74    4.61
  10   2   9    5.80    3.73
 -10  -2   9   14.48    5.41
 -10  -2   9   21.13    7.66
 -10  -2  10   -3.33    6.37
 -10  -2  10    3.07    3.51
 -10  -2  11   -7.44    9.69
 -10  -2  11    3.00    4.56
 -10  -2  12  -12.94    8.56
 -10  -2  12    5.36    6.24
  10   2  13   -2.67    6.93
 -10  -2  13  -15.37    9.59
 -10   2  14   -3.85    7.29
 -10  -2  14   12.79    9.17
 -10   2  15   -6.30    7.55
 -10  -2  15   10.81    9.60
 -10   2  16   -5.08    6.40
 -10  -2  16    6.01    5.38
 -10  -2  17    2.78    3.53
 -10   2  17   -2.44    5.70
 -10  -2  17   -5.52    9.46
 -10   2  18   -8.21    9.48
 -10  -2  18    1.07    4.89
 -10  -2  18   -6.43   10.92
 -10  -2  19    3.55    5.29
 -10   2  19   -0.31    2.93
 -10  -2  20  -11.67   13.68
 -10   2  20    5.73    6.37
 -10  -2  20    7.83    8.03
 -10  -2  21   -6.50   14.01
 -10  -2  21    5.97    6.82
 -10   2  21   16.88   12.20
 -10  -2  22    1.04    3.53
 -10   2  22    0.89    4.43
 -10  -2  23  -19.15   12.94
 -10   2  23    9.39   13.12
 -10  -2  24  -18.12   12.81
 -11   2   0  152.76   21.52
 -11  -2   0  185.84   22.15
 -11   2   1  152.02   21.47
 -11  -2  -1  115.30   14.67
 -11  -2   1  157.20   21.82
 -11   2  -1  123.75   17.88
 -11   2   2   21.75    7.41
 -11  -2   2   30.27   12.32
 -11  -2  -2    1.88    9.59
 -11   2  -2   17.33    5.84
 -11   2   3    0.28    0.91
 -11  -2  -3   -4.56    6.08
 -11   2  -3    3.34    4.57
 -11   2   4   15.04    5.63
 -11  -2  -4   14.38    6.28
 -11  -2   4   25.21   11.23
 -11   2  -4   26.53    8.74
 -11  -2   4   17.18    4.02
  11   2   4   10.28    3.80
 -11   2   5   21.72    6.34
 -11   2  -5   40.71    7.10
 -11  -2  -5   24.40   10.16
 -11  -2   5   25.49    5.87
 -11  -2   5   25.90   11.18
  11   2   5   23.34    7.82
 -11   2   6   19.67    5.53
 -11   2  -6    9.74    3.22
  11   2   6   26.75    9.61
 -11  -2  -6   22.63    7.50
 -11  -2   6   24.57    6.52
 -11   2  -6   22.22    7.89
 -11  -2   6   23.24    9.37
 -11   2   7   29.17    6.45
  11   2   7   40.39   10.77
 -11   2  -7   33.88    7.44
 -11  -2   7   34.42    8.33
 -11  -2   7   33.55   11.75
 -11  -2   8   15.74    2.71
 -11   2   8   17.66    4.60
 -11  -2   8   13.95    2.72
  11   2   8   20.17    9.24
 -11   2  -8   16.76    4.47
 -11  -2   8   14.61    7.27
 -11  -2   8   16.91    7.34
 -11   2   9   52.02    7.34
  11   2   9   66.95   13.14
 -11  -2   9   42.24   13.54
 -11  -2   9   50.96   11.66
 -11  -2  10   17.87    6.49
 -11  -2  10   16.60    7.37
 -11  -2  11   -6.13    8.97
 -11  -2  11    1.95    3.76
  11   2  12    0.43    6.23
 -11  -2  12    8.31    3.92
 -11  -2  12   18.26    9.56
 -11  -2  13   -4.82    9.98
 -11  -2  13   18.23   10.03
 -11   2  14    4.56    4.49
 -11  -2  14   18.49   10.14
 -11   2  15   -6.19    9.20
 -11  -2  15    6.73    7.70
 -11  -2  16    2.51    1.24
 -11  -2  16   22.05   11.70
 -11   2  16   14.96    5.63
 -11   2  17   11.87    7.22
 -11  -2  17   -0.42    8.00
 -11  -2  17   10.19    7.95
 -11  -2  18  -10.72   12.78
 -11   2  18   -6.00    6.34
 -11  -2  18    1.58    4.11
 -11  -2  19    2.34    4.40
 -11   2  19   -2.16    1.73
 -11  -2  20  -13.23   15.09
 -11   2  20    1.77    6.28
 -11  -2  20    7.53    8.35
 -11  -2  21  -22.64   13.98
 -11  -2  21   10.69   10.47
 -11   2  21    4.52    9.60
 -11  -2  22  -12.84   10.68
 -11   2  22    7.50   10.14
 -11  -2  22    6.11    8.00
 -11   2  23    3.13    7.20
 -11  -2  23  -19.95   13.54
 -12  -2   0   47.85   13.29
 -12   2   0   -5.30    7.12
 -12   2   1   16.42    7.26
 -12   2  -1   10.40    3.21
 -12   2   2    7.53    3.76
 -12   2  -2    8.59    4.62
 -12   2   3    1.73    1.83
 -12  -2  -3   -4.54    7.42
 -12   2  -3    9.93    6.03
 -12  -2   3   14.16   10.46
 -12   2   4    0.59    1.08
 -12   2  -4   11.95    7.88
 -12  -2  -4    0.66    2.20
 -12  -2   4    1.52    1.73
 -12  -2   4    9.65    8.35
 -12   2   5    3.90    3.33
 -12  -2  -5   16.16    9.24
 -12   2  -5   15.78    3.96
 -12  -2   5    6.11    3.41
 -12  -2   5    4.71    6.72
 -12   2   6    1.33    1.27
 -12  -2  -6    7.28    6.80
 -12  -2   6    5.37    3.67
 -12  -2   6    1.47    4.12
 -12   2   7    2.00    1.83
 -12  -2  -7    3.51    3.11
 -12   2  -7    3.26    2.82
 -12  -2   7    5.61    4.68
 -12  -2   7   -0.23    3.73
 -12   2   8   -0.42    0.32
 -12  -2   8   -0.43    0.69
 -12   2  -8    3.47    3.54
 -12  -2   8    3.49    3.95
 -12  -2   8   -1.16    6.68
 -12   2   9   16.19    4.39
 -12  -2   9   15.63    6.91
 -12  -2   9   18.93    7.58
  12   2  10   10.77    7.58
 -12  -2  10   -1.23    7.30
 -12  -2  10    2.66    4.10
  12   2  11   13.24    8.27
 -12  -2  11    5.54    5.06
 -12  -2  11   -5.54    7.64
 -12  -2  12    2.64    5.23
 -12  -2  12  -10.10   12.60
 -12  -2  13   -9.51   14.51
 -12  -2  13    7.19    6.74
 -12  -2  14    5.78    7.43
 -12   2  15   -1.74    7.74
 -12  -2  15  -13.04    9.88
 -12  -2  15    6.48    7.75
 -12   2  16    0.87    3.88
 -12  -2  16    3.76    6.59
 -12  -2  17   -4.71   11.27
 -12   2  17    5.84    1.68
 -12  -2  17    7.81    6.51
 -12   2  18   -3.26    6.85
 -12  -2  18   -8.83    8.58
 -12  -2  18    1.68    4.77
 -12   2  19    3.52    2.06
 -12  -2  19    3.18    7.32
 -12   2  20    2.41    2.87
 -12  -2  20    3.42    7.33
 -12   2  21    2.33    6.68
 -12  -2  21    3.99    5.87
 -12  -2  22  -14.30   11.57
 -12   2  22   -0.46    2.38
 -12   2  23   11.22   13.31
 -12  -2  23   -8.66   11.45
 -13  -2   0   53.48   12.11
 -13   2   0   11.73    2.96
 -13  -2  -1   14.34    9.01
 -13   2  -1   24.77    6.91
 -13  -2   2   26.72   12.37
 -13   2  -2   14.68    6.90
 -13   2   3    2.76    2.43
 -13  -2   3   20.39   12.51
 -13   2  -3   13.45    7.90
 -13   2   4    3.09    2.95
 -13   2  -4   16.62    9.23
 -13  -2  -4    3.37    4.46
 -13  -2   4    4.79    2.00
 -13  -2   4   12.17   10.15
 -13   2   5   24.47    7.75
 -13  -2  -5   31.62   11.53
 -13   2  -5   12.05    4.88
 -13  -2   5   24.51    5.41
 -13  -2   5   31.11   12.70
 -13   2   6   17.52    5.77
 -13   2  -6   -0.26    8.29
 -13  -2  -6   40.26   12.10
 -13  -2   6   25.77    6.40
 -13  -2   6   23.82   11.33
 -13   2   7   18.14    5.61
 -13  -2  -7   23.08    8.70
 -13   2  -7   20.37    5.88
 -13  -2   7   21.09    6.24
 -13  -2   7   20.79   10.38
 -13   2   8    9.94    3.93
 -13  -2   8    9.23    2.97
 -13   2  -8   22.94    7.02
 -13  -2   8   12.97    6.15
 -13  -2   8    8.51    5.78
 -13   2   9   40.35    7.24
 -13  -2   9   41.51   10.40
 -13  -2   9   36.39   13.64
 -13  -2  10    6.90    5.47
 -13  -2  10   -0.96    5.56
 -13  -2  11   -3.51    7.32
 -13  -2  11    4.85    5.82
 -13  -2  12   -8.63    7.72
 -13  -2  12   10.98    7.71
 -13  -2  13   14.14    9.61
 -13  -2  13   -5.45   11.28
 -13   2  14   -3.43    7.55
 -13  -2  14   -4.31    7.77
 -13  -2  14    5.54    7.06
 -13   2  15   -5.91    8.49
 -13  -2  15  -14.13   10.59
 -13  -2  15    3.94    6.36
 -13   2  16   -0.67    5.90
 -13  -2  16    4.55    4.86
 -13  -2  17   -0.42    6.71
 -13  -2  17    3.70    6.51
 -13   2  17   -0.12    2.31
 -13  -2  18   11.68    9.68
 -13   2  18    1.10    0.83
 -13  -2  19   -2.47    9.50
 -13   2  19   -0.40    3.37
 -13  -2  19    2.67    5.78
 -13   2  20    6.75    8.44
 -13  -2  20    6.00    8.21
 -13  -2  20  -15.19   11.91
 -13   2  21   10.96    9.84
 -13  -2  21    7.49    8.18
 -13  -2  21   -3.89   10.94
 -13  -2  22  -14.35   11.86
 -13   2  22    7.44    9.15
 -13   2  23    1.17    6.22
 -14  -2   0   18.53    4.80
 -14   2   0    1.30    6.65
 -14   2   1   12.20    3.79
 -14   2  -1   28.69    9.50
 -14  -2   2   26.11   13.15
 -14   2  -2    6.20    6.21
 -14  -2   3   22.99   13.35
 -14   2  -3   13.25    7.71
 -14   2   4    1.53    2.43
 -14  -2  -4    3.52    4.41
 -14  -2   4   12.09   10.40
 -14   2   5   43.29   10.82
 -14  -2   5   54.54   16.89
 -14  -2  -5   54.47   14.53
 -14  -2   5   43.27    6.65
 -14   2   6    1.75    1.94
 -14  -2  -6   15.92    9.28
 -14  -2   6    8.39    7.50
 -14  -2   6    2.82    2.65
 -14   2   7    7.17    3.82
 -14  -2  -7   13.81    7.26
 -14   2  -7    3.38    0.61
 -14  -2   7    9.49    7.92
 -14  -2   7    9.85    5.13
 -14   2   8    2.24    1.08
 -14  -2   8    4.03    4.00
 -14  -2   8    2.87    3.76
 -14  -2   9   17.35    7.37
 -14  -2   9    7.96    6.67
 -14  -2  10    5.84    5.73
 -14  -2  10    0.14    2.17
 -14  -2  11    5.47    6.55
 -14  -2  11   -2.67    3.72
 -14  -2  12   10.17    7.49
 -14  -2  12  -11.18    9.08
 -14   2  13    0.32    6.51
 -14  -2  13   15.76    9.72
 -14  -2  13   -0.62    6.86
 -14   2  14   -7.74    9.29
 -14  -2  14  -12.77   13.03
 -14  -2  14    0.20    4.52
 -14   2  15   -4.26    8.17
 -14  -2  15   -0.89    3.30
 -14  -2  15    5.02    5.76
 -14   2  16   -5.99    8.56
 -14  -2  16   -1.81    3.68
 -14  -2  16   -4.63    8.83
 -14   2  17    3.51    2.46
 -14  -2  17    6.39    7.87
 -14  -2  18    4.65    5.11
 -14   2  18   -6.51    7.84
 -14   2  19    0.19    4.37
 -14  -2  19    4.61    4.86
 -14  -2  19   -7.88   12.28
 -14   2  20    3.60    8.17
 -14  -2  20  -19.44   13.81
 -14   2  21    3.89    4.44
 -14  -2  21  -21.27   14.61
 -14   2  22   10.73   11.88
 -15   2   0   -3.09    5.52
 -15   2   1   -3.15    5.70
 -15   2  -1   -0.21    3.37
 -15  -2  -2  -22.36   13.24
 -15   2   2  -13.76    7.89
 -15   2  -2    7.45    7.05
 -15   2  -3   26.71   11.44
 -15  -2  -3   -6.62    9.49
 -15  -2   3   32.59   15.73
 -15   2   3    0.55    6.17
 -15  -2  -4   11.65    7.14
 -15  -2   4   22.02   12.85
 -15   2   5   47.71   11.92
 -15  -2  -5   60.24   15.04
 -15  -2   5   62.80   18.22
 -15   2   6    1.38    1.68
 -15  -2  -6   13.04   10.56
 -15  -2   6    1.39    2.04
 -15  -2   6    8.61   10.91
 -15   2  -7    3.22    1.74
 -15  -2  -7    6.44    5.75
 -15  -2   7    4.50    3.42
 -15  -2   7    6.12    6.42
 -15   2  -8    7.44    5.57
 -15  -2   8    2.40    2.65
 -15  -2   8    3.78    7.00
 -15   2  -9   10.53    4.20
 -15  -2   9   19.09   11.55
 -15  -2   9   14.29    6.43
 -15  -2  10    4.84    4.56
 -15  -2  10    1.41    4.92
 -15  -2  11    5.59    6.87
 -15  -2  11    0.11    2.22
 -15  -2  12   -2.26    6.71
 -15  -2  12    5.26    5.76
 -15   2  13   -4.84    9.08
 -15  -2  13  -11.94    9.91
 -15  -2  13    2.86    5.48
 -15   2  14   -6.87    8.47
 -15  -2  14   -1.05    0.90
 -15  -2  14   -6.01    7.20
 -15   2  15   -7.12    8.69
 -15  -2  15    1.93    3.44
 -15  -2  15    3.44    7.68
 -15   2  16   -8.39    9.45
 -15  -2  16   -8.46    8.86
 -15  -2  17    2.58    5.26
 -15   2  17    8.31    6.95
 -15   2  18    0.87    1.65
 -15  -2  18  -24.31   15.47
 -15   2  19    1.69    4.03
 -15  -2  19   -3.22   10.66
 -15   2  20    2.07    6.67
 -15   2  21    5.29    8.54
 -16   2   0    2.06    4.67
 -16   2   1    9.83    3.58
 -16   2  -1   20.94   10.17
 -16   2   2   -6.40    7.72
 -16   2  -2   15.23    9.91
 -16  -2  -3   54.84   11.47
 -16   2  -3   91.75   18.48
 -16  -2   3   81.72   20.33
 -16   2   3   53.22   14.51
 -16  -2   4   32.61   15.70
 -16   2  -4   60.28   15.06
 -16   2   4  -16.85    9.56
 -16  -2  -5    7.86    5.79
 -16  -2   5   24.61   13.19
 -16  -2  -6   20.75   10.60
 -16   2  -6  -15.79   10.63
 -16  -2   6   13.09   10.88
 -16   2  -7    9.69    4.67
 -16  -2  -7    4.92    5.13
 -16  -2   7   13.51   11.34
 -16   2  -8   14.95    7.42
 -16  -2  -8   -0.21    4.37
 -16  -2   8   15.20   12.62
 -16  -2   9   15.69   12.80
 -16  -2  10    4.98    8.51
 -16  -2  11    9.06   10.25
 -16  -2  12    1.97    6.87
 -16   2  13   -3.05    7.21
 -16  -2  13    1.67    2.66
 -16   2  14   -4.36    9.35
 -16  -2  14   -7.39    8.17
 -16   2  15   -2.61    6.02
 -16  -2  15    2.36    5.40
 -16   2  16    2.50    1.81
 -16  -2  16  -10.65   10.20
 -16  -2  17    0.02    2.13
 -16   2  17    3.29    5.04
 -16   2  18   -0.21    2.56
 -16  -2  18  -11.18   10.71
 -17   2   0   13.03    8.92
 -17   2  -1   17.05   10.56
 -17   2   1    7.88    6.11
 -17   2  -2   13.90   11.30
 -17   2   2   -2.01    4.00
 -17   2  -3   44.45   14.26
 -17  -2   3   34.30   15.68
 -17  -2  -3   -6.59    8.32
 -17   2   3    1.54    7.51
 -17  -2   4   14.95   11.99
 -17  -2  -4    0.96    3.98
 -17  -2   5   23.06   15.70
 -17  -2  -5   13.63    8.81
 -17   2   5    1.04   10.68
 -17   2  -6  -13.48    8.59
 -17  -2  -6   16.87   10.10
 -17   2   6  -11.33   16.37
 -17  -2   6   19.54   12.94
 -17  -2  -7    2.06    4.01
 -17   2  -7    0.81    2.46
 -17  -2   7    6.79   10.47
 -17   2  -8   17.82    7.75
 -17  -2  -8   10.14    7.11
 -17  -2   8   19.35   14.38
 -17  -2   9    5.89   11.14
 -17  -2  10   10.13   11.32
 -17  -2  11   10.22    8.23
 -17   2  12   -5.48    9.97
 -17  -2  12    3.10    7.64
 -17   2  13    4.11    5.02
 -17  -2  13    4.24    4.45
 -17  -2  14   -0.15    1.49
 -17  -2  15   -3.44    8.72
 -17  -2  16   -1.93    5.01
 -17  -2  17   -4.82   10.56
 -18   2   0    2.73    6.06
 -18   2   1   11.33    8.13
 -18   2  -1   21.80   11.97
 -18  -2   2   45.17   16.72
 -18  -2  -2  -16.76   13.19
 -18   2  -2   23.01   12.26
 -18   2   2    3.25    3.41
 -18  -2  -3   -2.17    6.44
 -18   2   3   -4.02    8.15
 -18  -2  -4   11.77    7.54
 -18   2   4   -0.88    7.49
 -18  -2  -5   81.33   18.79
 -18   2  -5   36.95    8.78
 -18  -2   5   80.60   23.15
 -18   2   5   48.71   14.87
 -18   2  -6   -9.32    8.65
 -18  -2   6   26.75   15.33
 -18  -2  -6    8.96    7.77
 -18   2   6   -6.20   12.51
 -18  -2  -7    3.23    4.25
 -18   2  -7    6.96    4.23
 -18   2   7   -6.98   12.07
 -18  -2  -8    3.59    4.40
 -18   2   8   -5.47   12.74
 -18  -2   8   18.82   13.58
 -18   2   9  -24.01   13.79
 -18  -2   9   18.71   13.65
 -18  -2  10   12.23   11.99
 -18  -2  11   11.17   11.46
 -18  -2  12    2.34    5.83
 -18  -2  13    5.05    9.71
 -18  -2  14    2.77    7.25
 -18  -2  15    9.72    9.87
 -18  -2  16    4.74    8.74
 -19   2   0    9.19    9.25
 -19   2  -1   21.51   12.56
 -19   2   1    6.10    7.21
 -19  -2   2   32.99    1.40
 -19   2  -2   35.52   14.25
 -19  -2   3   68.30   19.98
 -19   2  -3   60.67   16.81
 -19  -2  -3   11.44    7.50
 -19   2   3   17.99    8.18
 -19  -2  -4    9.89    7.54
 -19   2   4   -2.03    5.08
 -19  -2  -5   14.07   10.92
 -19   2   5    5.02    1.38
 -19  -2   6   22.85   16.89
 -19   2  -6  -12.02    8.56
 -19  -2  -6   10.36    8.65
 -19   2   6   -4.39    8.56
 -19  -2  -7   11.11    8.43
 -19  -2   7   21.33   15.84
 -19   2   7    0.25    8.53
 -19  -2  -8    3.41    3.60
 -19   2   8   -7.20   12.62
 -19   2   9  -23.66   13.94
 -19  -2   9    9.52    9.70
 -19   2  10   -7.85   13.33
 -19  -2  10   12.07   12.92
 -19  -2  11    3.29    8.44
 -19  -2  12   12.20   11.73
 -19   2  13  -16.27   16.84
 -19  -2  13    6.23   10.36
 -19  -2  14    8.33   11.97
 -20   2   0   10.13    9.22
 -20   2  -1   12.46   12.07
 -20   2   1    8.47    8.83
 -20  -2  -2  -16.45    9.73
 -20   2   2    5.09    6.20
 -20  -2  -3   -2.84    6.31
 -20   2  -3    3.88    8.21
 -20   2   3    2.55    5.40
 -20  -2  -4    1.51    5.62
 -20   2   4   -0.13    3.65
 -20   2  -5  -21.65   12.65
 -20   2   5   -5.18    7.42
 -20  -2   6   27.16   16.61
 -20  -2  -6    8.21   10.27
 -20   2   6   -1.76    6.93
 -20  -2  -7    6.27    6.51
 -20  -2   7   14.47   15.60
 -20   2   7   -7.15   10.48
 -20  -2  -8    6.59    6.10
 -20  -2   8   21.16   15.80
 -20   2   8   -6.73   11.60
 -20  -2   9    9.45   11.18
 -20   2  10  -17.18   12.33
 -20  -2  10   16.94   15.67
 -20  -2  11   25.37   15.06
 -20   2  12  -23.44   19.40
 -20  -2  12   10.67   14.10
 -20   2  13  -23.63   15.40
 -20  -2  13   19.02   16.28
 -21   2   0   20.05   13.13
 -21   2  -1   30.05   13.98
 -21   2   1   14.55   13.45
 -21  -2  -2   -9.52    8.90
 -21   2   2    9.05   10.40
 -21  -2   3   -8.50    7.42
 -21  -2  -3    1.54    3.98
 -21   2   3    6.70    8.03
 -21  -2  -4    8.04    6.67
 -21   2   4    4.19    7.04
 -21  -2  -5    3.73    9.27
 -21   2   5   -2.67    5.06
 -21  -2  -6   23.35   12.72
 -21  -2   6   41.55   18.77
 -21   2   6    2.74    3.44
 -21  -2  -7    4.56    6.62
 -21   2   7    0.90    3.36
 -21  -2   8   28.74   17.18
 -21   2   8   -6.21   11.13
 -21  -2   9   17.48   14.97
 -21   2   9   -2.42    8.34
 -21  -2  10   19.73   14.49
 -21  -2  11   12.61   13.50
 -21   2  11  -12.42   14.99
 -21   2  12  -22.92   15.08
 -22   2   0   36.10   16.27
 -22   2   1   21.14   15.89
 -22   2  -1   48.69   17.44
 -22  -2  -1  -11.69   11.85
 -22  -2  -2   -0.84    2.80
 -22   2   2   14.22   12.16
 -22  -2  -3    3.80    5.13
 -22   2   3   13.05   10.68
 -22  -2   4   21.50    3.50
 -22  -2  -4   15.91   10.98
 -22   2   4    3.43    6.34
 -22  -2  -5   17.83   11.52
 -22   2   5    1.83    4.14
 -22  -2  -6   15.66   12.32
 -22   2   6    2.71    4.63
 -22  -2   7   39.74   20.38
 -22   2   7   -3.28    7.04
 -22  -2   8   42.59   20.16
 -22   2   8   -1.67    6.98
 -22  -2   9   35.32   19.98
 -22   2   9   -2.50    8.34
 -22  -2  10   27.25   19.38
 -22   2  10   -1.73    6.93
 -23   2   0   36.42   16.68
 -23  -2   0  -22.05   12.52
 -23   2   1   23.05   13.88
 -23   2  -1   45.58   13.87
 -23   2   2   21.21   16.39
 -23  -2  -2   -7.69    7.22
 -23   2   3   11.67   12.23
 -23  -2  -3    7.53    9.73
 -23  -2  -4   13.63   10.72
 -23   2   4    6.91    8.78
 -23  -2  -5   28.33   13.54
 -23  -2   5   17.99    8.29
 -23   2   5    7.49    7.75
 -23  -2   6   53.04   22.10
 -23   2   6    5.67    8.39
 -23  -2   7   45.52   21.64
 -23   2   7    2.26    1.81
 -23  -2   8   34.67   20.27
 -23   2   8    0.68    2.86
 -23   2   9   -0.13    5.01
 -24   2   0   55.02   19.94
 -24  -2   0  -11.53   12.58
 -24  -2  -1  -10.76   10.13
 -24  -2   1  -32.16   18.57
 -24  -2  -2    7.70    7.83
 -24   2   2   29.71   15.53
 -24  -2  -3   13.02   11.38
 -24   2   3   18.58   13.38
 -24  -2  -4   24.69   13.40
 -24   2   4   17.86   12.83
 -24   2   5   11.82   10.69
 -24  -2   6   26.07    5.14
 -24   2   6    8.74   11.37
 -24   2   7    2.01    8.32
 -25  -2   0   -9.73    9.72
 -25  -2   1  -17.43   13.00
 -25  -2  -1   -0.43    5.05
 -25   2   2   29.98   16.13
 -25  -2  -2   15.42   11.25
 -25   2   3   28.89   15.41
 -25  -2  -3   15.53   14.38
 -25   2   4   18.18   13.04
 -25   2   5   17.88   14.99
 -26  -2   0    1.80    3.44
 -26  -2  -1   -1.38    2.28
 -26  -2   1  -23.93   14.28
 -26   2   2   48.61   19.37
 -26  -2  -2   18.74   13.06
 -26   2   3   41.66   18.57
   0   3   0    0.23    0.69
   0  -3   0   -1.15    1.45
   0  -3   1  386.36   19.29
   0  -3  -1  405.83   19.82
   0   3  -1  411.39   19.15
   0   3   1  401.77   19.89
   0   3  -1  401.23   18.21
   0  -3  -2   -0.03    0.61
   0   3  -2    2.03    2.04
   0   3  -2   -0.09    0.46
   0  -3   2    0.06    0.98
   0   3  -3 1854.39   42.97
   0  -3  -3 1873.57   46.62
   0  -3   3 1856.03   45.56
   0   3  -3 1899.19   41.48
   0  -3   3 1833.63   38.21
   0  -3   4   -0.47    0.59
   0   3  -4   -0.03    1.11
   0   3  -5 1188.64   38.51
   0  -3   5 1146.17   39.14
   0  -3   5 1172.69   32.77
   0   3  -5 1183.31   36.10
   0   3  -6    0.01    0.52
   0   3  -6    0.35    2.60
   0   3  -7   16.62    5.00
   0  -3   7   30.04    6.46
   0   3  -7   18.78    7.17
   0   3  -8    1.18    1.74
   0   3  -8    3.32    4.46
   0  -3   8    0.79    2.08
   0   3  -9    0.68    1.14
   0  -3   9    0.84    1.61
   0   3 -10    0.01    0.88
   0  -3  10   -4.03    4.09
   0   3 -11  114.68   15.29
   0  -3  11  113.11   14.59
   0   3 -12    0.27    1.60
   0   3  12   -6.09    8.58
   0  -3  12   -2.43    4.69
   0   3 -13  236.87   23.33
   0  -3  13  249.25   23.98
   0   3  13  252.28   33.68
   0   3 -14   -0.60    1.62
   0   3  14   -4.85    7.45
   0  -3  14   -5.16    6.96
   0   3  15   -9.02    9.11
   0  -3  16   -5.47    5.47
   0   3  16   -4.27    7.11
   0  -3  17   88.21   15.70
   0   3  17   83.77   22.71
   0  -3  18   -8.15    7.02
   0   3  18    0.45    2.19
   0   3  19   -0.42    1.83
   0  -3  19   -7.29    6.91
   0   3  20    6.40    9.21
   0   3  21   15.26   12.18
   0   3  22    2.72    7.86
   0   3  23    3.20    8.61
   0   3  24   11.70   13.50
  -1  -3   0    0.01    0.45
  -1   3   0    0.46    1.09
   1   3   0    0.11    0.56
   1  -3   0    0.46    0.43
  -1   3  -1   75.56    8.71
   1  -3  -1   81.91    8.87
  -1   3   1   78.84    8.62
  -1  -3  -1   79.28    9.28
  -1  -3   1   78.63    8.24
   1  -3   1   79.83    9.12
   1   3  -1   79.83    8.58
  -1  -3   1   79.86    8.62
   1   3  -1   75.05    9.11
  -1  -3   2   11.16    3.15
   1   3  -2   10.02    2.69
   1  -3  -2    9.85    2.76
  -1   3   2    9.96    3.21
  -1  -3   2   12.04    3.78
   1   3  -2   -0.94    4.65
   1  -3   2    9.74    3.36
  -1   3  -2   10.38    3.37
  -1  -3   3 1686.30   39.76
   1  -3  -3 1667.93   42.27
   1   3  -3 1606.43   39.61
  -1   3  -3 1682.32   33.67
  -1  -3   3 1711.04   43.05
   1  -3   3 1671.03   46.25
   1  -3  -4    9.51    3.30
  -1  -3   4   10.46    3.38
   1  -3   4    8.68    3.48
   1   3  -4    9.27    2.83
  -1   3  -4   10.08    3.86
   1  -3   4   12.62    3.12
  -1   3  -4   33.52    5.62
  -1  -3   4  -10.69    8.72
   1   3  -4   14.32    5.68
   1  -3  -5  100.23   11.35
   1   3  -5   94.79    9.77
  -1  -3   5   95.97   10.44
  -1   3  -5   96.67   11.85
  -1  -3   5  134.87   12.06
   1  -3   5   96.06    7.66
  -1   3  -5   94.39    8.56
   1   3  -5   94.34   11.19
   1   3  -5  101.27   13.66
  -1   3  -6    0.69    0.53
   1   3  -6    1.03    1.15
  -1   3  -6    0.60    2.00
   1   3  -6    2.13    3.22
  -1   3  -7    7.09    3.74
   1   3  -7    7.25    2.77
  -1  -3   7   15.14    5.48
  -1   3  -7    6.62    4.43
   1   3  -7    9.10    5.04
   1   3  -8   -0.23    0.63
  -1   3  -8    0.77    1.51
   1  -3   8    5.85    3.93
  -1   3  -8    1.07    2.68
   1   3  -8    0.02    1.50
  -1  -3   8    1.26    2.39
   1   3  -9   19.30    5.48
  -1   3  -9   19.30    6.31
   1  -3   9   21.94    5.55
  -1  -3   9   16.77    4.86
   1   3  -9   18.14    7.40
  -1   3 -10    0.15    1.67
   1   3 -10    0.02    0.30
  -1  -3  10   -3.09    4.49
   1  -3  10   -0.38    2.25
  -1   3 -11    5.04    3.18
   1   3 -11    7.30    3.70
   1  -3  11    3.06    2.76
  -1  -3  11    5.03    1.42
  -1   3 -12   -0.22    2.17
   1   3 -12   -0.39    1.48
   1   3  12   -2.00    4.97
   1  -3  12   -2.24    3.74
  -1  -3  12   -4.57    6.22
   1   3 -13  202.73   20.60
   1  -3  13  205.64   20.09
  -1  -3  13  187.88   21.98
   1   3  13  212.54   30.24
  -1   3  13  201.09   30.29
   1   3 -14    0.46    1.41
  -1   3  14   -4.06    8.50
  -1  -3  14   -6.46    7.52
   1   3  14   -1.98    6.76
   1  -3  14   -3.60    5.10
   1   3 -15   -0.36    0.46
  -1   3  15   -4.91    8.39
   1  -3  15   -2.56    4.12
  -1  -3  15   -6.71    8.00
   1   3  15   -1.44    4.16
   1   3  16   -4.20    7.91
   1  -3  16   -3.50    4.63
  -1  -3  16   -5.58    6.73
  -1   3  16   -6.68    9.70
   1  -3  17   13.40    3.68
  -1  -3  17   11.11    4.28
  -1   3  17   23.96   11.50
   1   3  17   11.15    6.54
   1  -3  18   -5.83    5.31
  -1  -3  18   -7.15    6.89
   1   3  18    1.21    4.25
  -1   3  18   -1.18    6.00
  -1  -3  19   -8.02    8.96
  -1   3  19    0.26    1.58
   1   3  19   -0.29    2.50
   1  -3  19   -2.97    5.98
  -1   3  20    0.34    6.33
  -1  -3  20   -7.82    8.09
   1   3  20    5.06    5.94
   1   3  21    6.11    8.63
  -1   3  21    6.94    8.45
   1   3  22   11.12   12.38
  -1   3  22   10.90   11.65
   1   3  23    8.73   11.32
  -1   3  23    9.05   11.16
   1   3  24   14.07   16.53
  -1   3  24   10.46   11.65
  -2   3   0   13.44    3.81
  -2  -3   0   15.00    4.10
  -2  -3   0   10.00    3.05
   2   3   0   17.17    5.18
   2  -3   0   13.35    3.79
  -2  -3   1   66.65    7.85
  -2   3   1   68.96    8.35
   2  -3  -1   67.76    8.36
  -2   3  -1   65.40    8.63
  -2  -3   1   69.01    9.40
   2   3   1   69.11    8.84
   2   3  -1   60.32    7.51
   2  -3   1   69.35    9.28
   2   3  -2    4.26    2.04
  -2   3   2    3.08    1.54
  -2  -3   2    3.23    1.49
   2  -3  -2    4.45    2.09
  -2  -3   2   -3.91    5.79
  -2   3  -2    3.79    2.31
   2  -3   2    5.17    2.89
  -2   3   3  874.87   30.60
  -2  -3   3  868.17   27.08
   2   3  -3  877.11   26.93
   2  -3  -3  873.91   29.85
   2  -3   3  859.14   35.12
  -2   3  -3  879.54   34.95
  -2  -3   3  880.22   33.58
   2   3  -3  846.02   33.65
  -2   3  -3  869.40   20.91
  -2  -3   4   18.93    4.08
   2  -3  -4   16.72    4.36
   2   3  -4   18.44    3.82
  -2   3  -4   19.99    5.47
  -2   3  -4    9.21    2.38
   2   3  -4   15.98    4.96
   2  -3  -5  597.81   26.47
   2   3  -5  595.02   22.56
  -2   3  -5  603.41   31.55
  -2  -3   5  614.21   24.47
  -2  -3   5  594.02   28.46
  -2   3  -5  613.31   18.00
   2   3  -5  629.73   32.58
   2  -3  -6    3.55    2.40
  -2   3  -6    3.11    2.07
   2   3  -6    3.16    1.78
  -2  -3   6    1.87    1.18
   2  -3   6    1.28    0.40
   2   3  -6    6.98    4.56
   2  -3  -7    2.63    2.27
  -2   3  -7    1.32    1.58
   2   3  -7    1.88    1.05
   2  -3   7   -7.23    4.28
  -2  -3   7    4.96    4.40
   2   3  -7    3.40    3.63
  -2   3  -7    2.86    3.07
  -2   3  -8    0.79    0.63
   2   3  -8    1.29    1.40
  -2   3  -8    1.18    2.44
   2   3  -8    3.57    2.50
  -2  -3   8    0.11    1.36
  -2   3  -9  358.84   28.51
   2   3  -9  372.51   22.13
   2  -3   9  359.26   18.16
  -2  -3   9  358.52   27.23
   2   3  -9  350.03   31.72
  -2   3 -10    1.55    1.81
   2   3 -10    1.10    1.13
  -2  -3  10   -3.41    5.23
   2  -3  10    0.98    1.52
   2   3 -11   79.30   11.40
  -2   3 -11   80.19   14.25
   2  -3  11   73.30    9.46
  -2  -3  11   70.97   12.57
   2   3  11   76.27   16.22
   2   3 -12    1.77    2.01
   2   3  12   -1.19    4.78
   2  -3  12    0.79    2.15
  -2  -3  12   -1.43    5.03
   2   3 -13  176.36   18.23
   2  -3  13  172.02   16.86
  -2  -3  13  172.96   22.49
   2   3  13  182.00   28.26
   2   3 -14    1.98    2.06
  -2   3  14   -6.06    9.73
   2   3  14    2.42    1.05
   2  -3  14   -1.67    4.26
  -2  -3  14   -5.27    7.67
   2   3 -15    6.58    3.99
  -2   3  15    2.71    5.79
   2  -3  15    2.29    4.05
   2   3  15    8.87    6.04
  -2  -3  15    1.17    5.24
   2   3 -16   -0.60    2.27
   2  -3  16   -4.58    5.15
  -2  -3  16   -4.16    7.35
   2   3  16   -1.14    1.50
  -2   3  16   -5.34    8.74
   2  -3  17    7.18    1.34
  -2   3  17    8.72    3.41
  -2  -3  17   -0.43    4.74
   2   3  17   14.45    9.51
   2   3  18    4.54    5.78
   2  -3  18   -1.65    3.73
  -2   3  18    0.28    4.57
  -2  -3  18   -6.75    7.81
  -2  -3  19   -5.51    8.06
  -2   3  19    2.94    4.89
   2   3  19   11.31   10.27
  -2  -3  20  -13.63   11.04
  -2   3  20   -2.43    3.67
   2   3  20    9.67    9.25
  -2  -3  21    9.65    2.51
   2   3  21   22.83   14.30
  -2   3  21   19.63   13.01
  -2   3  22    6.66    9.93
   2   3  22   10.49   10.27
   2   3  23   16.40   14.49
  -2   3  23    5.41    9.89
   2   3  24   10.16   12.12
  -2   3  24   14.49   14.56
  -3   3   0   62.95    8.77
  -3  -3   0   71.80   10.23
   3   3   0   59.65    8.36
   3  -3   0   68.69    9.55
   3  -3  -1   23.53    5.19
  -3   3   1   22.50    5.10
  -3  -3   1   22.40    3.78
   3   3   1   31.18    6.81
  -3  -3  -1   25.66    5.63
   3   3  -1    1.35    9.09
  -3   3  -1   24.28    5.76
   3  -3   1   24.32    5.82
  -3  -3   2    0.70    0.98
  -3   3   2    0.53    1.20
  -3   3  -2   -0.14    0.96
   3  -3   2    0.37    0.52
   3  -3  -2    0.34    0.60
  -3  -3   3    8.86    2.76
   3   3  -3    9.43    3.07
  -3   3   3    8.50    2.88
   3  -3  -3    7.70    3.09
   3  -3   3    9.86    4.33
  -3   3  -3   10.66    4.68
   3   3   3    3.53    0.78
   3   3  -3   23.42    7.51
  -3   3   4    0.31    1.10
   3   3  -4    0.75    1.10
   3  -3  -4    0.51    0.98
  -3  -3   4    0.72    0.91
  -3   3  -4   -0.21    0.20
   3   3  -4   -1.89    2.59
   3   3  -4    2.11    2.13
   3  -3  -5    2.29    1.25
   3   3  -5    4.10    1.71
  -3   3  -5    4.16    2.70
  -3  -3   5    5.41    2.07
   3   3  -5    6.40    3.89
  -3  -3   6    2.19    1.62
  -3   3  -6    2.14    2.09
   3   3  -6    1.98    1.25
   3  -3  -6    1.69    1.27
   3   3  -6    2.21    2.55
  -3  -3   6    6.98    5.77
   3  -3  -7   22.26    5.36
   3   3  -7   22.77    4.31
  -3   3  -7   21.69    6.83
  -3  -3   7   28.33    7.85
   3   3  -7   22.65    7.01
  -3   3  -7   23.17    8.05
   3   3  -8    4.37    2.07
  -3   3  -8    2.99    2.52
   3  -3  -8    4.22    2.37
   3   3  -8    3.89    0.54
  -3   3  -8    6.21    5.66
  -3  -3   8    0.59    0.71
   3  -3  -9   36.56    7.51
   3   3  -9   35.86    6.13
   3  -3   9   60.73    5.15
  -3  -3   9   34.26    7.99
   3   3  -9   33.54    9.46
   3  -3 -10    2.78    1.67
   3   3  10   -4.32    7.07
   3   3 -10    1.97    1.25
   3  -3  10    9.80    3.78
  -3  -3  10   -0.77    4.05
   3   3 -11   59.18    8.70
   3  -3 -11   64.81   10.67
   3  -3  11   62.33    7.55
  -3  -3  11   57.35   11.60
   3   3  11   57.85   14.04
   3   3 -12    0.28    0.94
   3  -3  12    0.01    1.74
  -3  -3  12   -6.38    6.58
  -3  -3  12   -0.93    3.10
   3   3  12   -3.46    6.29
   3   3 -13   88.49   11.95
   3  -3  13   77.71    9.54
  -3  -3  13   74.02   14.23
  -3  -3  13   83.47   18.73
   3   3  13   80.95   18.34
   3   3 -14    1.09    0.98
  -3   3  14   -8.99   11.91
   3   3  14   -0.91    4.93
  -3  -3  14   -7.16    9.20
  -3  -3  14   -0.85    4.04
   3  -3  14   -2.64    3.34
   3   3 -15   32.71    7.84
  -3   3  15   24.23    7.19
  -3  -3  15   22.78    5.64
   3   3  15   32.38   13.16
   3  -3  15   28.88    5.89
   3   3 -16    9.93    4.48
  -3   3  16   -2.03    8.68
  -3  -3  16    0.44    5.74
   3   3  16   11.89    8.92
   3  -3  16    5.61    2.11
   3   3  17    9.68    8.53
  -3  -3  17   -5.90    8.72
  -3   3  17    5.44    1.79
   3  -3  17    2.52    3.35
  -3  -3  18   -5.96    8.72
   3   3  18    6.34    8.32
  -3   3  18   -4.14    7.66
  -3   3  19    0.70    3.37
  -3  -3  19   -9.97   10.99
   3   3  19    9.53    9.19
  -3  -3  20  -11.05    9.73
  -3   3  20    7.65    8.41
   3   3  20    4.46    8.00
  -3   3  21    5.67   10.10
   3   3  21    6.00   10.12
  -3  -3  21   -9.00    9.27
   3   3  22    9.83   12.64
  -3   3  22    5.35   10.25
   3   3  23   15.62   14.22
  -3   3  23    8.06   11.19
  -3   3  24   15.14   14.45
   3   3  24    7.69   10.57
  -4  -3   0   84.06   11.72
   4   3   0   62.42    6.66
  -4   3   0   79.58   10.51
   4  -3   0   86.72   11.29
  -4   3   1  136.08   12.91
   4   3   1  136.99   13.77
   4   3  -1  174.88   16.63
  -4  -3   1  117.61   12.26
  -4  -3  -1  140.94   14.73
  -4   3  -1  131.61   14.12
   4  -3  -1  135.50   13.78
   4  -3   1  128.32   14.30
  -4   3   2   23.72    5.27
   4  -3   2   22.29    5.94
  -4   3  -2   23.02    6.24
   4  -3  -2   24.22    5.59
   4   3  -2   40.99    9.77
   4   3   2   27.95    7.19
  -4  -3  -2   22.50    5.82
   4  -3  -3   49.47    7.61
  -4  -3   3   52.18    6.77
  -4   3   3   48.05    7.29
  -4   3  -3   47.08    9.35
   4   3   3   56.48    9.33
   4   3  -3   62.26   10.96
  -4  -3   3   92.48   13.94
   4   3  -3   53.51    7.46
  -4   3   4   -0.04    1.18
  -4  -3   4    0.35    0.77
  -4   3  -4    0.32    0.91
   4  -3  -4    0.53    0.40
   4   3   4    1.95    3.02
   4   3  -4    3.17    2.89
   4   3  -4   -1.05    3.78
  -4  -3   5  227.79   12.98
  -4   3   5  220.40   15.88
   4  -3  -5  227.47   16.08
  -4   3  -5  231.81   22.15
  -4  -3   5  229.21   20.95
   4   3  -5  227.99   18.66
  -4  -3   6    9.72    2.76
  -4   3  -6    7.11    4.08
   4  -3  -6    9.09    3.17
   4   3  -6    7.68    2.53
   4   3  -6    8.74    4.15
  -4  -3   6   18.75    7.16
   4   3  -7  153.00   10.56
   4  -3  -7  151.62   13.37
  -4  -3   7  148.63   11.23
  -4  -3   7  147.65   18.45
  -4   3  -7  142.75   19.94
   4   3  -7  147.69   17.57
   4   3   8    9.19    2.65
   4   3  -8   14.69    3.14
   4  -3  -8   14.64    4.52
   4   3  -8   12.07    4.31
  -4  -3   8   17.04    6.31
   4  -3  -9  117.36   12.66
   4   3  -9  118.57    9.73
  -4  -3   9  108.18   16.53
   4   3  -9  109.62   16.85
   4   3   9  106.17   17.64
   4   3 -10   11.66    3.29
   4  -3 -10   10.23    3.70
   4   3  10    8.14    4.55
  -4  -3  10    4.86    2.42
  -4  -3  10   11.84    6.77
   4  -3 -11    0.51    1.02
   4   3 -11    0.72    1.13
  -4  -3  11   -4.28    6.13
  -4  -3  11    1.40    3.69
   4   3  11   -2.95    4.69
   4  -3 -12    1.80    1.07
   4   3 -12    0.99    0.93
   4  -3  12    8.46    3.29
  -4  -3  12   -2.27    6.41
  -4  -3  12    1.29    3.78
   4   3  12    0.63    3.82
   4   3 -13   67.97    9.22
   4  -3 -13   63.96   10.95
   4  -3  13   67.92    7.56
  -4  -3  13   55.97   13.03
  -4  -3  13   51.97   14.55
   4   3  13   63.02   15.77
   4   3 -14    3.76    2.17
   4  -3 -14    4.50    3.87
   4  -3  14    3.98    1.87
   4   3  14    2.07    2.09
  -4  -3  14    3.35    5.18
   4   3 -15    7.32    3.21
   4  -3 -15    6.56    3.59
  -4   3  15    0.29    8.09
  -4  -3  15  -13.59    7.40
   4   3  15   11.30    8.04
  -4  -3  15   12.24    9.20
   4  -3  15    7.23    2.47
   4   3 -16    9.18    3.55
  -4   3  16    8.76    2.36
   4  -3 -16   10.84    4.97
  -4  -3  16   -3.52    8.87
  -4  -3  16   11.62    8.66
   4  -3  16   10.63    3.30
   4   3  16   15.33   10.92
   4  -3 -17    2.83    2.56
  -4  -3  17   -7.92   10.01
  -4   3  17   -4.26    7.18
   4   3  17    1.48    5.85
   4  -3 -18    1.25    2.48
  -4  -3  18   -7.52    8.88
   4   3  18    9.41   10.05
  -4   3  18   -3.24    7.08
  -4   3  19    2.79    1.89
  -4  -3  19   -9.09   10.16
   4   3  19    1.62    5.67
  -4  -3  20   -7.90    8.45
   4   3  20    8.97   10.94
  -4   3  20    8.39    7.11
  -4  -3  21    6.62    4.90
   4   3  21   33.23   17.70
  -4   3  21   25.31   14.19
   4   3  22    5.66    8.68
  -4   3  22    3.19    7.83
  -4  -3  22   -7.80    9.45
  -4   3  23    6.51    8.88
   4   3  23    8.37    9.65
   4   3  24    9.26   11.67
  -4   3  24    8.23   11.68
  -5  -3   0  137.63   15.49
   5   3   0  206.86   18.93
   5  -3   0  156.00   16.03
  -5   3   0  148.17   15.53
  -5  -3  -1   90.54   12.80
   5   3  -1  114.66   15.17
  -5  -3   1   75.03    8.48
   5   3   1   71.54    8.58
   5  -3  -1   91.39   11.91
  -5   3   1   90.19   11.44
  -5   3  -1   90.74   12.78
  -5   3   2   55.04    8.64
   5  -3  -2   56.29    8.94
  -5   3  -2   54.17   10.33
  -5  -3  -2   57.48   10.11
   5   3   2   46.41    7.58
  -5  -3   2   15.96    9.72
   5   3  -2   60.88   12.30
  -5   3   3   41.20    7.04
   5  -3  -3   40.40    7.29
  -5   3  -3   41.40    8.85
   5   3  -3   42.22    9.29
   5   3   3   37.88    8.22
  -5  -3  -3   41.67    7.43
   5   3  -3   41.04    6.32
  -5   3   4    2.00    1.73
  -5  -3   4    1.59    1.05
   5  -3  -4    1.67    1.49
  -5   3  -4    1.78    1.82
   5   3   4    3.45    3.81
   5   3  -4    2.04    2.09
   5   3  -4   -2.84    5.00
   5  -3  -5  203.90   15.75
  -5  -3   5  213.44   12.21
  -5   3   5  199.95   15.22
  -5   3  -5  213.55   22.52
  -5  -3   5  196.52   21.39
   5   3   5  191.51   18.12
   5   3  -5  202.83   17.29
  -5   3   6   13.84    4.17
   5  -3  -6   14.87    4.27
  -5  -3   6   12.95    2.90
   5   3   6   11.45    4.52
   5   3  -6   11.16    3.97
  -5  -3   6   16.88    7.26
   5  -3  -7   73.03    9.38
  -5  -3   7   73.65    7.18
  -5  -3   7   77.38   14.29
   5   3  -7   72.43   11.71
   5   3   7   68.62   11.79
   5  -3  -8   91.93   10.69
  -5  -3   8   90.78   15.37
   5   3   8   82.00   14.13
   5   3  -8   83.96   13.87
   5  -3  -9  139.16   13.28
   5   3  -9  136.75    9.35
  -5  -3   9  123.52   18.42
  -5  -3   9  130.51   19.33
   5   3   9  128.46   19.26
   5   3  -9  130.63   18.42
   5  -3 -10   43.31    7.89
   5   3 -10   45.23    5.39
  -5  -3  10   38.51    9.72
  -5  -3  10   49.74   12.89
   5   3  10   41.14   11.64
   5  -3 -11   10.01    3.72
   5   3 -11    9.38    2.42
   5   3  11    6.84    4.50
  -5  -3  11    3.61    5.36
  -5  -3  11    9.05    6.20
   5  -3 -12   -0.30    1.67
   5   3 -12   -0.51    0.98
   5   3  12    0.45    1.25
  -5  -3  12    0.32    2.10
   5  -3 -13    0.32    0.94
   5   3 -13    1.07    0.95
  -5  -3  13   -3.77    7.29
   5   3  13    0.26    2.27
  -5  -3  13    2.60    3.57
   5  -3 -14    4.81    2.84
   5   3 -14    7.03    2.65
   5   3  14   10.36    7.94
  -5  -3  14   -3.15    7.71
  -5  -3  14    2.56    2.65
   5   3 -15    4.63    2.34
   5  -3 -15    4.24    2.84
  -5   3  15   -7.09   12.41
   5  -3  15   24.77    4.13
  -5  -3  15   -3.54    8.48
  -5  -3  15    4.61    5.65
   5   3  15    8.81    6.70
   5  -3 -16   17.00    5.77
  -5   3  16    4.27    2.35
   5  -3  16   36.90    5.38
  -5  -3  16    4.12    7.19
   5   3  16   17.39   11.25
  -5  -3  16   17.81   11.01
   5  -3 -17   81.32   12.78
  -5  -3  17   51.95   15.08
  -5  -3  17   82.79   22.73
   5   3  17   78.29   22.31
  -5   3  17   72.53   20.69
  -5  -3  18    1.89    8.76
  -5   3  18    2.57    1.27
   5   3  18   16.22   11.21
  -5  -3  19  -10.37    9.96
   5   3  19    8.45   10.05
  -5   3  19   -3.05    6.79
  -5  -3  20   -8.43   10.17
   5   3  20    9.59   10.16
  -5   3  20    0.83    4.76
  -5  -3  21   -6.71    9.59
   5   3  21    9.63   11.75
  -5   3  21    5.30    6.67
   5   3  22    8.73   10.42
  -5  -3  22   -7.08   10.58
  -5   3  22    3.79    8.17
  -5   3  23    7.23   12.07
   5   3  23    4.06    5.94
  -5   3  24    6.33    9.34
  -6   3   0  133.20   15.51
  -6  -3   0  113.61   14.09
   6   3   0  149.57   17.55
  -6   3  -1  321.91   25.45
  -6   3   1  315.09   23.03
   6  -3  -1  317.67   23.61
   6   3  -1  306.69   26.83
  -6  -3   1  307.83   23.51
  -6  -3  -1  318.06   25.10
   6   3   1  354.10   26.64
  -6   3   2   14.04    4.71
  -6   3  -2   14.58    5.32
   6  -3  -2   14.23    4.74
  -6  -3  -2   18.04    6.55
   6   3   2   -7.45    9.34
   6   3  -2   12.28    2.71
   6   3  -2   15.64    6.60
  -6   3   3   22.94    5.45
   6  -3  -3   22.01    6.06
  -6   3  -3   22.56    6.86
  -6  -3  -3   21.15    6.93
   6   3  -3   21.47    6.37
   6   3  -3   21.56    4.26
   6   3   4   -3.79    3.75
  -6  -3   4    0.85    1.51
  -6   3  -4   -0.06    1.22
   6  -3  -4   -0.11    1.06
  -6   3   4    0.47    1.23
   6   3   4   -2.63    4.07
   6   3  -4   -0.83    2.35
  -6   3   5   21.34    5.09
   6   3   5   15.26    3.85
   6   3  -5   15.02    3.82
  -6  -3   5   19.80    3.81
   6  -3  -5   18.37    5.10
  -6   3  -5   19.83    3.33
  -6  -3   5   26.58   10.13
   6   3   5   25.34    7.36
  -6   3   6    9.09    3.25
   6   3  -6    4.85    3.00
  -6  -3   6   10.04    2.51
   6  -3  -6   10.33    3.67
   6   3   6   14.47    6.47
  -6  -3   6   16.36    8.65
   6   3   6    4.96    0.53
  -6   3   7    0.57    1.57
   6  -3  -7    0.06    1.14
  -6  -3   7    0.59    0.63
   6   3   7    5.25    4.38
   6   3   7   -2.67    4.48
  -6  -3   7    1.59    4.69
   6  -3  -8   59.81    8.77
   6   3   8   59.27   10.86
  -6  -3   8   59.54   13.27
  -6  -3   8   58.81   12.41
   6   3   8   56.90   11.88
   6  -3  -9  162.00   14.43
   6   3   9  164.06   18.23
  -6  -3   9  155.71   22.12
  -6  -3   9  155.26   20.65
   6   3   9  158.91   21.80
   6  -3 -10   22.10    5.39
  -6  -3  10   14.62    5.70
   6   3  10   24.51    8.73
  -6  -3  10   27.61    9.78
   6  -3 -11    2.54    1.81
  -6  -3  11   -1.89    5.07
   6   3  11    3.85    5.08
  -6  -3  11    2.10    3.75
   6  -3 -12    0.18    1.18
   6   3  12    0.76    1.71
  -6  -3  12   -4.39    6.78
  -6  -3  12    4.42    4.79
   6  -3 -13   40.79    7.80
  -6  -3  13   35.77   10.74
   6   3  13   47.05   14.35
  -6  -3  13   42.56   13.11
   6  -3 -14    6.50    3.23
  -6  -3  14   -2.95    6.96
  -6  -3  14    6.30    6.85
   6   3  14    9.34    6.48
   6  -3 -15    0.15    0.65
  -6   3  15  -10.49   11.89
   6   3  15    0.72    3.94
  -6  -3  15    3.75    6.42
  -6   3  16    0.85    7.08
   6  -3 -16    5.60    2.73
  -6  -3  16   -5.53   10.44
   6   3  16    9.55    8.12
  -6  -3  16    7.15    7.60
   6  -3 -17   54.26    9.71
  -6  -3  17   48.92   13.70
  -6  -3  17   64.01   19.96
   6   3  17   64.93   20.46
  -6   3  17   58.06   19.14
  -6   3  18    8.35    7.10
  -6  -3  18   -4.93    7.71
   6   3  18   17.51   12.63
  -6  -3  19   -8.21   11.44
   6   3  19   10.33   10.72
  -6   3  19   -8.50    9.55
  -6  -3  20  -11.53   10.83
  -6   3  20   -2.32    3.01
   6   3  20   10.76   11.75
  -6  -3  21   -0.80    6.03
  -6   3  21   14.49   11.07
   6   3  21   18.33   14.26
  -6   3  22    3.75    6.44
  -6  -3  22   -4.81    7.30
   6   3  22    4.31    8.31
   6   3  23    6.62    9.95
  -6   3  23    3.14    8.57
  -6  -3  23   -9.04   10.58
  -7   3   0  125.99   16.26
   7   3   0  148.14   18.83
  -7  -3   0  110.35   14.56
  -7   3  -1  196.92   20.78
  -7   3   1  192.48   18.89
  -7  -3  -1  190.89   20.36
   7   3   1  198.39   21.61
  -7  -3   1  130.97   15.73
   7   3  -1  201.37   22.62
  -7   3  -2   36.72    9.00
  -7   3   2   40.57    8.49
  -7  -3  -2   46.11    9.69
   7   3  -2   37.96    9.94
   7   3   2   39.07    4.96
  -7   3  -3    0.46    2.02
  -7   3   3    0.95    1.32
   7  -3  -3    2.80    2.40
  -7  -3  -3    5.28    4.69
   7   3  -3   -3.71    6.00
   7   3   3    0.47    1.36
   7  -3  -4    0.71    0.60
  -7   3   4   -0.30    0.54
  -7   3  -4   -0.71    2.51
  -7  -3  -4   -0.53    1.68
   7   3   4   -1.12    1.56
  -7   3   5   16.53    4.71
  -7  -3   5   17.50    4.09
   7  -3  -5   14.50    4.73
  -7  -3   5   28.07   10.49
  -7   3  -5   18.63    4.27
   7   3   5    8.15    1.57
   7   3   5   15.34    4.64
  -7  -3   6   50.58    5.92
  -7   3   6   48.17    7.67
   7  -3  -6   50.01    8.55
  -7   3  -6   46.96    4.38
   7   3   6   52.84   10.21
  -7  -3   6   68.90   14.28
   7   3   6   50.26    9.77
  -7  -3   7   26.53    3.78
  -7   3   7   28.27    5.84
   7  -3  -7   24.76    6.04
  -7  -3   7   35.41   10.55
   7   3   7   31.65    8.35
   7   3   7   25.51    7.63
   7  -3  -8   51.93    8.60
   7   3   8   60.90   11.74
  -7  -3   8   50.57   12.54
  -7  -3   8   51.60   11.38
   7   3   8   50.01   11.53
   7  -3  -9   63.86    9.20
   7   3   9   70.86   13.11
  -7  -3   9   59.52   13.93
  -7  -3   9   64.30   13.14
   7   3   9   61.34   13.44
   7  -3 -10   42.57    7.46
   7   3  10   46.13   10.57
  -7  -3  10   35.59   10.66
  -7  -3  10   41.63   11.83
   7   3  10   40.71   11.54
   7  -3 -11   25.76    5.82
   7   3  11   32.94    9.59
  -7  -3  11    5.32    3.95
  -7  -3  11   26.75    9.92
   7   3  11   25.93    9.72
   7  -3 -12    0.88    1.08
   7   3  12    1.35    2.98
  -7  -3  12   -4.32    6.82
  -7  -3  12    0.91    3.02
   7   3  12    2.65    4.79
   7  -3 -13   22.09    5.48
  -7  -3  13   10.38    5.65
   7   3  13   25.29   10.82
  -7  -3  13   25.32   11.11
   7  -3 -14    0.59    0.84
   7   3  14    4.30    5.91
  -7  -3  14    6.97    7.63
   7  -3 -15    7.13    3.20
  -7  -3  15   -1.10    6.58
   7   3  15   12.43    9.87
  -7  -3  15    7.04    7.36
   7  -3 -16    1.53    1.58
  -7   3  16   -4.88    9.73
  -7  -3  16  -17.17    9.59
   7   3  16    6.78    8.18
  -7  -3  16    3.07    5.01
  -7   3  17    0.36    5.16
  -7  -3  17   -9.38   11.48
   7   3  17    2.83    7.21
  -7  -3  17    7.77    8.56
   7   3  18    5.13    8.75
  -7  -3  18   -7.56   10.38
  -7   3  18   -5.11    8.17
  -7  -3  19  -11.22   11.16
  -7   3  19   -0.88    5.01
   7   3  19    5.39    8.56
  -7  -3  20   -4.24    7.61
   7   3  20    5.40    7.69
  -7   3  20   -6.19    8.77
  -7   3  21    4.61    6.18
   7   3  21   15.85   12.84
  -7  -3  21    0.74    4.41
  -7   3  22    5.46    7.44
   7   3  22    8.97    9.78
  -7  -3  22   -5.83    9.31
   7   3  23    3.57   10.05
  -7   3  23    8.36   10.28
  -7  -3  23   -5.93    7.31
  -8   3   0  115.36   16.45
  -8  -3   0  104.44   13.49
   8   3   0  123.17   18.71
  -8   3  -1  263.84   25.36
  -8   3   1  244.64   23.10
   8   3   1  245.90   25.17
   8   3  -1  243.86   26.45
  -8  -3   1  153.05   17.69
  -8  -3  -1  230.71   23.20
  -8   3  -2   -1.64    3.23
  -8   3   2    0.79    1.67
  -8  -3  -2    2.22    1.51
   8   3  -2   -1.48    5.06
   8   3   2    1.40    1.47
  -8   3   3   20.85    6.13
  -8   3  -3   21.79    7.23
   8   3   3   61.99   12.44
  -8  -3   3   64.83   13.74
  -8  -3  -3   27.52    7.81
   8   3   3   24.61    4.96
  -8   3   4   28.92    6.80
  -8  -3  -4   29.31    8.23
  -8  -3   4   50.87   12.65
  -8   3  -4   23.24    4.80
   8   3   4   30.67    6.46
  -8   3   5   82.82   10.94
   8  -3  -5   86.12   12.35
  -8  -3   5   89.63   17.49
   8   3   5   66.72    9.74
  -8   3  -5   82.73    9.80
   8   3   5   84.24   11.60
  -8  -3   6    2.08    1.35
  -8   3   6    1.83    1.61
   8  -3  -6    1.31    0.70
   8   3   6   -2.06    6.56
  -8   3  -6   -8.41    5.13
   8   3   6    4.45    3.53
  -8  -3   6    9.74    7.63
  -8  -3   7   35.86    4.56
  -8   3   7   34.28    6.64
   8  -3  -7   35.26    7.30
  -8  -3   7   40.86   12.83
   8   3   7   33.38    7.13
   8   3   7   38.58    9.39
  -8   3   8   41.56    7.28
   8  -3  -8   39.11    7.58
   8   3   8   46.92    9.84
  -8  -3   8   38.71    9.94
   8   3   8   40.38   10.27
  -8  -3   8   39.18   11.43
   8  -3  -9  134.50   14.02
   8   3   9  144.77   17.97
  -8  -3   9  133.35   22.23
  -8  -3   9  135.82   19.08
   8   3   9  130.78   19.80
   8  -3 -10   30.35    6.57
   8   3  10   44.43   10.60
  -8  -3  10   31.30   10.18
  -8  -3  10   27.42    9.55
   8   3  10   29.46   10.19
   8  -3 -11    0.76    1.39
   8   3  11   10.22    5.66
  -8  -3  11   -1.69    4.50
   8   3  11    2.07    4.15
  -8  -3  11    1.06    2.80
   8  -3 -12    2.85    1.93
   8   3  12   13.63    7.22
  -8  -3  12   -1.44    5.38
   8   3  12    6.37    6.33
  -8  -3  12    4.44    3.86
   8  -3 -13   35.00    6.71
  -8  -3  13   18.47    9.94
   8   3  13   42.03   14.22
  -8  -3  13   34.20   12.91
   8  -3 -14   -0.20    0.83
  -8  -3  14   -5.42    7.54
   8   3  14    3.85    6.25
  -8  -3  14    2.58    5.25
   8  -3 -15   10.70    3.73
  -8  -3  15    3.25    4.89
   8   3  15   22.80   11.26
  -8  -3  15   13.72    9.44
  -8   3  16    3.55    5.33
   8   3  16   14.58   10.00
  -8  -3  16   -0.57    8.12
  -8  -3  16    8.11    7.82
  -8   3  17   23.34    9.85
  -8  -3  17   23.57   10.31
  -8  -3  17   31.12   13.77
   8   3  17   41.84   16.03
  -8  -3  18    0.98    6.67
  -8  -3  18    6.94    6.14
  -8   3  18    2.53    2.49
   8   3  18    7.89    8.84
  -8  -3  19    1.31    4.09
   8   3  19   11.01   10.29
  -8   3  19    2.88    3.37
  -8  -3  20   -4.89    9.06
  -8   3  20    1.41    2.26
   8   3  20    2.50    5.86
  -8   3  21   12.82   10.29
   8   3  21   15.53   12.08
  -8  -3  21   -0.42    5.25
  -8   3  22    3.02    7.84
   8   3  22    8.42    8.46
  -8  -3  22   -3.05    5.83
   8   3  23   -4.25    7.12
  -8   3  23    2.17    6.92
  -8  -3  23   -6.69   10.12
  -9   3   0   42.53   10.32
   9   3   0   41.97   11.52
  -9  -3   0    8.93    9.15
  -9   3   1    6.60    3.70
  -9   3  -1    4.37    2.81
   9   3   1    8.14    5.49
  -9   3  -2    0.32    2.16
  -9   3   2    4.15    3.16
  -9  -3  -2   -0.97    2.85
  -9   3   3    2.10    2.32
  -9  -3  -3    1.84    3.87
  -9   3   4   13.82    4.84
  -9  -3   4   35.91   11.82
   9   3   4   44.29   11.06
  -9  -3  -4   17.66    6.62
  -9   3  -4    9.57    2.91
   9   3   4   13.29    4.17
  -9   3   5    4.15    2.45
  -9   3  -5   10.71    4.73
  -9  -3  -5    4.05    4.35
   9   3   5   23.22    3.45
  -9  -3   5   21.80    9.82
   9   3   5    4.88    3.70
  -9   3   6   10.84    3.93
  -9  -3   6   10.01    3.04
  -9  -3   6   23.56   10.27
   9   3   6   13.16    5.32
  -9  -3   7    0.54    0.57
  -9   3   7    0.04    1.47
  -9   3  -7    2.20    2.34
   9   3   7    0.99    3.32
  -9  -3   7    6.05    5.81
  -9  -3   8    9.57    1.94
  -9   3   8    8.68    3.34
   9  -3  -8    6.63    2.68
   9   3   8   -4.28    8.13
   9   3   8   11.83    5.82
  -9  -3   8    9.49    5.06
  -9  -3   8   14.67    9.06
   9  -3  -9   35.80    7.41
   9   3   9   23.98    6.16
  -9  -3   9   36.55    9.93
   9   3   9   36.54   10.29
  -9  -3   9   44.51   13.20
   9  -3 -10    6.48    2.57
   9   3  10    4.59    2.13
   9   3  10   10.72    6.41
  -9  -3  10    6.66    4.46
  -9  -3  10    5.93    4.56
   9  -3 -11   -0.16    0.64
   9   3  11    2.45    2.55
   9   3  11    3.50    5.38
  -9  -3  11    1.73    3.43
   9  -3 -12    3.55    1.93
   9   3  12    6.23    6.54
  -9  -3  12   -1.04    4.85
  -9  -3  12    5.11    4.79
   9  -3 -13    0.24    0.59
  -9  -3  13   -4.53    6.24
  -9  -3  13    1.31    3.40
   9   3  13    2.74    5.69
   9  -3 -14    4.57    2.12
  -9  -3  14   13.37    8.78
   9   3  14   10.69    7.75
  -9  -3  15  -10.77   11.46
  -9  -3  15    2.98    7.70
   9   3  15   -0.49    4.30
  -9   3  16   -4.22   10.53
  -9  -3  16   -8.24   10.97
  -9  -3  16    7.08    6.62
   9   3  16    3.55    5.27
  -9   3  17    0.04    7.10
  -9  -3  17   -1.42    7.61
  -9  -3  17    5.15    6.71
   9   3  17    7.67    8.44
  -9  -3  18  -13.65    9.57
   9   3  18    8.27    8.15
  -9  -3  18   -3.90    4.84
  -9   3  18    1.09    6.84
  -9  -3  19   -4.72    8.36
   9   3  19    5.43    7.80
  -9   3  19   -3.05    8.27
  -9   3  20    2.26    1.66
   9   3  20    5.37    7.81
  -9  -3  20  -10.16    8.60
   9   3  21    3.63    8.28
  -9   3  21    0.37    5.03
  -9  -3  21   -6.46    9.67
  -9   3  22    1.98    0.34
  -9  -3  22   -4.87    9.19
  -9   3  23    9.69   12.56
  -9  -3  23   -5.64    8.83
  -9  -3  24   -6.05    8.82
 -10  -3   0  -16.15   14.54
 -10   3   0    4.79    3.50
 -10  -3  -1  -12.94   11.82
 -10   3   1    3.39    2.97
 -10  -3  -2   -5.12    5.29
 -10   3   2    0.89    2.31
 -10  -3  -3   10.62    5.19
 -10   3   3   14.13    5.73
 -10   3   4   86.78   13.02
 -10  -3  -4  100.94   16.66
 -10   3  -4   86.69   12.27
 -10  -3   4  111.09   19.98
 -10   3   5   19.17    6.05
 -10  -3  -5   19.10    7.36
  10   3   5   40.52   11.23
 -10   3  -5   23.85    7.00
 -10  -3   5   36.80   12.35
 -10   3   6    2.06    2.10
  10   3   6    2.79    2.45
 -10   3   7    2.70    2.07
 -10  -3   7    1.46    1.14
 -10   3  -7    1.77    1.91
  10   3   7    1.72    2.05
 -10  -3   8    5.12    1.59
 -10   3   8    4.38    2.32
 -10  -3   8    5.86    3.77
  10   3   8    7.03    4.65
 -10  -3   8    7.37    6.67
 -10   3   9   32.66    6.60
 -10  -3   9   29.49    8.56
  10   3   9   34.49   10.03
 -10  -3   9   33.33   11.67
 -10  -3  10   13.90    6.42
  10   3  10   13.61    7.17
 -10  -3  10   12.13    7.06
 -10  -3  11    9.87    6.45
  10   3  11    9.21    6.65
 -10  -3  11    5.64    2.71
 -10  -3  12   13.48    7.83
  10   3  12   14.08    7.68
 -10  -3  12    3.98    2.66
 -10  -3  13   31.49   12.19
  10   3  13   38.76   13.62
 -10  -3  13   19.92    6.75
 -10  -3  14    6.17    9.10
 -10  -3  14   24.65   11.64
  10   3  14   23.45   11.15
 -10  -3  15   -7.74   10.03
 -10  -3  15    3.78    7.33
  10   3  15    0.65    4.43
 -10   3  16  -10.51   11.83
 -10  -3  16   -9.28    9.00
 -10  -3  16    8.57    8.24
  10   3  16    1.11    2.97
 -10   3  17    2.24    7.12
 -10  -3  17    7.03    0.22
 -10  -3  17    5.97    6.19
  10   3  17    7.53    7.11
  10   3  18    0.19    5.54
 -10   3  18   -6.26    9.72
 -10  -3  18   -0.67    4.55
  10   3  19    0.12    2.35
 -10   3  19   -2.13    5.80
 -10  -3  19   -6.13    8.84
 -10   3  20    6.85    4.03
 -10  -3  20  -13.47   10.19
 -10   3  21    3.62    5.92
 -10  -3  21   -4.23    9.32
 -10   3  22    6.05    9.11
 -10  -3  22   -2.43    5.83
 -10  -3  23   -4.68    8.34
 -10   3  23    8.01   10.92
 -10  -3  24   -4.40    7.00
 -11   3   1    0.59    1.50
 -11  -3  -1  -19.57   11.87
 -11   3   2   28.21    8.77
 -11  -3  -2   20.35    5.64
 -11   3   3   43.98   10.38
 -11  -3   3   75.54   16.55
 -11  -3  -3   46.67   11.74
 -11   3  -3   37.66    8.79
 -11   3  -4  194.01   20.18
 -11  -3  -4  231.18   27.61
 -11  -3   4  207.35   26.96
 -11   3   4  210.53   21.50
 -11   3   5   55.06   10.44
 -11  -3   5   68.27   17.07
 -11  -3  -5   64.89   14.81
 -11   3  -5   63.57   11.52
 -11   3   6   64.24   10.63
 -11  -3  -6   76.21   13.91
 -11  -3   6   71.36   17.31
 -11   3  -6   53.62    7.40
 -11  -3   7    5.75    2.42
 -11   3   7    4.95    3.07
 -11   3  -7    2.44    2.30
 -11  -3   7   12.67    9.52
 -11  -3   8    3.06    1.15
 -11   3   8    3.63    2.36
 -11   3  -8    5.15    2.85
 -11  -3   8    5.53    3.51
 -11  -3   8    7.78    7.19
 -11   3   9    3.33    2.43
 -11  -3   9    3.58    3.00
 -11  -3   9    7.35    6.48
 -11  -3  10   10.79    5.60
 -11  -3  10   11.23    6.23
  11   3  11    1.89    2.32
 -11  -3  11    0.51    2.38
 -11  -3  11    1.33    3.14
 -11  -3  12   76.19   20.13
  11   3  12   88.61   19.33
 -11  -3  12   82.01   17.67
  11   3  13   27.57   11.52
 -11  -3  13   33.47   11.86
 -11  -3  13   30.42   10.43
  11   3  14    8.02    7.52
 -11  -3  14    5.24    6.43
 -11  -3  14    0.17    6.13
 -11  -3  15    4.04    4.54
 -11  -3  15   -2.93    7.42
 -11   3  16   -3.99    9.79
 -11  -3  16    0.34    2.81
 -11  -3  16   -1.83    6.23
 -11   3  17   -6.35   10.85
 -11  -3  17    1.67    4.36
 -11  -3  17   -4.41    7.79
 -11   3  18   -6.23   10.28
 -11  -3  18   -2.50    5.79
 -11   3  19   -2.49    6.62
 -11  -3  19   -9.86    8.82
 -11   3  20   -0.45    2.64
 -11  -3  20   -9.11   11.35
 -11   3  21    3.10    6.13
 -11  -3  21    7.90    8.09
 -11   3  22   12.32   11.96
 -11  -3  22    2.03    3.94
 -11  -3  23   -8.22   10.12
 -11   3  23    1.73    6.92
 -11  -3  24   -4.85    8.68
 -12  -3  -1  -18.41   13.76
 -12  -3  -2   79.70   13.88
 -12   3  -2   79.23   14.43
 -12   3  -3   45.35   10.08
 -12  -3  -3   52.82   13.29
 -12  -3   3   81.37   17.87
 -12   3   3   55.91   12.62
 -12  -3  -4   92.07   19.18
 -12   3  -4   80.23   14.14
 -12  -3   4   93.45   20.14
 -12   3   4   81.83   14.52
 -12  -3  -5   30.80   11.68
 -12  -3   5   30.25   13.84
 -12   3  -5   24.11    8.89
 -12   3   5   13.64    5.22
 -12   3   6   78.83   12.44
 -12   3  -6   55.95    8.37
 -12  -3   6  105.45   21.28
 -12  -3  -6   78.36   15.27
 -12   3   7    9.40    4.17
 -12   3  -7    2.01    3.47
 -12  -3   7   16.06    9.70
 -12   3   8    4.82    2.78
 -12  -3   8    4.73    1.93
 -12   3  -8   14.06    5.19
 -12  -3   8   17.23   10.45
 -12   3   9    0.38    0.67
 -12  -3   9    2.80    2.15
 -12   3  10    3.76    2.58
 -12  -3  10    5.81    6.56
 -12  -3  10    4.04    3.59
 -12  -3  11    1.58    3.91
 -12  -3  11    3.63    5.48
 -12  -3  12   58.01   15.16
 -12  -3  12   53.66   17.48
 -12  -3  13    4.37    7.16
 -12  -3  13    0.79    3.53
 -12  -3  14    6.32    6.23
 -12  -3  14   -2.47    6.72
 -12  -3  15    2.40    6.09
 -12  -3  15   -0.29    4.77
 -12   3  16   -5.53   10.81
 -12  -3  16   -2.46    6.89
 -12  -3  16    4.92    6.56
 -12   3  17   -7.25   10.73
 -12  -3  17    3.96    5.08
 -12   3  18   -1.18    6.90
 -12  -3  18   -0.51    5.07
 -12   3  19    0.80    4.21
 -12  -3  19   -8.00    8.16
 -12  -3  20   -9.31   11.02
 -12   3  20   -0.45    5.98
 -12   3  21   -0.23    4.23
 -12  -3  21    3.68    5.48
 -12   3  22    2.82    9.16
 -12  -3  22   -2.35    5.78
 -12  -3  23   16.06    9.74
 -13  -3  -1   17.84    8.45
 -13   3  -1   18.18    6.53
 -13   3  -2   55.37   12.26
 -13  -3  -2   44.39   10.77
 -13  -3  -3    5.19    2.66
 -13   3  -3    5.00    2.36
 -13   3   4  119.95   18.11
 -13   3  -4  102.02   16.61
 -13  -3   4  128.25   23.14
 -13  -3  -4  123.24   21.23
 -13   3   5   11.82    5.14
 -13  -3  -5   31.26   11.79
 -13   3  -5   36.06   10.34
 -13  -3   5   35.67   15.11
 -13   3   6    8.65    4.23
 -13  -3  -6    7.48    5.18
 -13  -3   6   19.64   11.66
 -13   3   7    1.74    1.55
 -13   3  -7   -8.46    5.42
 -13  -3   7    6.98    7.87
 -13  -3   8    2.06    1.79
 -13   3   8    0.49    1.57
 -13   3  -8    7.10    4.51
 -13  -3   8    9.15    8.50
 -13   3   9    3.71    2.20
 -13  -3   9    4.19    1.42
 -13  -3   9    9.35    8.46
 -13  -3  10   13.10   10.74
 -13  -3  11   31.53   10.73
 -13  -3  11   33.41   14.86
 -13  -3  12   16.88    8.88
 -13  -3  12    1.00    2.97
 -13  -3  13    5.07    6.03
 -13  -3  13    4.53    7.13
 -13  -3  14    8.15    6.85
 -13  -3  14    9.23    7.91
 -13  -3  15    1.61    3.83
 -13  -3  15    1.41    2.63
 -13   3  16  -10.21   11.29
 -13  -3  16   -4.59    8.23
 -13   3  17   -4.54    7.76
 -13  -3  17   -1.03    5.44
 -13   3  18   -6.63    9.45
 -13  -3  18    0.17    3.82
 -13   3  19   -1.80    6.40
 -13  -3  19    0.54    1.78
 -13  -3  20    3.70    2.64
 -13   3  20    3.41    3.35
 -13   3  21    3.35    6.35
 -13  -3  21    4.28    7.85
 -13   3  22   -1.06    4.17
 -13  -3  22    2.56    4.13
 -14  -3   0    9.83   11.61
 -14   3  -1   -1.58    6.06
 -14  -3   2   66.65   18.04
 -14   3  -2   -1.63    3.51
 -14  -3  -3   -0.69    3.69
 -14   3  -3    2.10    3.80
 -14  -3  -4   58.73   14.92
 -14  -3   4   83.27   19.60
 -14   3  -4   64.13   14.44
 -14   3   5   35.22    9.82
 -14  -3  -5   54.55   14.93
 -14  -3   5   62.28   18.04
 -14   3  -5   71.08   13.88
 -14   3   6    4.60    3.25
 -14  -3  -6   13.00    7.94
 -14  -3   6   17.39   13.12
 -14   3   7   -0.25    0.71
 -14  -3  -7    0.78    1.70
 -14   3  -8    5.13    4.33
 -14  -3   8   14.20   10.15
 -14   3  -9    2.23    2.50
 -14  -3   9   16.11   11.95
 -14  -3  10   12.45    9.64
 -14  -3  11   22.84   14.78
 -14  -3  12   10.50   11.17
 -14  -3  13    9.11    9.99
 -14  -3  14   22.62   12.22
 -14  -3  15   -1.62    5.10
 -14   3  16   -5.39   10.90
 -14  -3  16    2.37    2.29
 -14   3  17   -6.07   10.17
 -14  -3  17   -2.48    3.76
 -14   3  18   -3.49    6.31
 -14  -3  18    0.89    4.71
 -14  -3  19   -0.38    2.54
 -14   3  19   -0.81    3.99
 -14  -3  20    6.62    8.64
 -14   3  20    2.87    0.66
 -14   3  21    2.88    7.52
 -14   3  22    5.59    5.74
 -15   3   0   -2.54    5.21
 -15  -3  -1  -18.49   13.03
 -15   3  -1    3.88    1.44
 -15  -3  -2  -10.90    9.79
 -15   3  -2   -1.40    2.79
 -15  -3  -3    4.33    3.77
 -15   3  -3    8.50    6.39
 -15   3  -4   27.80   11.31
 -15  -3  -4   24.58   10.67
 -15  -3   4   59.71   18.07
 -15  -3  -5   21.14   12.24
 -15  -3   5   38.12   15.65
 -15   3  -5   56.30   13.13
 -15   3   6    0.91    1.37
 -15  -3  -6    2.38    6.19
 -15  -3  -7    1.76    4.59
 -15   3  -7   -6.35    6.28
 -15   3  -8   22.27    6.90
 -15  -3   8   24.81   12.73
 -15  -3   9   22.21   13.47
 -15  -3  10   19.29   12.92
 -15  -3  11   14.33   12.54
 -15  -3  12   10.63   11.66
 -15  -3  13    5.74    9.59
 -15  -3  14    9.49   11.07
 -15   3  15   -6.82   10.05
 -15  -3  15    1.59    4.67
 -15   3  16   -5.86    8.92
 -15  -3  16   -0.99    5.25
 -15   3  17   -4.82    7.67
 -15  -3  17    3.88    7.75
 -15   3  18   -0.53    1.66
 -15  -3  18    4.84    6.67
 -15   3  19   -0.35    2.01
 -15  -3  19    0.04    2.68
 -15   3  20    6.51    8.60
 -15   3  21    6.86   10.07
 -15   3  22    6.24    9.14
 -16   3   0   17.24    5.32
 -16   3   1   -5.49    7.09
 -16   3  -1   -2.94    4.64
 -16  -3  -2  -14.15   11.09
 -16   3  -2    5.70    5.28
 -16   3  -3   31.97   11.69
 -16  -3  -3   14.91    6.19
 -16  -3   4   64.28   18.40
 -16  -3  -4   46.01   15.25
 -16   3  -4   53.04   14.39
 -16  -3  -5   15.54   10.41
 -16  -3   5   30.46   14.71
 -16   3  -5   45.25   10.54
 -16  -3  -6   10.10    8.48
 -16  -3   6   24.69   15.04
 -16   3  -7  -11.45    6.58
 -16  -3  -7    7.36    6.34
 -16   3  -8   18.62    6.91
 -16  -3   8   36.43   16.62
 -16  -3   9   26.95   15.28
 -16  -3  10   72.44   22.57
 -16  -3  11   18.99   14.57
 -16  -3  12    7.59    9.69
 -16  -3  13    6.70    9.36
 -16  -3  14    3.14    5.30
 -16   3  15   -3.04    9.28
 -16  -3  15   10.81   11.12
 -16   3  16    7.54    3.68
 -16  -3  16   12.21   10.20
 -16   3  17   -1.99    5.06
 -16  -3  17    6.55    7.75
 -16   3  18    0.12    3.55
 -16  -3  18   13.91   12.13
 -16   3  19    2.72    5.25
 -17   3   0    8.61    2.87
 -17   3   1   -1.84    6.30
 -17   3  -1    3.26    4.67
 -17   3  -2   83.59   18.68
 -17  -3  -2   58.08   14.04
 -17   3   2   65.21   16.95
 -17  -3   3   28.93   14.40
 -17   3  -3   12.29   10.32
 -17  -3  -3    8.05    5.79
 -17   3   3  -11.12   11.66
 -17  -3   4   78.41   20.66
 -17  -3  -4   47.88   16.92
 -17   3  -4   69.23   16.54
 -17   3  -5   13.92    5.60
 -17  -3  -5   20.60    9.80
 -17  -3   6   30.57   16.87
 -17  -3  -6   20.38   10.64
 -17   3  -7   -5.83    4.79
 -17  -3  -7    0.75    2.43
 -17  -3   8   34.99   17.82
 -17  -3   9   32.30   16.85
 -17  -3  10   21.02   15.22
 -17  -3  11   11.91   13.19
 -17  -3  12    9.62   11.12
 -17  -3  13    6.33   10.49
 -17   3  14   -4.46    8.43
 -17  -3  14   14.90   12.58
 -17   3  15   -4.29    8.52
 -17  -3  15   16.45   14.12
 -17  -3  16    8.11   12.73
 -17  -3  17   14.14   13.01
 -18  -3   0  -24.15   16.24
 -18   3   0    8.11    5.01
 -18   3  -1    7.64    6.40
 -18   3   1    3.92    3.09
 -18  -3  -2   18.77    8.53
 -18   3  -2   36.28   13.88
 -18   3   2   15.92    5.95
 -18  -3   3  -11.89    8.06
 -18  -3  -3    2.90    3.22
 -18   3   3   -8.78   10.22
 -18  -3   4   56.14   18.49
 -18   3  -4   49.98   14.30
 -18  -3  -4   13.94   10.55
 -18   3   4   -3.07   10.92
 -18  -3  -5   17.89   10.11
 -18   3   5   -7.79   11.92
 -18  -3  -6   16.73   10.23
 -18  -3   6   49.31   18.57
 -18  -3   7   36.08   18.31
 -18  -3  -7    4.97    7.72
 -18  -3   8   53.94   21.95
 -18  -3   9   17.51   16.10
 -18  -3  10   30.50   17.25
 -18  -3  11   14.99   14.95
 -18  -3  12   16.62   13.56
 -18  -3  13    9.76   12.04
 -18  -3  14   16.44   15.41
 -18  -3  15   13.01   13.50
 -18  -3  16   14.24   13.85
 -19  -3   0  -28.41   16.48
 -19   3   0    6.00    6.24
 -19   3  -1    6.06    7.86
 -19   3   1   -0.65    3.48
 -19  -3  -2    3.45    4.47
 -19   3  -2   13.16   10.93
 -19   3   2   -0.75    5.99
 -19  -3  -3    2.64    4.99
 -19   3   3   -5.99    7.56
 -19  -3   4   34.83    9.59
 -19  -3  -4   11.18    9.50
 -19   3  -4   44.74   12.80
 -19   3   4   -5.73    8.98
 -19  -3  -5   13.68   11.07
 -19   3   5   -6.70   10.54
 -19  -3  -6   22.96   12.49
 -19   3   6   -7.05   11.45
 -19  -3  -7    5.00    8.37
 -19   3   7   -7.86   12.02
 -19  -3   8   34.17   18.59
 -19  -3   9   29.22   18.88
 -19  -3  10   20.46   15.93
 -19  -3  11   15.94   12.77
 -19  -3  12   16.22   15.00
 -19  -3  13   14.07   15.18
 -19  -3  14   19.29   16.48
 -20  -3   0  -27.72   12.93
 -20   3   0   11.45    8.72
 -20  -3  -1   -7.78    9.26
 -20   3  -1   13.32    9.91
 -20   3   1    2.25    5.54
 -20  -3  -2    4.40    6.53
 -20   3   2    7.16    6.06
 -20  -3  -3    2.45    4.23
 -20   3   3   -1.94    5.19
 -20  -3  -4    9.08    7.94
 -20   3   4   -2.68    7.13
 -20  -3  -5   26.87   14.30
 -20  -3   5   59.55   21.04
 -20  -3  -6   20.47   11.14
 -20   3   6   -7.55   12.07
 -20  -3  -7    5.68    9.68
 -20   3   7   -4.64   12.84
 -20  -3   8   54.25   21.29
 -20  -3   9   19.38   15.58
 -20   3   9   -8.12   12.39
 -20  -3  10   22.43   17.03
 -20   3  10  -11.73   16.99
 -20  -3  11   26.47   18.17
 -20  -3  12   21.63   17.53
 -20  -3  13   29.49   18.81
 -21  -3   0  -19.90   11.32
 -21   3   0   10.49    9.60
 -21  -3  -1   -0.56    5.13
 -21   3  -1   14.20   11.03
 -21   3   1    3.97    7.22
 -21  -3  -2    2.73    4.35
 -21   3   2   10.19    8.47
 -21  -3  -3    4.82    6.31
 -21   3   3   -1.55    4.89
 -21  -3  -4   24.03   13.44
 -21   3   4   -0.27    2.64
 -21  -3   5  -22.72   12.15
 -21   3   5   -5.62    8.93
 -21  -3  -6    7.56    9.00
 -21   3   6   -5.71   11.03
 -21  -3  -7    4.61    7.48
 -21   3   7   -4.38    9.77
 -21  -3   8   59.65   21.57
 -21   3   8   -7.28   13.29
 -21  -3   9   44.03   20.05
 -21  -3  10   33.88   19.18
 -21   3  10  -12.77   15.58
 -21  -3  11   36.43   20.99
 -22   3   0   17.76   12.38
 -22  -3   0  -22.85   12.50
 -22  -3  -1    0.22    2.79
 -22   3  -1   23.30   13.27
 -22   3   1   10.22   10.26
 -22  -3  -2    6.12    8.62
 -22   3   2    9.60    8.93
 -22  -3  -3   16.55   11.15
 -22   3   3    3.40    5.18
 -22  -3  -4   21.01   12.62
 -22   3   4    4.40    5.82
 -22  -3  -5   18.77   13.55
 -22   3   5    1.64    4.22
 -22  -3   6    0.20    4.56
 -22  -3  -6    7.98   10.28
 -22   3   6   -1.96    5.40
 -22  -3  -7    6.50    7.12
 -22   3   7   -6.15   11.89
 -22  -3   8   54.64   23.62
 -22   3   8   -6.58   11.23
 -22  -3   9   42.93   21.22
 -22   3   9  -23.75   14.37
 -22   3  10  -10.55   13.40
 -23  -3   0   -0.12    3.75
 -23   3   0   27.09   15.12
 -23   3   1    8.79   10.94
 -23  -3  -1    1.96    4.23
 -23  -3  -2    5.01    7.84
 -23   3   2    8.20    9.94
 -23  -3  -3   26.02   13.92
 -23   3   3    6.04    7.57
 -23  -3  -4   19.58   12.83
 -23   3   4    4.69    6.67
 -23  -3  -5   27.05   14.94
 -23   3   5   -0.78    3.80
 -23  -3  -6    9.78    9.72
 -23   3   6    2.81    3.81
 -23  -3   7  -17.25   12.14
 -23   3   7   -5.23    7.53
 -23   3   8   -3.78    8.12
 -24   3   0   53.96   19.22
 -24  -3   0   -3.53    6.82
 -24  -3   1  -12.11    9.71
 -24  -3  -1    1.72    3.40
 -24  -3   2  -15.43   14.65
 -24   3   2   15.58   13.49
 -24  -3  -2    7.09    9.57
 -24  -3  -3   20.46   13.33
 -24   3   3   14.11   11.10
 -24  -3  -4   29.00   15.86
 -24   3   4    5.29    8.73
 -24   3   5   10.45    9.34
 -24   3   6    2.35    4.24
 -24   3   7    2.72    2.68
 -25  -3   0    7.49    7.61
 -25  -3   1   -9.24   10.39
 -25  -3  -1   12.20   10.76
 -25   3   2   22.94   14.86
 -25  -3  -2   14.43   12.70
 -25  -3   2  -15.90   13.44
 -25  -3  -3   28.32   16.78
 -25   3   3   18.78   13.39
 -25   3   4   11.92   11.67
 -25   3   5    9.50    9.81
 -26  -3  -1   19.90   13.15
 -26   3   2   36.29   16.44
 -26  -3  -2   29.64   18.85
 -26   3   3   33.03   16.68
   0  -4   0 3196.98   63.24
   0   4   0 3203.67   63.84
   0  -4  -1   -1.00    1.78
   0   4  -1   -1.06    1.99
   0   4   1    0.72    0.45
   0  -4   1    0.09    0.22
   0  -4  -2  166.13   14.95
   0   4   2  164.22   15.18
   0  -4   2  167.49   14.62
   0   4  -2  166.54   14.42
   0   4  -2  163.72   13.41
   0  -4  -3    0.07    1.09
   0  -4   3   -1.63    2.26
   0   4  -3   -3.99    3.24
   0  -4   3   -0.22    0.75
   0   4  -3   -0.22    0.62
   0  -4  -4   62.03    9.94
   0   4  -4   58.31    8.74
   0  -4   4   61.58    8.53
   0   4  -4   36.41    2.21
   0  -4   4   58.60    9.42
   0  -4   5   -2.57    2.27
   0  -4   5    0.08    0.51
   0   4  -5   -0.22    0.83
   0   4  -6  290.80   21.03
   0  -4   6  280.68   21.91
   0   4  -6  276.31   20.28
   0  -4   6  260.56   17.50
   0   4  -7   -1.06    1.70
   0   4  -7    0.47    1.95
   0   4  -8   46.18    9.13
   0  -4   8   55.19    6.78
   0   4  -8   51.41   12.39
   0   4  -9   -0.23    0.47
   0  -4   9   26.60    7.43
   0   4 -10   98.84   14.44
   0  -4  10   98.24   13.42
   0   4 -11   -0.16    0.90
   0  -4  11   10.35    6.49
   0   4 -12   97.77   15.40
   0  -4  12  107.36   15.37
   0   4 -13   -0.55    1.12
   0  -4  13    5.24    5.05
   0   4  14   56.20   15.75
   0  -4  14   75.47   14.05
   0   4  15   -7.12   10.16
   0  -4  15    2.71    4.13
   0   4  16   -3.43    8.50
   0  -4  16    5.54    4.36
   0   4  17   -1.77    6.94
   0  -4  17    3.89    4.10
   0   4  18    9.28    5.90
   0  -4  18   16.26    7.11
   0  -4  19    6.02    4.80
   0   4  19    1.11    2.04
   0   4  20    9.31    9.40
   0   4  21    4.61    8.44
   0   4  22   11.26   11.38
   0   4  23    3.93   11.34
   0   4  24    4.77    8.67
  -1  -4   0 1799.55   47.47
  -1   4   0 1811.40   47.79
   1  -4   0 1796.48   48.32
   1   4   0 1826.81   48.53
   1   4   0 1809.55   49.02
  -1   4   1    3.58    1.89
   1  -4  -1    4.43    2.79
  -1  -4   1    4.42    1.92
  -1   4  -1    4.57    2.74
   1   4  -1    3.84    2.08
  -1  -4  -1    3.62    2.02
   1   4  -1    5.55    3.74
   1  -4   1    3.79    1.41
  -1  -4  -2 1123.39   40.27
  -1  -4   2 1142.47   37.00
  -1   4  -2 1107.82   38.49
   1   4  -2 1144.65   36.62
   1  -4   2 1148.66   40.20
   1  -4  -2 1134.07   38.86
  -1   4   2 1116.66   39.00
   1   4  -2 1122.38   38.51
  -1   4   3    4.27    2.49
   1   4  -3    2.18    1.41
   1  -4  -3    2.43    1.16
  -1  -4   3    5.99    4.11
  -1   4  -3    4.85    2.99
  -1  -4   3    2.75    1.16
   1  -4   3    3.00    2.47
  -1   4  -3    3.92    2.26
   1   4  -4 1160.92   37.11
  -1   4  -4 1148.12   41.21
   1  -4  -4 1145.77   41.04
   1  -4   4 1139.98   43.76
  -1  -4   4 1081.98   38.35
  -1   4  -4 1154.88   34.01
   1   4  -4 1084.70   36.93
   1  -4  -5    1.21    1.73
  -1  -4   5    1.33    1.35
  -1   4  -5    1.14    1.75
   1  -4   5    0.45    0.63
   1   4  -5    1.67    1.46
   1  -4   5    1.48    1.47
  -1  -4   5   -5.94    4.86
   1   4  -5    4.35    4.35
   1  -4  -6  415.62   26.59
   1   4  -6  423.40   23.73
  -1  -4   6  404.81   25.02
  -1   4  -6  419.04   27.46
   1  -4   6  409.30   28.15
  -1   4  -6  427.27   22.17
  -1  -4   6  400.61   23.69
   1  -4   6  420.80   19.48
   1   4  -6  427.78   27.28
  -1   4  -7    0.50    0.17
   1   4  -7    0.31    0.81
  -1  -4   7    0.88    1.41
   1  -4   7   -1.89    3.25
   1   4  -7    2.43    4.22
   1   4  -8   88.37   11.78
  -1   4  -8   89.67   13.56
  -1  -4   8  111.82   13.30
   1  -4   8   73.02    7.29
  -1   4  -8   89.41   16.57
   1   4  -8   94.65   16.77
   1   4  -9   -0.38    0.91
  -1   4  -9   -0.21    0.59
   1   4 -10  133.43   15.80
  -1   4 -10  127.37   17.09
  -1  -4  10  129.71   16.19
   1  -4  10  148.88   13.22
   1   4 -11    0.88    1.91
  -1   4 -11    0.43    1.82
   1  -4  11   12.09    6.33
  -1  -4  11    6.09    5.82
   1   4 -12  524.09   33.89
  -1  -4  12  498.47   34.63
   1  -4  12  490.17   28.63
   1   4 -13    1.28    1.91
   1  -4  13    8.91    6.16
  -1  -4  13    3.45    4.82
   1   4 -14   76.93   13.79
   1  -4  14   88.03   13.86
  -1  -4  14   79.72   14.78
   1   4  14   68.27   17.53
   1   4  15   -7.08    9.54
  -1   4  15  -15.17   13.00
   1  -4  15    8.59    5.99
  -1  -4  15    4.33    4.88
  -1   4  16  -12.96   12.22
   1   4  16   -3.35    7.39
   1  -4  16    8.66    6.10
  -1  -4  16    3.96    4.45
  -1   4  17   -5.95    9.46
   1  -4  17    6.77    5.16
  -1  -4  17    2.30    3.11
   1   4  17   -0.95    6.84
   1   4  18    5.21    6.09
  -1   4  18   -3.65    7.39
   1  -4  18   11.04    6.13
  -1  -4  18    3.93    3.15
  -1   4  19   -2.09    5.50
   1   4  19   -0.86    2.82
  -1  -4  19    3.03    3.79
   1   4  20   29.03   14.38
  -1   4  20   30.02   15.12
  -1   4  21    0.18    3.36
   1   4  21    3.13    8.76
   1   4  22   29.91   16.09
  -1   4  22   22.99   14.37
   1   4  23    5.99    9.02
  -1   4  23    6.34   10.21
   1   4  24    6.45   10.99
  -1   4  24    2.18    7.14
  -2  -4   0  451.84   24.74
  -2   4   0  441.37   24.50
   2  -4   0  468.23   25.78
   2   4   0  478.68   25.88
  -2  -4  -1   10.38    3.87
  -2   4   1    9.70    3.30
   2   4  -1   12.81    4.25
  -2  -4   1   10.40    3.64
   2   4   1    8.16    3.12
   2   4  -1    6.39    1.29
  -2  -4   1   13.82    4.68
   2  -4   1    9.00    3.13
  -2   4  -1   10.58    4.17
   2  -4  -1   11.20    3.79
  -2   4  -2  729.68   32.80
   2   4  -2  739.45   29.77
  -2   4   2  724.64   30.96
   2  -4  -2  743.81   31.19
  -2  -4   2  713.81   29.29
   2   4  -2  732.14   34.10
  -2  -4   2  756.72   32.39
   2  -4   2  746.31   34.61
   2  -4  -3   24.53    5.81
  -2   4  -3   27.55    6.70
  -2  -4   3   29.35    5.94
  -2   4   3   26.32    6.08
   2   4  -3   26.19    5.46
  -2  -4   3   23.17    5.25
   2   4  -3   16.74    5.12
   2  -4   3   28.82    7.15
  -2   4   4  153.08   15.02
  -2  -4   4  150.30   13.35
   2   4  -4  149.56   13.03
   2  -4  -4  145.22   14.40
  -2   4  -4  146.78   16.00
   2  -4   4  151.68   16.78
   2   4  -4  165.17   16.96
  -2   4  -4  144.44   10.59
  -2  -4   4  136.71   13.82
   2  -4  -5   13.69    4.40
   2   4  -5   13.79    3.97
   2  -4   5   14.87    5.50
  -2  -4   5   13.83    4.26
  -2   4  -5   15.40    5.51
  -2   4  -5    1.73    2.57
  -2  -4   5   -5.60    8.00
   2   4  -5   13.56    5.17
   2   4  -6   21.36    4.86
   2  -4  -6   20.18    5.60
  -2  -4   6   20.75    5.31
  -2   4  -6   18.42    5.98
  -2  -4   6   -3.21    6.36
  -2   4  -6   18.97    3.96
   2   4  -6   17.19    4.63
   2   4  -6   24.18    7.54
   2  -4  -7    1.30    2.11
  -2   4  -7    1.67    2.06
  -2  -4   7    1.58    1.80
   2   4  -7    1.60    1.45
   2  -4   7    3.24    2.00
   2   4  -7    5.98    5.03
   2  -4  -8   -0.10    0.80
  -2   4  -8   -0.08    0.23
   2   4  -8    0.02    0.81
   2  -4   8    0.59    0.82
   2  -4  -9    2.13    2.42
   2   4  -9    3.18    2.15
  -2   4  -9    1.29    2.17
   2  -4   9   -3.50    3.55
  -2   4 -10    6.08    4.47
   2   4 -10    5.82    3.18
   2  -4 -10    6.50    3.64
  -2  -4  10   14.71    6.90
   2   4 -11    2.89    1.72
  -2  -4  11    7.96    6.51
   2   4 -12   35.83    8.13
   2  -4  12   60.26    8.64
  -2  -4  12   31.71    9.96
   2   4  13   -3.30    7.97
   2   4 -13    4.16    2.87
  -2  -4  13    4.44    4.75
   2   4  14   11.01    6.16
   2   4 -14   13.96    5.43
   2  -4  14   26.74    8.01
  -2  -4  14   18.76    7.63
  -2   4  15  -10.05   12.06
   2   4 -15    1.61    2.02
   2  -4  15   13.10    6.30
   2   4  15   -6.58    9.54
  -2  -4  15    2.31    3.11
   2   4 -16    0.57    1.70
   2  -4  16    9.81    6.19
   2   4  16   -0.30    5.01
  -2  -4  16   -0.14    2.12
   2  -4  17   13.50    6.39
   2   4  17    1.78    4.15
  -2  -4  17    4.56    4.59
   2   4  18   38.42   15.38
  -2   4  18   31.50   13.84
  -2  -4  18   35.15   10.97
   2   4  19    3.29    6.32
  -2   4  19   -5.83    7.04
  -2  -4  19    5.51    4.28
  -2  -4  20    5.02    3.62
  -2   4  20    3.34    4.74
   2   4  20    5.56    7.04
  -2   4  21    2.79    4.85
   2   4  21    0.65    2.85
  -2   4  22   22.80   14.96
   2   4  22   24.37   15.87
   2   4  23   12.13   13.58
  -2   4  23    9.89   10.85
  -3   4   0 3322.53   68.54
  -3  -4   0 3251.17   68.35
  -3  -4   0 3280.06   71.91
  -3  -4   1    7.75    3.13
  -3   4   1    6.26    3.17
  -3  -4   1   10.90    5.91
   3   4  -1   -1.93    6.72
   3   4   1   11.40    4.87
   3  -4   1    6.91    3.28
   3  -4  -1    7.28    3.11
  -3   4  -1    6.81    2.88
  -3   4   2  109.09   12.22
  -3   4  -2  107.09   13.13
   3  -4  -2  102.87   11.99
  -3  -4   2  108.76   11.42
   3   4  -2   90.94    9.73
  -3  -4   2  109.02   13.60
   3   4   2  110.45   13.69
   3  -4   2  111.30   14.07
  -3  -4   3    0.27    1.05
  -3   4   3    1.08    1.39
   3   4  -3    0.93    1.31
   3  -4   3    0.43    1.71
   3  -4  -3    0.80    1.41
  -3   4  -3    1.44    2.18
   3  -4  -4   20.78    5.32
   3   4  -4   22.28    5.02
  -3  -4   4   23.03    5.09
  -3   4   4   23.73    5.96
  -3   4  -4   20.68    6.40
   3  -4   4   19.89    6.30
   3   4  -4   33.33    8.88
  -3  -4   4    8.34    5.84
  -3   4  -4   20.79    3.54
  -3   4   5    0.70    1.28
   3  -4  -5    0.92    1.32
   3   4  -5    0.97    0.92
  -3   4  -5    2.55    2.64
  -3  -4   5    1.03    0.81
  -3   4  -5   -3.59    2.88
   3   4  -5   -1.78    2.77
   3  -4  -6   17.07    5.16
   3   4  -6   16.66    4.17
  -3   4  -6   17.69    6.30
  -3  -4   6   17.32    4.57
  -3   4  -6   16.42    2.90
   3   4  -6   11.50    3.33
   3   4  -6   18.80    6.66
   3   4  -7    0.35    0.92
   3  -4  -7   -0.01    0.67
  -3  -4   7   -0.16    0.65
  -3   4  -7    0.88    1.86
   3   4  -7    2.50    4.20
   3   4  -8   41.47    6.98
   3  -4  -8   38.81    8.15
  -3   4  -8   41.41   10.26
  -3  -4   8   41.40    7.69
  -3  -4   8   62.38   12.28
   3   4  -8   44.34   11.20
   3  -4  -9    4.35    2.77
   3   4  -9    4.36    2.50
  -3   4  -9    4.32    3.62
   3  -4   9    6.11    2.14
  -3  -4   9   14.48    6.93
   3  -4 -10   56.03   10.37
   3   4 -10   58.25    8.90
  -3  -4  10   57.98   12.84
   3  -4  10   67.73    6.40
   3  -4 -11    0.43    1.86
   3   4 -11   -0.22    1.47
   3  -4  11   -7.48    3.48
  -3  -4  11    3.32    5.35
   3  -4 -12   85.95   13.73
   3   4 -12   89.47   11.98
  -3  -4  12   82.29   15.69
   3  -4  12   70.45    6.23
   3   4  12   85.14   18.01
   3   4 -13    0.51    1.32
   3  -4 -13    1.38    2.31
   3   4  13   -1.60    5.66
  -3  -4  13    5.38    4.58
   3   4 -14   33.28    7.81
   3  -4 -14   37.35    9.62
   3  -4  14   62.92    7.68
   3   4  14   29.46   10.34
  -3  -4  14   30.58    9.50
   3  -4 -15    2.29    2.04
   3   4 -15    0.91    0.65
   3   4  15    2.29    3.47
  -3  -4  15    4.30    3.92
   3   4 -16  115.45   15.75
   3  -4 -16  115.93   17.93
  -3  -4  16  113.93   20.17
   3  -4  16  144.34   13.41
   3   4  16  114.18   24.68
  -3   4  16   96.27   22.17
   3  -4 -17    1.85    2.70
  -3   4  17   -6.09    9.41
   3   4  17    0.20    2.38
  -3  -4  17    0.74    0.70
   3  -4 -18   24.89    8.63
  -3   4  18   19.38    8.76
   3   4  18   22.69   11.28
  -3  -4  18   24.40    8.72
   3  -4 -19    2.07    3.00
   3   4  19    3.76    8.29
  -3   4  19   -1.95    5.84
  -3  -4  19    4.44    5.32
  -3   4  20    2.41    3.49
  -3  -4  20    1.14    1.22
   3   4  20    5.61    9.33
   3   4  21   11.05   11.13
  -3   4  21   -1.16    2.05
  -3   4  22   15.55   12.38
   3   4  22   10.93   12.45
   3   4  23   12.33   12.43
  -3   4  23    6.51   11.04
  -4   4   0  155.12   15.65
   4   4   0  157.81   16.45
  -4  -4   0  173.37   18.13
   4  -4   0  164.42   16.75
  -4   4   1   37.34    7.59
  -4   4  -1   40.03    8.23
   4   4  -1   15.19    6.40
  -4  -4  -1   43.70    8.75
  -4  -4   1   41.73    8.78
   4   4   1   41.93    9.12
   4  -4   1   43.71    8.94
   4  -4  -1   40.67    8.24
  -4   4   2  317.52   21.34
   4  -4  -2  314.86   21.93
  -4  -4   2  317.57   20.36
  -4  -4   2  314.91   24.77
   4   4  -2  327.80   24.25
   4   4   2  301.92   23.97
   4  -4   2  310.38   24.74
  -4   4  -2  310.84   24.16
  -4   4   3    1.49    1.18
  -4  -4   3    1.03    1.03
  -4   4  -3    1.39    2.00
   4  -4  -3    2.12    1.72
   4  -4   3    3.42    2.89
   4   4   3    4.32    4.05
  -4  -4   4    5.37    2.71
  -4   4   4    3.41    2.56
   4  -4  -4    3.92    2.46
  -4   4  -4    5.77    3.94
   4   4   4    3.80    3.28
   4   4  -4   11.83    6.02
  -4  -4   5   16.73    4.29
  -4   4   5   15.24    4.90
   4   4  -5   15.80    4.45
   4  -4  -5   16.28    4.89
  -4   4  -5   16.23    6.09
  -4   4  -5   19.01    3.01
   4   4  -5   10.90    3.39
   4   4  -5   19.40    6.23
   4  -4  -6    8.66    3.61
   4   4  -6    8.48    3.17
  -4  -4   6    8.70    2.93
  -4   4  -6    9.02    4.98
   4   4  -6   11.90    5.77
   4  -4  -7   33.45    7.16
   4   4  -7   33.33    6.00
  -4   4  -7   33.14    9.22
  -4  -4   7   34.48    6.40
  -4  -4   7   46.84   12.50
   4   4  -7   36.99    9.17
   4  -4  -8  174.99   16.75
   4   4  -8  176.41   13.72
  -4  -4   8  177.93   14.97
  -4  -4   8  174.40   20.75
   4   4  -8  186.42   21.64
   4   4  -9   77.45    9.22
   4  -4  -9   73.63   11.20
  -4  -4   9   83.34   15.31
   4   4  -9   77.95   14.86
   4   4 -10   29.59    5.99
   4  -4 -10   30.01    7.36
  -4  -4  10   32.85   10.90
   4   4  11   -2.36    7.79
   4   4 -11    7.30    3.43
   4  -4 -11    6.00    3.49
  -4  -4  11   10.48    6.54
   4  -4 -12   -0.19    1.08
   4   4  12   -1.42    4.81
   4   4 -12    1.37    1.71
  -4  -4  12    6.43    5.55
   4  -4 -13   -1.67    2.03
   4   4 -13   -0.01    0.82
   4  -4  13    1.25    1.29
   4   4  13   -1.88    6.63
  -4  -4  13    2.33    4.17
   4  -4 -14    3.59    3.35
   4   4 -14    5.88    3.18
   4  -4  14   -1.15    2.52
   4   4  14    1.33    5.01
  -4  -4  14    4.82    4.65
   4   4 -15   -0.44    1.29
   4  -4 -15    0.24    1.34
   4   4  15   -3.20    5.98
  -4  -4  15   -0.42    1.81
   4  -4 -16   81.66   14.31
  -4   4  16   63.24   17.71
   4  -4  16   69.20    6.13
  -4  -4  16   82.08   17.43
   4   4  16   89.00   22.65
  -4   4  17    7.73    4.64
   4  -4 -17    7.95    4.22
   4   4  17    9.43    7.71
  -4  -4  17    7.68    5.15
   4  -4 -18    7.72    4.89
  -4   4  18    4.37    4.64
   4   4  18    9.18    8.35
  -4  -4  18    1.63    2.28
   4   4  19    5.80    8.28
  -4  -4  19   -0.67    2.59
  -4   4  19   -1.86    6.84
  -4   4  20   -1.01    4.29
   4   4  20    8.52    9.01
  -4  -4  20    4.20    2.85
  -4   4  21   -0.44    4.18
   4   4  21    7.41   10.55
  -4  -4  21   -1.22    1.70
   4   4  22   13.27   13.37
  -4   4  22    7.59    7.63
  -4   4  23   -0.10    3.18
   4   4  23    2.43    6.51
  -5   4   0 1764.02   55.25
  -5  -4   0 1716.52   60.00
   5   4   0 1800.63   63.82
   5  -4   0 1754.97   58.58
  -5   4   1   25.70    6.59
   5   4   1   13.97    2.97
  -5  -4  -1   30.05    8.01
  -5  -4   1   20.48    5.24
  -5   4  -1   26.59    7.36
   5  -4   1   26.84    7.59
   5  -4  -1   27.41    7.02
  -5   4   2 1035.55   39.97
   5  -4   2 1072.07   48.29
   5  -4  -2 1041.41   42.70
  -5   4  -2 1074.76   47.01
  -5  -4   2 1038.49   48.06
   5   4  -2  991.15   46.05
  -5  -4  -2 1083.30   45.39
   5   4   2 1072.40   47.18
  -5  -4   3    1.59    1.67
  -5   4   3    0.41    1.18
   5  -4  -3    1.10    0.71
  -5   4  -3    0.94    1.63
   5   4   3    5.26    4.40
   5   4  -3    5.71    6.03
  -5  -4   4  201.17   15.09
   5  -4  -4  207.13   18.00
  -5   4   4  201.24   17.28
  -5   4  -4  207.65   22.25
   5   4  -4  209.09   23.38
   5   4   4  199.03   19.91
  -5  -4   4  163.86   15.65
   5   4  -4  211.90   17.29
  -5  -4   5    0.60    1.11
  -5   4   5    0.09    1.30
  -5   4  -5    0.51    1.57
   5  -4  -5    0.07    1.38
   5   4   5    2.67    3.53
   5   4  -5    3.33    3.37
   5   4  -5   -3.21    4.82
  -5  -4   6  607.86   24.83
  -5   4   6  605.40   30.27
   5  -4  -6  611.25   30.46
  -5   4  -6  610.38   40.38
  -5  -4   6  574.68   36.42
   5   4   6  604.27   35.10
   5   4  -6  615.70   34.01
   5  -4  -7    8.00    3.56
  -5  -4   7    7.76    2.81
   5   4  -7    5.26    3.19
   5   4  -8  656.66   25.88
   5  -4  -8  638.90   31.63
  -5  -4   8  653.88   26.88
  -5  -4   8  599.83   40.50
   5   4  -8  659.26   40.42
   5  -4  -9   20.75    5.84
   5   4  -9   19.98    4.44
   5   4   9   16.16    5.53
  -5  -4   9   26.50   10.12
   5   4  -9   16.03    6.50
   5  -4 -10  461.34   27.85
   5   4 -10  452.08   21.50
  -5  -4  10  444.61   37.29
   5   4  10  448.50   39.12
   5   4 -11   13.25    3.65
   5  -4 -11   13.97    5.13
   5   4  11    7.68    2.65
  -5  -4  11   23.24    9.58
   5   4 -12   32.12    5.85
   5  -4 -12   30.44    7.41
   5   4  12   29.29   10.59
  -5  -4  12   29.46   10.13
   5   4 -13    0.96    0.46
   5  -4 -13    1.14    0.49
   5   4  13   -1.27    5.56
  -5  -4  13    3.85    5.29
   5  -4 -14   68.14   11.98
   5   4 -14   68.18    8.97
  -5  -4  14   63.59   15.64
   5   4  14   64.54   17.29
   5   4 -15    2.34    1.90
   5  -4 -15    0.99    0.83
   5   4  15    0.48    1.84
  -5  -4  15    1.04    3.26
   5  -4 -16  200.53   21.13
  -5  -4  16  189.53   28.27
   5   4  16  188.75   32.50
  -5   4  17    5.65    2.97
   5  -4 -17   11.96    5.31
  -5  -4  17    6.21    5.11
   5   4  17   16.33    9.92
  -5   4  18   14.66    8.31
   5   4  18   19.43   11.22
  -5  -4  18   13.41    6.36
  -5   4  19   -1.65    5.72
   5   4  19    6.46    7.25
  -5  -4  19   -3.18    4.86
   5   4  20    9.20   10.50
  -5   4  20   -4.08    6.31
  -5  -4  20   -1.10    2.14
  -5   4  21   -1.63    3.19
   5   4  21    8.57   10.08
  -5  -4  21   -0.59    3.40
   5   4  22    5.70   10.48
  -5  -4  22    0.17    2.77
  -5   4  22    5.06    8.19
   5   4  23   12.93   13.75
  -5   4  23   -2.06    6.29
   6   4   0  329.41   27.95
  -6  -4   0  289.79   26.29
  -6   4   0  325.85   25.15
   6  -4   0  314.94   25.60
  -6   4   1  829.57   38.65
  -6  -4   1  812.79   44.15
  -6  -4  -1  838.41   43.10
   6   4  -1  792.29   42.87
   6   4   1  838.36   44.75
   6  -4  -1  829.02   41.01
  -6   4  -1  842.08   42.47
   6  -4   1  815.01   42.91
  -6   4   2  214.34   19.47
  -6   4  -2  232.53   22.87
   6  -4  -2  217.76   20.61
  -6  -4   2  212.64   21.13
   6   4  -2  241.80   24.67
   6   4   2  223.66   22.86
  -6  -4  -2  217.91   21.82
  -6  -4   3   97.31   11.70
  -6   4   3   94.06   12.37
   6  -4  -3   92.94   13.05
  -6   4  -3   92.98   14.97
  -6  -4  -3   89.03   13.72
   6   4   3   98.51   14.51
   6   4  -3   98.02   16.74
  -6  -4   3   64.19    3.83
   6   4  -3   94.95   10.12
  -6   4   4   27.53    6.57
  -6  -4   4   27.37    5.82
  -6   4  -4   26.40    8.40
   6  -4  -4   25.36    6.72
  -6  -4   4   43.21    6.97
   6   4   4   22.59    7.48
   6   4  -4   26.17    7.63
   6   4  -4   27.97    6.24
  -6   4   5   22.51    5.71
  -6  -4   5   20.84    4.62
   6  -4  -5   22.73    5.97
  -6   4  -5   19.15    7.42
   6   4   5   25.53    7.45
   6   4  -5   18.65    5.21
   6   4  -5   24.42    6.48
  -6  -4   6  114.08   10.54
  -6   4   6  111.04   13.06
   6  -4  -6  106.62   13.07
  -6  -4   6  137.05   19.44
   6   4   6  119.91   16.76
   6   4  -6  107.66   14.07
  -6  -4   7  154.07   12.24
  -6   4   7  156.62   15.76
   6  -4  -7  157.15   16.06
  -6  -4   7  167.58   21.68
   6   4   7  158.64   18.83
   6   4  -7  157.12   18.29
   6  -4  -8  193.51   17.63
  -6  -4   8  191.41   13.61
  -6  -4   8  196.31   24.15
   6   4   8  192.48   20.94
   6   4  -8  182.20   20.81
   6   4   8  195.10   22.75
   6  -4  -9  222.56   19.08
   6   4   9  236.30   23.24
  -6  -4   9  218.66   26.75
   6   4  -9  207.91   23.95
   6   4   9  222.32   25.86
   6  -4 -10   60.81   10.16
  -6  -4  10   72.62   16.09
   6   4  10   63.27   14.40
   6  -4 -11   52.59    9.44
  -6  -4  11   58.56   14.93
   6   4  11   46.73   12.70
   6  -4 -12    4.05    2.96
   6   4  12    5.13    3.08
  -6  -4  12   10.14    7.50
   6  -4 -13    4.42    3.13
  -6  -4  13    8.38    6.40
   6   4  13   -0.58    2.65
   6   4 -14   75.86    7.45
   6  -4 -14   80.06   12.31
  -6  -4  14   78.07   17.62
   6   4  14   81.95   19.70
   6  -4 -15    3.93    2.48
   6   4  15    8.80    8.42
  -6  -4  15    1.77    2.23
   6  -4 -16    1.38    2.00
   6   4  16    5.77    7.45
  -6  -4  16    4.09    5.58
   6  -4 -17   38.49    9.09
  -6   4  17   23.72    9.91
   6   4  17   43.89   16.27
  -6  -4  17   39.06   13.13
  -6   4  18   -4.89   10.17
   6   4  18   10.94   10.42
  -6  -4  18    2.02    2.29
  -6   4  19    5.51    2.40
   6   4  19   10.83   10.68
  -6  -4  19    6.32    5.46
  -6   4  20    5.52    2.37
   6   4  20    7.16   10.05
  -6  -4  20    3.15    1.65
   6   4  21    9.05   11.32
  -6   4  21   -5.35    7.50
  -6  -4  21    3.69    4.12
   6   4  22    8.76   10.49
  -6   4  22    4.04    7.56
  -6  -4  22    2.13    4.85
  -6   4  23    4.64    8.69
   6   4  23    7.02   11.45
   7  -4   0 1238.35   54.12
  -7   4   0 1257.76   52.61
  -7  -4   0 1207.41   56.41
   7   4   0 1164.69   53.17
  -7   4  -1   91.50   14.83
  -7   4   1   90.23   13.78
   7  -4  -1   90.95   14.22
  -7  -4  -1   90.50   15.21
  -7  -4   1   81.40   12.75
   7   4  -1  111.84   17.72
   7   4   1  119.03   18.45
  -7   4   2  441.84   28.96
   7  -4  -2  441.89   30.66
  -7   4  -2  464.00   34.13
   7   4  -2  451.73   36.30
  -7  -4   2  420.74   32.29
   7   4   2  425.40   33.61
  -7  -4  -2  454.15   32.78
   7   4  -2  442.51   17.85
  -7   4   3    7.44    3.76
  -7   4  -3    5.00    3.54
   7  -4  -3    6.47    3.83
  -7  -4  -3    5.73    4.27
   7   4   3    0.66    6.14
   7   4  -3    8.37    2.92
   7   4  -3    6.42    4.67
  -7   4   4  166.55   16.62
  -7  -4   4  167.78   14.89
   7  -4  -4  167.67   17.87
   7   4   4  169.47   20.12
   7   4  -4  165.20   14.10
  -7   4   5    8.86    3.48
  -7  -4   5    6.56    2.83
   7  -4  -5    7.69    4.08
   7   4   5    9.14    4.95
   7   4  -5    6.78    2.95
  -7  -4   6  262.31   16.13
  -7   4   6  254.68   19.97
   7  -4  -6  256.52   21.64
  -7  -4   6  271.14   27.37
   7   4   6  262.58   25.43
  -7   4  -6  248.61   11.63
   7   4  -6  256.67   21.13
   7   4   6  266.24   23.16
   7   4  -7   -1.12    4.41
  -7   4   7    3.75    2.38
   7   4   7    3.19    2.43
   7  -4  -7    3.91    3.31
  -7  -4   7    3.40    1.79
   7   4   7   12.02    7.01
  -7  -4   7   16.83   10.51
   7  -4  -8  426.62   26.94
  -7   4   8  424.20   25.96
  -7  -4   8  432.89   19.50
  -7  -4   8  415.87   36.66
   7   4   8  421.05   31.25
   7   4   8  413.15   33.52
   7   4  -8  427.66   31.75
   7  -4  -9   34.25    7.47
  -7  -4   9   32.78    5.18
  -7  -4   9   42.82   13.99
   7   4   9   27.35    9.05
   7  -4 -10  350.78   24.70
  -7  -4  10  347.93   35.57
   7   4  10  349.16   34.12
   7  -4 -11    9.08    3.78
   7   4  11    7.90    4.50
  -7  -4  11   18.08   10.03
   7  -4 -12    1.17    0.26
   7   4  12   -0.30    3.21
  -7  -4  12    5.94    6.61
   7  -4 -13    5.67    3.31
   7   4  13    7.34    5.87
  -7  -4  13    2.81    4.48
   7  -4 -14   33.22    7.91
  -7  -4  14   38.43   12.67
   7   4  14   40.23   14.41
   7  -4 -15    1.62    1.40
   7   4  15    8.98    8.13
  -7  -4  15    2.15    2.91
   7  -4 -16    9.01    3.99
   7   4  16   11.16    8.50
  -7  -4  16    8.03    5.54
  -7   4  17   -5.75   10.27
   7   4  17    5.84    7.14
  -7  -4  17    1.36    1.83
  -7   4  18    0.58    5.86
   7   4  18   13.12   11.01
  -7  -4  18    3.66    3.12
  -7   4  19   -0.24    5.29
   7   4  19   13.96   12.53
  -7  -4  19    0.74    3.29
  -7   4  20   -4.84    7.91
  -7  -4  20   -0.70    1.43
  -7   4  21   -2.93    7.53
  -7  -4  21    2.16    4.19
   7   4  21    7.65   12.01
  -7   4  22    5.30    6.87
  -7  -4  22    0.95    3.16
   7   4  22   -1.55    5.65
  -7   4  23    1.59    5.26
   7   4  23    4.15    7.02
  -8   4   0  356.54   29.31
  -8  -4   0  336.28   30.02
   8   4   0  330.59   30.99
  -8   4  -1  530.97   37.49
  -8   4   1  551.48   35.20
  -8  -4   1  513.70   38.04
   8   4   1  520.68   36.75
  -8  -4  -1  515.91   38.38
  -8   4   2    0.65    1.63
  -8   4  -2    2.21    2.27
   8  -4  -2    1.54    1.49
  -8  -4  -2    4.69    5.27
   8   4  -2   -0.03    1.03
  -8   4   3   31.44    7.67
   8  -4  -3   27.88    7.99
  -8  -4  -3   35.16    9.33
   8   4   3    6.62    9.52
   8   4  -3   27.80    4.32
   8   4   3   28.60    5.10
   8   4  -4   -1.05    3.20
   8  -4  -4    1.13    1.05
  -8   4   4    1.85    1.91
  -8  -4  -4    2.29    1.45
   8   4   4    0.27    2.25
  -8   4   5    4.12    3.18
  -8  -4   5    2.74    1.82
   8   4  -5   -0.32    3.36
   8  -4  -5    2.93    2.01
   8   4   5    1.10    0.97
  -8   4   6    5.11    2.64
  -8  -4   6    5.50    2.51
   8  -4  -6    5.39    3.22
  -8   4  -6    9.41    3.30
   8   4   6   -3.30    4.64
   8   4   6    5.93    2.77
  -8  -4   7   57.42    7.23
  -8   4   7   53.50    9.30
   8  -4  -7   57.79   10.61
   8   4   7   63.48   12.79
  -8  -4   7   70.35   16.45
   8   4   7   57.87   11.65
  -8   4   8   25.62    6.59
  -8  -4   8   25.63    4.59
   8  -4  -8   25.54    7.04
  -8  -4   8   44.76   13.39
   8   4   8   28.61    8.82
  -8  -4   9  204.28   11.85
   8  -4  -9  221.23   20.28
  -8  -4   9  216.06   28.73
   8   4   9  207.80   24.92
   8  -4 -10   47.23    9.23
  -8  -4  10   54.01   15.61
   8   4  10   44.78   12.72
   8  -4 -11   29.52    7.25
  -8  -4  11   44.98   14.10
   8   4  11   25.46   10.23
   8  -4 -12    0.36    0.73
  -8  -4  12    5.83    6.90
   8   4  12    2.57    4.05
   8  -4 -13    7.43    3.64
   8   4  13   11.15    8.33
  -8  -4  13   13.23    7.82
   8  -4 -14    0.05    0.70
   8   4  14   12.15    9.30
  -8  -4  14    3.20    5.80
   8  -4 -15   21.31    6.17
   8   4  15   20.58   11.24
  -8  -4  15   19.01   10.08
   8   4  16   13.69   11.07
  -8  -4  16    7.69    6.26
  -8   4  17   13.00    6.77
   8   4  17   22.23   13.26
  -8  -4  17   16.21    9.47
  -8   4  18   -3.49    8.79
   8   4  18    3.23    8.20
  -8  -4  18    3.93    5.05
  -8   4  19   -4.58   10.86
   8   4  19    6.54    9.53
  -8  -4  19    2.10    2.92
  -8   4  20   -7.00   10.15
  -8  -4  20    1.61    4.41
   8   4  20    9.02    9.48
  -8   4  21   -0.60    6.99
  -8  -4  21    1.15    3.30
   8   4  21    3.36    4.13
  -8   4  22    2.69    6.77
  -8  -4  22    1.95    3.26
   8   4  22    3.43    5.13
  -8   4  23    5.93    8.43
   8   4  23   10.13   11.11
  -8  -4  23   11.68    9.95
  -9   4   0    7.10    4.29
  -9  -4   0   -8.23    8.16
  -9   4   1    2.27    3.20
  -9  -4  -1    0.70    1.28
  -9   4   2    0.22    1.50
   9   4   2    0.45    1.26
  -9   4   3    1.61    0.20
  -9  -4  -3    2.54    5.95
   9   4   3    2.87    1.97
  -9   4   4   88.70   13.28
   9  -4  -4   87.56   14.29
  -9  -4   4  136.08   20.53
  -9  -4  -4   89.76   15.06
   9   4   4   92.09   10.83
  -9   4   5   18.81    5.90
   9  -4  -5   17.00    6.20
  -9   4  -5   15.27    3.30
   9   4   5   20.34    6.07
  -9  -4   6   20.33    5.12
  -9   4   6   22.06    6.57
   9  -4  -6   17.14    5.81
  -9   4  -6   26.46    6.01
   9   4   6   23.24    6.78
  -9   4   7    0.01    1.59
  -9  -4   7    0.95    1.17
   9  -4  -7    0.11    1.01
   9   4   7    1.53    1.69
  -9   4   8   31.25    7.15
  -9  -4   8   32.20    5.15
   9  -4  -8   29.64    7.76
  -9  -4   8   44.71   14.84
   9   4   8   34.09    9.57
  -9   4   9   19.98    5.65
  -9  -4   9   18.75    3.37
   9  -4  -9   17.07    5.82
  -9  -4   9   31.42   12.54
   9   4   9   20.25    8.65
   9  -4 -10   20.44    6.31
  -9  -4  10   32.34   13.04
   9   4  10   18.98    7.84
   9  -4 -11    0.15    0.13
   9   4  11    1.94    3.77
  -9  -4  11    9.74    8.91
   9  -4 -12    0.89    1.28
   9   4  12    6.87    6.76
  -9  -4  12    9.78    8.53
   9  -4 -13   -0.16    0.94
   9   4  13    5.97    6.99
  -9  -4  13    7.33    8.35
   9  -4 -14    9.29    3.98
   9   4  14   15.37   10.13
  -9  -4  14    9.33    7.34
   9   4  15    2.57    5.86
  -9  -4  15    8.48    8.07
   9   4  16   12.47    9.69
  -9  -4  16    6.39    6.07
  -9   4  17  -10.55   12.57
   9   4  17    8.94    9.33
  -9  -4  17    4.88    5.87
  -9   4  18   -5.19    9.79
  -9  -4  18    4.95    5.73
   9   4  18    9.78    8.67
  -9   4  19   -6.75   11.22
  -9  -4  19    4.35    5.93
   9   4  19   10.20    9.99
  -9   4  20   -3.08    9.66
   9   4  20   13.15   11.16
  -9  -4  20    6.38    8.98
  -9   4  21    0.17    1.84
   9   4  21    4.16    8.07
  -9  -4  21    3.46    6.24
   9   4  22    4.94    9.22
  -9  -4  22    5.76    8.41
  -9   4  22   -2.01    6.58
  -9   4  23   -2.10    1.14
   9   4  23    5.91   10.01
  -9  -4  23    1.12    5.40
 -10  -4   0  -15.61   10.66
 -10  -4  -1   -1.52    5.71
 -10   4   1    0.58    0.94
 -10  -4  -2    1.09    5.16
 -10   4   2    0.00    0.95
 -10   4   3  301.58   26.57
 -10  -4   3  238.94   25.82
 -10  -4  -3  319.57   30.94
 -10   4   4   76.11   12.86
 -10  -4  -4   83.30   14.91
  10   4   4   71.45    9.45
 -10   4   5  235.93   21.84
 -10   4  -5  225.78   19.01
 -10  -4  -5  230.27   25.24
 -10  -4   5  252.40   28.41
  10   4   5  230.73   19.01
 -10  -4   6    0.05    1.39
 -10   4   6    0.23    1.06
 -10   4  -6    5.76    4.41
  10   4   6    1.90    3.76
 -10  -4   7   18.09    4.39
 -10   4   7   20.28    5.91
 -10   4  -7    7.51    3.47
  10   4   7   22.11    7.46
 -10  -4   8    1.67    1.31
 -10   4   8    0.76    0.93
  10  -4  -8    0.10    2.08
  10   4   8    2.79    3.76
  10  -4  -9    1.91    2.07
 -10  -4   9    2.95    1.22
 -10   4   9    3.02    2.35
  10   4   9    8.86    6.13
  10  -4 -10   38.91    8.79
 -10  -4  10   51.55   16.12
  10   4  10   38.73   12.33
  10  -4 -11    9.32    4.21
  10   4  11   14.17    7.74
 -10  -4  11   22.84   11.76
  10  -4 -12    0.54    0.87
  10   4  12    6.51    7.51
 -10  -4  12   10.95    9.81
  10  -4 -13  115.90   14.15
 -10  -4  13  120.24   24.17
  10   4  13  123.95   23.58
  10   4  14   17.82   10.84
 -10  -4  14   13.55   10.02
 -10  -4  15   27.18   13.32
  10   4  15   24.29   12.30
 -10  -4  16    2.67    5.86
  10   4  16    2.21    7.15
  10   4  17    2.63    7.68
 -10  -4  17    3.28    4.89
 -10   4  18  -11.50   13.56
  10   4  18    1.38    5.00
 -10  -4  18    7.41    8.61
 -10   4  19   -7.75   12.15
  10   4  19    6.04    8.31
 -10  -4  19    7.40    8.27
  10   4  20    8.76    9.91
 -10  -4  20    4.37    6.67
 -10   4  20   -5.59   10.79
 -10   4  21    3.52    4.51
  10   4  21    7.83    7.87
 -10  -4  21    9.38    9.04
 -10  -4  22    6.70    7.72
  10   4  22    7.59    8.89
 -10   4  22    3.31    6.68
 -10  -4  23    4.30    6.60
 -10  -4  24   14.62   12.61
 -11  -4   0   74.04   13.17
 -11  -4  -1   11.10    2.68
 -11  -4   1  -15.35   12.58
 -11  -4  -2   41.28   11.39
 -11  -4   2    8.81   10.68
 -11   4   3   67.05   13.24
 -11  -4  -3   80.57   16.75
 -11  -4   3   29.99    4.46
 -11   4   4  126.77   17.47
 -11  -4  -4  133.63   20.96
 -11  -4   4  165.01   24.45
 -11   4  -4  116.55   15.64
 -11   4   5   46.39   10.08
 -11   4  -5   44.31    8.86
 -11  -4  -5   47.65   12.41
 -11   4   6   86.70   13.36
 -11   4  -6   95.86   12.48
 -11  -4   6  119.91   22.02
  11   4   6   93.29   13.18
 -11  -4   7   26.51    5.79
 -11   4   7   24.69    6.92
 -11   4  -7    6.82    4.57
  11   4   7   26.65    7.92
 -11  -4   8    6.79    2.24
 -11   4   8    6.14    3.52
 -11   4  -8   10.43    3.27
  11   4   8    9.89    6.02
 -11  -4   9    6.87    1.96
 -11   4   9    7.37    3.65
 -11  -4   9   21.74   11.10
  11   4   9    9.17    5.47
 -11  -4  10   68.16   18.63
  11   4  10   51.58   13.17
  11   4  11    3.59    4.71
 -11  -4  11    7.90    8.63
 -11  -4  12   67.17   19.11
  11   4  12   66.43   16.45
 -11  -4  13   44.19   16.45
  11   4  13   36.61   13.55
  11   4  14    4.80    5.88
 -11  -4  14   14.19   11.36
  11   4  15   19.07   12.14
 -11  -4  15   22.89   13.23
  11   4  16   -0.92    1.51
 -11  -4  16    7.59    8.73
 -11   4  17  -15.08   14.22
  11   4  17   18.56   12.16
 -11  -4  17    5.35    6.74
 -11   4  18   -6.25   11.64
  11   4  18    0.28    6.43
 -11  -4  18    1.10    3.17
 -11   4  19   -6.32   10.57
  11   4  19    3.47    7.21
 -11  -4  19    1.40    4.75
 -11   4  20    5.64    6.74
 -11  -4  20   10.78    9.67
 -11   4  21    3.56    5.89
 -11  -4  21    9.70   10.78
 -11  -4  22   11.67   11.99
 -11   4  22   -5.33    6.75
 -11  -4  23   12.53   12.03
 -12  -4   0  -22.13   12.82
 -12  -4   1  290.16   32.12
 -12  -4  -1  329.90   33.59
 -12  -4  -2   27.62    9.38
 -12  -4  -3  774.40   52.55
 -12  -4   3  598.26   46.07
 -12   4   4   10.04    5.13
 -12   4  -4    4.64    2.45
 -12   4   5  387.60   30.27
 -12  -4   5  371.72   37.84
 -12   4  -5  382.71   29.15
 -12  -4  -5  429.68   37.23
 -12   4   6   17.28    6.26
 -12  -4  -6   19.64    7.06
 -12   4  -6   28.94    8.59
 -12  -4   7  236.17   18.21
 -12   4   7  231.66   21.75
 -12   4  -7  228.61   17.68
 -12  -4   7  252.73   32.97
 -12  -4   8   -0.21    0.90
 -12   4   8   -0.22    1.45
 -12  -4   9   53.36    6.18
 -12   4   9   47.95    9.58
 -12  -4   9   75.08   20.01
  12   4  10    3.86    4.28
 -12  -4  10   33.17   14.72
 -12  -4  11  124.56   25.82
  12   4  11  101.56   19.07
  12   4  12   41.70   13.36
 -12  -4  12   41.75   16.95
 -12  -4  13  127.73   28.18
  12   4  13  128.73   24.11
  12   4  14   11.70    8.87
 -12  -4  14   16.41   11.32
  12   4  15   23.68   12.23
 -12  -4  15   23.69   13.17
  12   4  16    0.25    3.72
 -12  -4  16    2.89    5.97
 -12   4  17  -10.74   13.14
 -12  -4  17    8.16    8.19
 -12   4  18   -6.83   10.60
 -12  -4  18    3.31    7.91
 -12   4  19   -3.80    8.56
 -12  -4  19    3.77    8.37
 -12   4  20   -5.90    9.49
 -12  -4  20    7.86    9.60
 -12   4  21   -0.78    2.54
 -12  -4  21   13.02   10.28
 -12  -4  22    6.35    9.56
 -12   4  22    1.77    3.02
 -13  -4   0  -17.80   12.84
 -13  -4  -1   28.88    7.23
 -13  -4  -2   18.32    7.25
 -13  -4   2  -22.43   16.30
 -13  -4  -3   50.11   14.03
 -13   4  -3   32.40    8.60
 -13  -4  -4   41.46   14.35
 -13   4  -4   18.93    6.00
 -13  -4  -5   36.82   11.38
 -13   4  -5   32.73    9.42
 -13   4  -6   30.47    8.81
 -13  -4   6   28.03   13.21
 -13  -4  -6    3.33    3.40
 -13  -4   7   26.50    6.50
 -13   4   7   26.36    7.77
 -13   4  -7    3.62    5.79
 -13  -4   8    0.69    1.64
 -13   4   8   -0.28    1.66
 -13   4  -8    4.63    3.07
 -13  -4   9    8.83    2.70
 -13  -4   9   35.43   16.42
 -13  -4  10   11.44   11.61
 -13  -4  11   45.53   17.20
 -13  -4  12   17.94   12.59
 -13  -4  13   34.43   16.31
 -13  -4  14   11.86   10.68
 -13  -4  15   19.48   13.33
 -13  -4  16    9.57   10.17
 -13   4  17   -5.41   10.46
 -13  -4  17    8.57   10.48
 -13   4  18   -5.92   10.53
 -13  -4  18    6.55    8.87
 -13   4  19    2.63    2.59
 -13  -4  19   10.80   12.03
 -13   4  20    4.47    4.67
 -13  -4  20   12.86   12.06
 -13   4  21    5.49    7.86
 -13  -4  21   12.44   13.19
 -13   4  22    1.57    4.13
 -14  -4  -1    1.55    7.60
 -14  -4   1  -23.31   14.54
 -14  -4  -2    0.49    3.32
 -14   4  -2   -4.33    6.01
 -14   4  -3   45.42   10.53
 -14  -4  -3   65.57   16.04
 -14  -4  -4   21.95   10.89
 -14   4  -4    4.47    4.07
 -14   4  -5  165.94   21.09
 -14  -4  -5  173.89   25.50
 -14  -4   5  177.60   28.11
 -14  -4  -6   14.38    8.06
 -14   4  -6   55.03   11.52
 -14  -4   6   53.01   16.78
 -14   4  -7  -13.03    8.48
 -14   4   7   11.78    5.13
 -14  -4   8    1.31    1.82
 -14   4  -8    1.78    0.36
 -14  -4   9   37.46   16.96
 -14  -4  10   42.81   17.10
 -14  -4  11   89.85   24.46
 -14  -4  12   28.43   15.55
 -14  -4  13   67.31   21.93
 -14  -4  14   21.18   14.11
 -14  -4  15    8.93   10.49
 -14  -4  16   10.49   11.08
 -14   4  17   -3.84    8.02
 -14  -4  17    9.10   10.80
 -14   4  18   -4.67    8.26
 -14  -4  18   10.72   11.96
 -14   4  19   -4.63    7.78
 -14  -4  19   10.06   12.45
 -14   4  20    0.64    1.48
 -14  -4  20   12.98   11.03
 -14   4  21    0.02    2.87
 -14   4  22    4.66    7.13
 -15  -4  -1   -6.03    8.06
 -15   4  -1   -7.29    8.43
 -15  -4  -2   -3.80    6.48
 -15   4  -2   -3.94    5.74
 -15  -4  -3    7.70    8.69
 -15   4  -3   -2.08    4.24
 -15  -4   4   23.55    4.08
 -15  -4  -4   17.43    9.51
 -15   4  -4    3.55    5.16
 -15  -4  -5   37.08   12.91
 -15  -4   5   73.00   20.46
 -15   4  -5   41.65   12.02
 -15   4  -6   51.18   10.35
 -15  -4   6   48.15   17.36
 -15  -4   7   45.54   16.77
 -15   4  -7  -14.97    9.62
 -15   4  -8    0.76    0.81
 -15  -4   8   37.28   16.28
 -15  -4   9   40.54   17.43
 -15  -4  10   39.29   17.40
 -15  -4  11   39.03   18.25
 -15  -4  12   30.94   17.21
 -15  -4  13   23.02   13.96
 -15  -4  14   13.33   12.72
 -15  -4  15   15.44   13.89
 -15  -4  16    9.88   12.28
 -15   4  17   -1.05    5.50
 -15  -4  17   27.92   18.28
 -15   4  18    0.26    3.22
 -15  -4  18   21.78   17.05
 -15   4  19   -4.98    7.32
 -15  -4  19   24.48   17.80
 -15   4  20    2.50    3.97
 -15   4  21   -2.82    4.52
 -16  -4   0  -24.32   10.86
 -16   4   0   -6.22    8.76
 -16  -4  -1  140.09   24.58
 -16  -4   1  108.43   21.17
 -16   4  -1  131.85   22.95
 -16  -4  -2    4.82    2.46
 -16   4  -2    1.24    1.45
 -16  -4  -3   22.20   11.67
 -16   4  -3   15.75    7.46
 -16   4  -4   31.35   12.13
 -16  -4  -4   30.25   12.82
 -16  -4  -5   47.43   15.34
 -16   4  -5   63.76   14.60
 -16  -4   5   83.39   21.43
 -16   4  -6   25.02    4.46
 -16  -4  -6    2.97    4.66
 -16  -4   7  127.79   26.54
 -16   4  -7   81.97   13.13
 -16  -4  -7   85.31   19.47
 -16  -4   8   69.77   21.78
 -16  -4   9  131.28   29.43
 -16  -4  10   31.92   16.75
 -16  -4  11   53.80   22.06
 -16  -4  12   20.51   15.23
 -16  -4  13   19.74   14.44
 -16  -4  14   20.62   17.02
 -16  -4  15   33.46   19.38
 -16   4  16   -6.30    9.54
 -16  -4  16   13.97   14.06
 -16   4  17    4.34    1.46
 -16  -4  17   26.96   18.52
 -16   4  18   -0.70    4.08
 -16  -4  18   17.89   16.03
 -16   4  19    1.12    1.76
 -16   4  20    0.22    3.61
 -17  -4   0   -2.10    8.22
 -17   4   0    3.44    4.40
 -17   4  -1   72.76   16.77
 -17  -4  -1   52.25   16.77
 -17  -4   1   37.96   12.43
 -17   4   1   59.36   15.41
 -17  -4  -2    1.23    3.31
 -17   4  -2    5.77    4.32
 -17  -4  -3   11.44   11.76
 -17   4  -3    8.32    7.15
 -17   4  -4    8.87    7.97
 -17  -4  -4   17.68   11.17
 -17  -4  -5   43.65   15.15
 -17  -4   5   49.26   10.04
 -17   4  -5   69.33   15.66
 -17  -4  -6    5.71    6.72
 -17  -4   6   59.72   20.70
 -17  -4   7   92.65   23.69
 -17  -4  -7   37.79   12.77
 -17  -4   8   69.94   22.06
 -17  -4   9   62.36   22.19
 -17  -4  10   42.68   19.46
 -17  -4  11   37.83   19.75
 -17  -4  12   33.62   18.54
 -17  -4  13   38.17   18.71
 -17  -4  14   25.44   18.07
 -17  -4  15   26.28   18.01
 -17   4  16   -4.69    8.83
 -17  -4  16   38.25   20.52
 -17   4  17   -4.87    8.83
 -17  -4  17   29.73   19.45
 -18  -4   0  -30.66   12.99
 -18   4   0    1.81    1.76
 -18   4  -1  160.56   28.00
 -18  -4  -1  195.01   31.18
 -18  -4   1  139.28   27.08
 -18   4   1  162.40   28.92
 -18  -4  -2    2.64    4.93
 -18   4   2   -5.29    7.13
 -18   4  -2    1.62    2.63
 -18   4  -3   53.62   16.07
 -18  -4  -3   52.97   17.42
 -18  -4  -4   10.52    9.85
 -18   4  -4   16.60   11.26
 -18   4  -5  178.87   25.17
 -18  -4  -5  140.16   26.88
 -18  -4  -6    8.79    9.14
 -18  -4   6   65.03   21.63
 -18  -4   7  153.95   30.96
 -18  -4  -7   99.28   21.94
 -18  -4   8   54.41   19.66
 -18  -4   9  123.26   29.68
 -18  -4  10   31.23   18.42
 -18  -4  11   81.54   25.48
 -18  -4  12   34.03   20.17
 -18  -4  13   41.68   19.77
 -18  -4  14   29.28   19.31
 -18  -4  15   43.60   23.05
 -19  -4   0   12.88    3.29
 -19   4   0   23.01    9.29
 -19  -4  -1    4.95    6.81
 -19   4   1    0.61    4.90
 -19   4  -1    6.07    6.13
 -19  -4  -2    7.63    6.61
 -19   4   2   -1.65    7.83
 -19   4  -2    8.28    8.04
 -19  -4  -3   35.15   14.70
 -19   4  -3   28.76   13.24
 -19   4   3    6.57    3.01
 -19  -4  -4   25.76   13.43
 -19   4  -4   34.86   12.91
 -19   4   4   -1.30    8.99
 -19   4  -5   32.36    8.35
 -19  -4  -5   20.54   11.85
 -19  -4   6   16.10    7.05
 -19  -4  -6   11.21    8.58
 -19  -4   7   90.84   24.58
 -19  -4  -7   16.22    9.12
 -19  -4   8   80.23   23.76
 -19  -4   9   54.67   20.73
 -19  -4  10   51.85   22.05
 -19  -4  11   44.92   19.79
 -19  -4  12   41.32   21.82
 -19  -4  13   57.12   22.91
 -19  -4  14   33.05   21.79
 -20  -4   0   -6.06    9.94
 -20   4   0   -2.08    4.15
 -20  -4  -1   32.46   13.51
 -20  -4   1    5.69    3.01
 -20   4  -1   31.85   13.71
 -20   4   1   23.70    9.91
 -20  -4  -2    3.30    6.63
 -20   4  -2    8.11    7.98
 -20   4   2   -4.20    7.51
 -20   4  -3   45.32   15.88
 -20  -4  -3   52.16   17.21
 -20   4   3   11.41    6.51
 -20  -4  -4   29.38   15.27
 -20   4  -4   37.84   13.65
 -20   4   4   -6.13    9.18
 -20  -4  -5   22.91   12.79
 -20   4   5   -6.92   12.22
 -20  -4  -6    6.65    8.16
 -20   4   6   -8.78   11.57
 -20  -4   7    9.89   10.78
 -20  -4  -7    4.28    7.48
 -20  -4   8   64.63   21.79
 -20  -4   9   64.57   22.95
 -20  -4  10   42.57   20.49
 -20  -4  11   46.41   20.93
 -20  -4  12   52.94   23.20
 -21  -4   0   -8.35    7.37
 -21   4   0    1.36    3.92
 -21  -4   1  -14.57    9.86
 -21  -4  -1    7.75    7.43
 -21   4  -1   11.54   10.22
 -21   4   1    1.34    2.85
 -21   4  -2   22.47   12.76
 -21  -4  -2   22.16   13.16
 -21   4   2   -1.17    5.36
 -21  -4  -3   15.90   11.83
 -21   4  -3   32.67   14.10
 -21  -4   3  -26.35   17.52
 -21   4   3   -4.05    7.23
 -21  -4  -4   27.21   14.04
 -21   4   4   -3.51    8.06
 -21  -4  -5   16.81   11.64
 -21   4   5   -7.26    9.64
 -21  -4  -6    6.14    7.88
 -21   4   6   -6.96   11.62
 -21  -4  -7    5.05    6.49
 -21  -4   8   20.36    9.85
 -21  -4   9   70.34   23.94
 -21   4   9  -10.49   14.64
 -21  -4  10   42.55   22.45
 -22  -4   0   -1.37    5.67
 -22   4   0    4.42    6.72
 -22  -4   1    8.46    6.00
 -22  -4  -1   11.28   10.45
 -22   4  -1   23.88   13.96
 -22   4   1    8.19    8.34
 -22  -4  -2    2.95    6.42
 -22   4   2    0.54    2.68
 -22  -4   3    0.47    7.76
 -22   4   3   17.60    9.60
 -22  -4  -4   26.91   14.49
 -22   4   4   -3.67    7.42
 -22  -4   5  -12.02   16.65
 -22   4   5   14.31    9.21
 -22  -4  -6    2.35    6.00
 -22   4   6   -5.95   10.42
 -22  -4  -7    8.95    8.16
 -22   4   7   -3.36    8.63
 -22  -4   9    9.70    6.73
 -22   4   9  -10.56   14.54
 -22   4  10  -22.37   14.11
 -23  -4   0   23.26   12.44
 -23   4   0   23.50   12.92
 -23  -4  -1   20.80   13.34
 -23  -4   1   -3.58    6.54
 -23   4  -1   23.64   13.97
 -23   4   1   14.29   11.25
 -23  -4   2   -2.66    6.76
 -23  -4  -2   36.93   17.18
 -23   4   2   19.88   11.39
 -23  -4  -3   21.17   13.28
 -23  -4   3  -11.44   13.99
 -23   4   3    6.72    6.03
 -23  -4   4  -23.20   13.74
 -23   4   4    9.88    7.58
 -23  -4  -5   22.24   14.83
 -23   4   5    1.30    1.04
 -23  -4  -6   26.57   15.11
 -23   4   6    5.62    2.06
 -23   4   7   -4.25    8.57
 -23   4   8   -6.61    9.33
 -24  -4   0   11.63    9.53
 -24  -4   1   27.09   14.21
 -24   4   1   33.94   16.09
 -24  -4  -1   35.47   17.01
 -24  -4  -2   23.92   13.57
 -24   4   2    4.92    7.18
 -24  -4  -3   48.36   18.98
 -24   4   3   19.55   13.00
 -24  -4  -4   29.66   17.17
 -24   4   4    2.22    5.06
 -24  -4  -5   42.07   16.56
 -24   4   5   19.57   12.18
 -24   4   6   -2.01    7.05
 -25  -4   0   14.14   11.96
 -25  -4  -1   31.55   18.50
 -25  -4   1    7.17    9.63
 -25  -4  -2   47.05   20.11
 -25   4   2   25.51   15.32
 -25  -4  -3   29.20   15.58
 -25   4   3    9.51   11.01
 -25  -4  -4   42.05   18.95
 -25   4   4   17.23   11.54
 -25   4   5    6.91    7.87
 -26   4   3   11.41   12.13
   0   5   0   -0.26    1.54
   0  -5   0    0.09    1.05
   0  -5  -1  106.45   13.11
   0   5  -1  106.37   12.86
   0   5   1  102.97   13.01
   0  -5   1  103.86   13.14
   0   5   2    0.98    1.35
   0  -5  -2   -0.56    1.74
   0   5  -2   -0.94    1.92
   0   5  -2    1.29    3.26
   0  -5   2    0.57    1.14
   0  -5  -3  583.43   32.02
   0   5  -3  570.71   29.58
   0  -5   3  579.41   31.21
   0   5  -3  550.30   27.82
   0  -5  -4    0.47    1.88
   0   5  -4    0.17    1.28
   0  -5   4    0.46    1.54
   0  -5  -5  625.44   34.88
   0   5  -5  612.55   31.68
   0  -5   5  616.63   34.40
   0   5  -5  592.81   28.94
   0  -5   5  588.20   27.83
   0  -5  -6    1.15    2.63
   0   5  -6    0.19    0.81
   0  -5   6    0.21    0.99
   0  -5   6    0.81    2.95
   0   5  -6    6.73    4.85
   0   5  -7  195.53   19.10
   0   5  -7  200.47   18.62
   0  -5   7  186.80   16.23
   0  -5   7  197.11   20.40
   0  -5   8   -4.17    3.81
   0   5  -8   -0.40    1.02
   0   5  -9   25.10    7.21
   0  -5   9   16.00    2.27
   0   5 -10    1.06    1.68
   0  -5  11  467.28   28.24
   0   5 -11  477.97   34.09
   0  -5  12   -8.33    7.15
   0   5 -12   -0.39    0.58
   0  -5  13  474.41   29.49
   0  -5  14   39.55   10.03
   0  -5  15  108.43   15.25
   0   5  16  -21.58   14.99
   0  -5  16   43.76   10.54
   0   5  17   66.46   19.20
   0  -5  17  111.88   16.48
   0   5  18   -3.31    8.11
   0  -5  18   39.71   10.29
   0   5  19    6.12    6.24
   0   5  20   -4.50    6.08
   0   5  21   45.18   19.58
   0   5  22    2.66    7.04
   0   5  23    9.23    9.56
  -1   5   0    1.22    0.98
  -1  -5   0    2.68    1.31
   1   5   0    2.41    1.91
   1   5   0   -0.58    2.43
   1  -5   0    2.28    2.32
  -1  -5   1   19.22    5.47
   1   5  -1   21.95    5.97
  -1   5  -1   18.81    5.48
   1   5   1   22.04    6.49
  -1   5   1   21.56    5.92
   1  -5  -1   18.79    5.71
   1  -5   1   18.54    5.55
  -1  -5  -1   17.77    5.31
   1   5  -1   19.61    6.33
  -1  -5   2   17.58    5.32
   1  -5  -2   17.56    5.33
   1   5  -2   19.05    5.17
  -1  -5  -2   16.98    5.41
  -1   5  -2   19.91    5.57
  -1   5   2   17.42    5.38
   1   5  -2   18.74    6.47
   1  -5   2   16.46    5.38
  -1  -5  -3    5.18    3.50
  -1   5   3    4.49    2.94
   1   5  -3    3.35    1.94
   1  -5  -3    3.56    2.26
  -1   5  -3    5.03    3.63
  -1  -5   3    2.62    1.67
   1   5  -3   -6.59    5.07
  -1  -5   3    4.23    2.53
   1  -5   3    3.21    2.26
  -1   5  -3    3.73    2.48
   1   5  -4   11.65    4.35
   1  -5  -4    8.31    3.57
  -1  -5  -4    9.19    4.90
  -1  -5   4   11.19    4.64
  -1   5  -4    7.16    2.31
   1  -5   4    8.57    4.14
  -1  -5   4    9.10    3.78
  -1   5  -4    8.96    3.93
   1  -5  -5  137.61   16.24
   1   5  -5  140.07   14.59
  -1   5  -5  145.41   16.32
   1  -5   5  137.76   17.03
  -1  -5   5  139.64   15.74
   1   5  -5  138.83   15.11
  -1  -5   5  138.70   14.95
  -1   5  -5  121.49   11.70
   1  -5  -6    2.46    2.78
   1  -5   6    2.23    2.11
  -1   5  -6    2.37    2.43
   1   5  -6    2.68    2.14
  -1  -5   6    2.84    2.29
  -1   5  -6   12.33    6.04
  -1  -5   6   -1.31    2.33
   1  -5   6    2.76    1.03
   1   5  -6    8.80    4.96
   1   5  -7   56.80    9.71
   1  -5  -7   55.31   10.98
   1  -5   7   56.00   11.44
  -1  -5   7   52.91   10.11
  -1   5  -7   54.91   10.63
  -1  -5   7   41.02    7.37
  -1   5  -7   55.92    8.77
   1  -5   7   54.62    8.09
   1   5  -7   56.57   10.34
   1  -5  -8    0.55    1.77
   1  -5   8    2.25    3.00
  -1  -5   8    0.10    0.40
  -1   5  -8    1.05    1.22
   1   5  -8    0.29    0.75
   1  -5  -9    6.87    4.20
   1  -5   9    3.60    0.49
  -1   5  -9    8.15    4.46
   1   5  -9    9.55    4.16
   1   5 -10   -0.03    0.65
  -1   5 -10    0.55    0.85
   1   5 -11   23.31    7.25
   1  -5  11    8.92    4.28
  -1  -5  12   35.89    9.90
   1   5 -12    4.89    3.46
  -1  -5  13   28.70    9.73
   1   5 -13    3.83    3.36
  -1  -5  14   25.77    9.55
  -1  -5  15   30.39   10.33
   1  -5  15   13.60    2.83
  -1   5  16  -12.81   14.43
   1   5  16   -7.97   11.36
  -1  -5  16   27.60    9.63
   1  -5  16   33.45    6.61
   1   5  17    6.12    3.46
  -1   5  17    0.01    5.72
  -1  -5  17   38.09   11.14
   1  -5  17   50.73    9.21
  -1   5  18  -11.64   11.78
   1   5  18   -4.54    8.76
  -1   5  19   -6.88    7.75
   1   5  19   -0.78    2.16
  -1   5  20   -1.83    4.81
   1   5  20   -3.07    3.41
   1   5  21   -2.82    4.08
  -1   5  21    1.61    6.13
   1   5  22    3.27    2.18
  -1   5  22    2.11    7.14
  -1   5  23    4.82    7.20
   1   5  23   -0.06    5.17
  -2   5   0    0.62    0.98
  -2  -5   0   -0.03    0.79
   2  -5   0   -0.59    1.67
  -2  -5   1  354.66   23.51
   2  -5  -1  360.73   24.74
   2   5  -1  359.23   23.94
  -2   5  -1  353.26   24.21
   2  -5   1  347.05   25.23
  -2  -5  -1  365.28   25.22
  -2   5   1  352.40   24.03
   2   5   1  358.51   25.61
   2   5  -1  370.45   25.75
  -2  -5   2    6.48    2.97
   2   5  -2    7.66    3.43
  -2   5   2    5.20    2.78
  -2  -5  -2    9.98    4.48
   2  -5  -2    5.93    3.21
   2   5  -2    1.47    4.17
  -2  -5   2    8.62    4.06
   2  -5   2    6.85    3.56
  -2   5  -2    6.57    3.45
  -2  -5   3  642.77   30.97
   2  -5  -3  635.57   32.47
  -2   5  -3  636.33   33.78
  -2   5   3  652.56   33.41
   2   5  -3  640.88   30.78
  -2  -5   3  618.62   32.24
   2   5  -3  640.70   34.48
   2  -5   3  634.13   36.12
  -2   5   4   -0.27    1.28
   2  -5  -4    0.59    1.19
   2   5  -4   -0.39    0.93
  -2   5  -4    3.83    3.55
  -2  -5   4   -0.41    1.36
   2  -5   4   -0.63    1.18
  -2   5  -4    0.46    1.27
  -2  -5   4    0.10    0.98
   2  -5  -5  270.94   21.89
  -2  -5   5  271.21   20.67
   2   5  -5  267.25   19.57
  -2   5  -5  271.77   23.47
   2  -5   5  275.29   24.96
  -2  -5   5  262.03   21.88
  -2   5  -5  263.18   16.65
   2   5  -5  272.58   23.30
   2  -5  -6    0.50    1.34
   2   5  -6    0.86    1.47
  -2   5  -6    0.34    0.91
   2  -5   6    1.30    2.07
  -2  -5   6    1.13    1.73
  -2  -5   6   -3.96    6.71
   2   5  -6    3.08    3.60
   2  -5  -7    6.14    3.55
   2   5  -7    7.84    3.47
  -2   5  -7    6.16    3.89
  -2  -5   7    6.53    3.55
  -2  -5   7   -8.91    8.27
   2   5  -7    0.59    3.44
   2   5  -7    9.20    5.56
  -2   5  -7    5.77    2.40
   2  -5  -8    1.04    2.02
  -2   5  -8   -0.40    1.84
  -2  -5   8   -0.44    1.01
   2   5  -8    0.79    1.46
   2  -5   8   -0.33    0.18
   2   5  -8    1.03    3.28
   2  -5  -9   15.61    5.91
   2   5  -9   18.68    5.45
   2  -5   9   22.87    5.00
  -2   5  -9   14.51    6.30
   2  -5 -10    3.32    3.36
   2  -5  10    6.73    3.51
   2   5 -10    1.97    2.40
   2   5 -11  101.85   13.89
   2  -5 -11  102.09   16.07
  -2  -5  11  126.25   16.91
   2  -5  11  106.28   10.51
   2  -5 -12    1.14    2.28
   2  -5  12   -4.69    3.75
   2   5 -12    0.02    1.42
   2   5 -13  127.96   16.57
   2  -5 -13  126.51   18.60
  -2  -5  13  140.72   19.62
   2  -5  13  118.89   11.74
   2  -5 -14    0.70    2.37
   2   5 -14    1.91    1.78
   2  -5 -15    0.44    1.28
   2   5  15   -8.17   10.99
   2   5 -15    0.92    0.95
   2  -5 -16    0.72    2.30
   2   5  16   -8.03    9.03
  -2   5  17   -6.25   10.76
   2  -5 -17    2.92    3.15
   2   5  17   -1.36    4.63
   2  -5 -18    0.51    2.04
  -2   5  18  -11.14   11.69
   2   5  18   -3.81    8.37
  -2   5  19   -4.74    8.11
   2  -5 -19    1.70    2.55
   2   5  19    0.50    4.64
   2  -5 -20    1.17    3.85
  -2   5  20    0.72    5.98
   2   5  20    1.63    4.34
   2   5  21   42.04   18.30
  -2   5  21   34.06   16.73
  -2   5  22   -5.18    6.42
   2   5  22    3.95    8.99
  -2   5  23    1.02    4.70
   2   5  23   13.30   14.34
   3  -5   0   96.83   13.45
  -3  -5   0   98.74   13.08
  -3   5   0   89.59   12.40
   3   5   0  101.29   14.52
  -3   5   1    0.37    0.62
  -3  -5   1    0.46    0.97
  -3  -5  -1    0.67    2.54
   3   5   1    4.11    4.68
   3   5  -1   -5.52    5.02
  -3  -5   1    0.87    2.74
  -3   5  -1    0.80    1.06
   3  -5  -1    0.20    0.62
   3  -5   1   -0.30    1.18
  -3   5   2    2.07    2.08
  -3  -5   2    0.60    0.72
  -3  -5   2    4.78    4.59
   3   5  -2   -6.99    7.29
   3   5   2    2.04    2.52
   3  -5  -2    1.06    1.17
   3  -5   2    1.11    2.12
  -3   5  -2    1.39    1.59
   3   5  -3    3.38    2.34
  -3  -5   3    2.68    1.58
  -3   5   3    1.07    1.28
  -3  -5   3   10.42    5.06
   3  -5  -3    1.43    1.86
   3  -5   3    2.76    2.73
  -3   5  -3    2.00    1.74
  -3   5   4   14.19    5.39
  -3  -5   4   15.68    4.69
   3  -5  -4   14.50    5.10
   3   5  -4   16.49    5.07
   3  -5   4   17.22    6.28
  -3   5  -4   14.08    5.68
  -3  -5   4   10.45    2.93
  -3   5  -4   16.72    3.81
  -3   5   5    1.10    1.42
   3   5  -5    1.59    1.39
   3  -5  -5    0.97    0.89
  -3   5  -5    2.04    2.21
  -3  -5   5    0.91    1.31
   3  -5   5    0.82    1.65
  -3  -5   5   -3.96    6.19
  -3   5  -5    2.52    1.97
   3   5  -5    5.66    6.00
  -3   5  -6    1.80    1.94
  -3  -5   6   -0.52    1.51
   3   5  -6    0.71    1.18
   3  -5  -6    0.61    0.03
   3   5  -6   -0.73    2.13
  -3  -5   7   -0.42    1.42
  -3   5  -7    0.61    0.22
   3   5  -7    0.15    0.69
   3  -5  -7   -0.56    1.81
   3   5  -7   -4.20    5.81
  -3   5  -7    1.47    1.66
   3   5  -7    0.96    3.36
  -3  -5   8   15.26    5.06
   3  -5  -8   15.90    5.52
   3   5  -8   14.42    4.53
   3   5  -8   23.56    8.91
   3   5  -9    1.54    1.78
   3  -5  -9    1.40    1.79
  -3  -5   9    2.19    1.58
   3   5 -10    8.10    3.69
   3  -5 -10    8.41    3.98
   3  -5 -11    0.08    1.57
   3  -5  11    1.09    1.74
   3   5 -11    0.87    1.35
   3  -5 -12    5.34    3.55
   3  -5  12   10.88    3.71
   3   5 -12    4.50    2.99
   3  -5 -13    3.83    3.57
   3  -5  13    8.54    3.49
   3   5 -13    2.81    2.55
   3   5  14   -5.07    8.27
   3  -5 -14    0.67    0.38
   3  -5  14    0.58    1.66
   3   5 -14    1.37    1.83
   3   5  15   -4.55    8.80
   3  -5 -15    1.85    2.71
   3   5 -15    1.53    1.78
   3  -5  15   -0.69    0.94
   3  -5 -16    7.69    4.85
   3  -5  16    6.23    1.38
   3   5  16   11.05    6.92
   3  -5 -17   22.42    8.55
  -3   5  17   11.59    5.24
  -3  -5  17   45.75   13.71
   3   5  17   22.03   11.37
   3  -5 -18    4.59    4.24
  -3  -5  18   23.18   10.80
   3   5  18    9.13    8.00
  -3   5  19   -0.12    7.71
   3  -5 -19    7.34    4.95
  -3  -5  19   22.19   10.63
   3   5  19    7.01    8.15
  -3  -5  20   14.75    9.37
  -3   5  20   -3.96    7.64
   3   5  20    4.28    7.57
  -3   5  21    0.06    4.20
   3   5  21   -1.88    2.77
   3   5  22    6.76    9.27
  -3   5  22    2.43    2.52
  -3   5  23    9.15   10.45
   3   5  23    7.55    9.66
  -4   5   0   48.21    9.62
  -4  -5   0   51.27    9.86
   4   5   0   44.76    9.20
  -4  -5   0   47.77    9.78
   4  -5   0   51.34   10.21
  -4   5  -1  193.57   19.12
  -4   5   1  183.31   18.06
  -4  -5   1  183.78   17.76
  -4  -5   1  194.30   19.90
   4   5   1  190.45   20.47
   4   5  -1  165.62   18.69
   4  -5  -1  182.56   18.67
   4  -5   1  179.72   20.02
  -4   5   2   15.95    5.31
  -4  -5   2   16.93    5.51
   4  -5  -2   17.23    5.80
  -4   5  -2   19.15    6.34
   4   5   2   21.13    8.02
  -4  -5   2   20.18    7.29
   4   5  -2   -0.40    9.61
   4  -5   2   17.49    6.32
   4  -5  -3   92.13   12.98
  -4   5   3   85.05   12.47
  -4  -5   3   85.34   11.21
   4   5  -3  117.88   16.05
  -4  -5   3   80.00   13.03
   4   5   3   85.42   13.79
   4  -5   3   90.79   14.65
  -4   5  -3   87.30   13.70
  -4   5   4    0.30    0.70
  -4  -5   4   -0.11    0.87
   4  -5   4    0.76    1.24
  -4   5  -4    1.46    2.93
   4  -5  -4    0.24    1.63
  -4  -5   4   -3.50    6.90
   4   5   4   -2.81    2.58
  -4   5   5    8.64    4.03
   4   5  -5    7.72    3.48
  -4  -5   5    7.29    3.41
   4  -5  -5    8.35    3.80
  -4   5  -5    6.97    4.38
  -4   5  -5    6.36    2.22
   4   5  -5   10.87    5.67
  -4   5   6    2.47    2.58
   4  -5  -6    1.77    2.19
   4   5  -6    2.55    2.35
  -4  -5   6    1.07    1.32
  -4   5  -6    0.86    0.70
  -4   5  -6   -4.84    3.31
   4   5  -6   -0.57    4.31
   4   5  -6    3.24    3.97
   4  -5  -7   90.48   12.96
   4   5  -7   89.02   11.23
  -4  -5   7   88.13   11.58
  -4   5  -7   93.38    7.72
  -4  -5   7   61.21    3.77
   4   5  -7   91.18   15.33
   4  -5  -8   14.38    5.33
   4   5  -8   10.39    3.65
  -4  -5   8   12.40    4.34
   4   5  -8   13.48    6.78
   4   5  -9  472.60   26.10
   4  -5  -9  471.64   31.13
  -4  -5   9  450.18   33.03
  -4  -5   9  483.84   28.44
   4   5 -10    2.23    1.69
   4  -5 -10    2.13    2.46
   4  -5 -11    4.67    3.23
   4   5 -11    4.08    2.29
   4   5 -12    0.19    1.51
   4  -5 -12    0.36    2.31
   4   5  13   -1.89    7.99
   4   5 -13    4.94    3.11
   4  -5 -13    3.07    2.66
   4   5  14   -3.50    8.58
   4   5 -14    0.50    1.63
   4  -5 -14    1.05    2.03
   4  -5 -15    5.52    3.54
   4   5 -15    6.20    3.43
   4   5  15   -2.14    7.56
   4  -5 -16    3.32    3.22
   4   5  16    3.57    1.73
  -4  -5  16   12.51    9.63
   4  -5 -17   23.58    8.14
  -4  -5  17   41.36   13.71
   4   5  17   26.16   12.06
   4  -5 -18    0.47    1.13
  -4   5  18   -2.06    9.59
   4   5  18   -1.30    4.00
  -4  -5  18   13.53    9.30
  -4   5  19   -7.36   11.40
   4   5  19    3.01    4.72
  -4  -5  19   15.65    9.71
  -4  -5  20   16.00   10.31
  -4   5  20   -4.01    6.03
   4   5  20    6.75    8.20
   4   5  21   14.87   12.52
  -4   5  21    3.81    4.58
  -4   5  22    1.09    0.87
   4   5  22    6.28   11.35
   4   5  23    5.07    9.19
  -4   5  23    3.12    5.44
  -5   5   0  589.02   33.94
  -5  -5   0  618.60   36.80
   5   5   0  595.71   38.80
   5  -5   0  603.06   36.40
  -5  -5   1    7.38    4.64
  -5  -5   1   11.38    6.23
   5   5   1    6.72    3.59
  -5  -5  -1    3.06    1.17
  -5   5  -1    7.03    3.93
   5  -5   1    7.12    4.34
  -5   5   1    5.65    3.14
   5  -5  -1    6.83    3.68
  -5   5   2  308.63   23.73
  -5  -5   2  310.83   22.90
   5   5  -2  322.58   27.59
   5   5   2  320.43   27.73
  -5  -5   2  293.00   27.12
   5  -5   2  307.58   27.71
  -5   5  -2  303.89   25.83
   5  -5  -2  306.17   24.74
  -5  -5   3   19.67    5.49
  -5   5   3   17.14    5.58
   5  -5  -3   22.04    6.58
  -5  -5   3   16.81    3.46
   5   5   3   21.64    7.75
   5   5  -3   32.04   11.06
  -5   5  -3   19.71    7.17
   5  -5   3   17.85    6.88
  -5   5   4   45.35    9.10
  -5  -5   4   46.25    8.07
   5  -5  -4   46.64    9.44
  -5   5  -4   45.64   10.67
   5  -5   4   45.51   11.35
  -5  -5   4   30.53    5.69
   5   5   4   47.04   10.93
   5   5  -4   51.14   12.70
  -5   5   5    5.49    3.02
  -5  -5   5    5.08    2.88
   5  -5  -5    7.28    3.65
   5   5   5    7.27    5.41
   5   5  -5    6.53    3.71
   5   5  -5    5.57    3.84
  -5  -5   6  144.08   13.84
   5  -5  -6  140.50   16.41
  -5   5   6  142.11   16.34
   5   5   6  148.00   18.92
  -5   5  -6  139.73    8.73
  -5  -5   6  122.21   13.75
   5   5  -6  134.73   20.20
   5   5  -6  149.69   18.41
   5   5  -7    6.41    3.31
  -5  -5   7    5.10    2.55
   5  -5  -7    5.71    3.27
  -5  -5   7   13.67    2.01
   5   5  -7    6.84    4.44
   5   5  -8  224.93   17.76
   5  -5  -8  227.47   21.10
  -5  -5   8  226.90   18.11
  -5  -5   8  248.12   25.28
   5   5  -8  215.04   24.50
   5  -5  -9    3.16    2.40
   5   5  -9    1.85    1.73
  -5  -5   9    2.34    2.12
   5   5 -10  189.81   16.35
   5  -5 -10  183.65   19.47
  -5  -5  10  209.66   25.69
   5  -5 -11   24.24    7.26
   5   5 -11   24.04    5.79
   5   5  12   18.95    6.62
   5  -5 -12   28.39    7.69
   5   5 -12   27.14    6.32
   5   5 -13    0.56    1.03
   5   5  13   -3.41    6.23
   5  -5 -13    1.64    2.44
   5  -5 -14   19.05    6.88
   5   5 -14   18.16    5.13
  -5  -5  14   34.41   12.92
   5   5  14   13.22    6.32
   5  -5 -15    9.56    4.56
   5   5  15    7.29    4.90
   5  -5 -16   42.35   10.73
  -5  -5  16   55.88   15.77
   5   5  16   44.11   15.80
   5  -5 -17    8.88    4.61
   5   5  17    4.04    4.14
   5  -5 -18   14.52    6.42
  -5   5  18    8.81    2.79
   5   5  18   15.50    9.85
  -5  -5  18   24.91   11.73
  -5   5  19   -5.63   10.35
  -5  -5  19    8.88    8.67
   5   5  19    3.65    6.74
  -5   5  20   -5.40    9.60
  -5  -5  20   16.71   10.72
   5   5  20    6.44    6.35
  -5  -5  21   19.76   11.62
  -5   5  21   -5.76    7.65
   5   5  21    4.90    9.49
  -5   5  22   -3.97    7.04
   5   5  22    4.47    7.04
   5   5  23   13.87   12.35
  -5   5  23   -0.15    3.18
  -6   5   0    0.82    2.43
   6  -5   0    1.52    2.21
  -6   5   1 2849.94   76.00
  -6   5  -1 2828.44   80.55
   6   5  -1 2696.85   82.96
  -6  -5   1 2763.92   84.35
  -6  -5  -1 2800.56   82.41
   6   5   1 2843.87   90.14
   6  -5   1 2823.38   84.29
   6  -5  -1 2784.07   80.84
  -6  -5   2   16.23    5.73
   6   5   2    8.09    2.29
  -6  -5   2   13.05    4.54
  -6  -5  -2    5.99    2.75
   6  -5   2   13.23    6.20
   6  -5  -2   12.25    5.24
  -6   5   2   13.77    5.18
  -6   5  -2   12.96    6.27
  -6  -5   3  321.69   23.12
  -6   5   3  317.44   24.39
   6  -5  -3  317.05   26.18
  -6   5  -3  326.81   29.20
   6   5  -3  323.88   30.58
   6   5   3  328.67   29.18
  -6  -5   3  293.70   27.88
  -6  -5   4   -0.19    1.18
  -6   5   4    0.89    1.28
   6  -5  -4    0.54    0.28
   6   5   4    1.99    3.53
   6   5  -4    3.54    4.80
  -6   5   5   80.28   12.13
  -6  -5   5   82.23   10.64
   6  -5  -5   79.30   12.48
  -6  -5   5   46.71    5.83
   6   5   5   90.37   15.27
   6   5  -5   86.15   12.73
  -6  -5   6    8.31    3.29
  -6   5   6    7.79    3.78
   6  -5  -6    6.43    3.15
   6   5  -6    7.51    4.14
   6  -5  -7  713.76   37.48
  -6  -5   7  703.30   30.51
  -6   5   7  710.20   36.90
  -6  -5   7  689.00   42.98
   6   5  -7  718.14   40.51
   6  -5  -8    3.09    2.14
  -6  -5   8    4.02    2.40
   6   5  -8    5.75    4.07
   6  -5  -9  509.99   32.28
  -6  -5   9  518.37   26.67
  -6  -5   9  469.87   37.35
   6   5  -9  495.65   38.35
   6   5  10   -5.10    6.54
   6  -5 -10    2.66    1.92
   6  -5 -11  163.33   18.45
  -6  -5  11  178.29   25.31
   6   5  11  154.35   23.82
   6   5 -12    0.57    1.38
   6   5  12   -3.28    5.93
   6  -5 -12    0.31    1.74
   6   5 -13   25.95    5.55
   6  -5 -13   25.74    7.66
  -6  -5  13   40.44   13.28
   6   5  13   15.85    6.60
   6   5 -14    4.20    2.26
   6  -5 -14    5.45    4.14
   6   5  14    4.07    2.59
   6  -5 -15   13.25    5.85
  -6  -5  15   28.25   11.71
   6   5  15   16.31    8.47
   6  -5 -16    1.12    1.69
   6   5  16    1.71    2.98
   6  -5 -17   97.19   15.41
  -6  -5  17   99.17   21.85
   6   5  17   91.30   23.57
  -6   5  18   -8.43   13.25
  -6  -5  18   16.34   10.28
   6   5  18    6.12    7.58
  -6   5  19    8.05    3.07
  -6  -5  19   23.24   12.51
   6   5  19   27.46   14.29
  -6   5  20   -6.71   11.15
   6   5  20   11.40   11.21
  -6  -5  20   15.70   11.04
  -6  -5  21   15.65   10.81
   6   5  21   18.35   13.00
  -6   5  21   -2.31    7.50
   6   5  22   12.55   12.04
  -6   5  22   -1.84    1.48
   6   5  23    8.32   11.85
  -6   5  23    1.81    5.34
  -7   5   0 1609.28   61.38
  -7  -5   0 1551.10   66.12
   7  -5   0 1668.82   65.72
  -7   5   1   77.92   13.22
  -7  -5  -1   84.15   15.91
  -7  -5   1   75.62   14.50
   7  -5   1   86.91   15.75
  -7   5  -1   87.45   15.05
   7  -5  -1   85.25   14.63
  -7   5   2  565.92   34.62
  -7  -5  -2  580.05   38.95
  -7  -5   2  541.15   39.89
   7  -5  -2  570.61   36.75
  -7  -5   3   11.91    4.93
  -7   5   3   10.84    4.62
   7  -5  -3    9.70    4.80
  -7   5   4  163.53   17.89
  -7  -5   4  161.95   16.09
   7  -5  -4  156.06   18.77
  -7  -5   4  137.68   17.13
   7   5  -4  162.21   15.37
   7  -5  -5    1.72    2.69
  -7  -5   5    0.23    0.21
  -7   5   5   -0.63    1.93
   7   5  -5    2.07    2.64
  -7  -5   6  126.72   12.81
  -7   5   6  124.97   15.48
   7  -5  -6  130.43   16.65
  -7  -5   6  106.64   16.42
   7   5  -6  126.36   15.76
  -7   5   7    6.41    3.50
  -7  -5   7    8.57    3.29
   7  -5  -7    5.97    2.99
   7   5  -7    6.77    3.43
  -7  -5   8  424.12   22.97
  -7   5   8  412.64   28.44
   7  -5  -8  413.13   29.60
  -7  -5   8  417.16   36.08
   7   5  -8  423.13   32.47
   7   5   9   14.43    4.97
   7  -5  -9   18.90    6.03
  -7  -5   9   17.38    4.69
   7   5  -9   16.83    6.25
   7  -5 -10  336.05   26.74
  -7  -5  10  333.84   20.33
  -7  -5  10  330.14   34.16
   7   5  10  328.86   34.18
   7  -5 -11    0.16    1.08
   7   5  11   -0.52    4.76
   7  -5 -12   10.11    4.36
   7   5  12   12.46    5.11
   7  -5 -13    8.58    4.23
   7   5  13    5.20    2.69
   7  -5 -14    5.93    3.59
   7   5  14    5.49    5.38
   7  -5 -15    1.63    2.48
   7   5  15    3.33    3.42
   7  -5 -16    8.06    4.65
   7   5  16   11.13    8.02
  -7  -5  16   25.71   12.60
  -7  -5  17   16.97   11.57
   7   5  17    6.48    7.70
  -7   5  18    4.88    6.90
   7   5  18   23.19   13.51
  -7  -5  18   33.87   13.90
  -7   5  19   -7.60   10.57
   7   5  19   13.35   11.83
  -7  -5  19   18.98   12.41
  -7   5  20  -11.37   13.37
   7   5  20    4.79    6.66
  -7  -5  20   12.15   10.36
   7   5  21    7.70   12.08
  -7   5  21   -2.28    7.70
  -7  -5  21   21.96   12.67
  -7  -5  22   21.95   13.51
   7   5  22   11.37   10.90
  -7   5  22   -7.42    7.87
  -7   5  23   12.57   11.80
   7   5  23   11.01   12.98
  -8  -5   0    5.76    5.54
  -8   5   0    2.35    3.76
   8  -5   0    0.71    0.53
  -8   5   1  520.19   35.23
   8  -5  -1  517.98   37.61
  -8  -5  -1  538.84   40.19
  -8  -5   1  499.55   39.46
  -8   5   2   13.07    5.52
   8  -5  -2   20.64    7.49
  -8  -5  -2   14.76    7.89
  -8  -5   2    5.61    7.03
  -8   5   3   91.62   14.04
   8  -5  -3   95.36   15.66
  -8  -5  -3   95.34   16.14
  -8  -5   3   73.22   11.61
   8   5  -3   98.13   10.42
  -8   5   4    0.51    1.58
   8  -5  -4    0.19    1.60
  -8  -5   4   -0.11    0.49
   8   5  -4    1.28    2.44
  -8   5   5   41.88    9.14
  -8  -5   5   39.63    7.90
   8  -5  -5   37.29    9.23
   8   5  -5   41.07    8.00
  -8  -5   6    1.23    1.06
  -8   5   6    0.27    1.38
   8  -5  -6   -0.68    1.94
   8   5  -6    0.28    1.46
  -8   5   7   60.22   10.91
  -8  -5   7   60.78    8.64
   8  -5  -7   66.10   12.16
   8   5  -7   59.72   11.29
   8   5   7   58.59   11.54
  -8   5   8    5.80    4.01
   8   5   8    0.46    4.94
   8   5  -8   -1.31    4.34
   8  -5  -8    5.39    3.88
  -8  -5   8    3.97    2.29
  -8  -5   9  232.03   16.51
   8  -5  -9  231.99   22.87
  -8  -5   9  260.60   30.72
   8   5   9  237.16   26.99
   8   5  -9  223.66   24.70
   8  -5 -10    0.02    0.95
   8   5  10   -1.06    3.91
   8  -5 -11   33.72    8.60
   8   5  11   29.60   10.28
   8  -5 -12   -0.03    0.71
   8   5  12   -0.17    2.15
   8  -5 -13    0.37    1.45
   8   5  13    0.16    4.16
   8  -5 -14    0.00    1.19
   8   5  14    3.63    4.54
   8  -5 -15   52.77   10.95
  -8  -5  15   66.64   18.23
   8   5  15   66.54   19.54
  -8  -5  16   14.97   10.49
   8   5  16    3.05    5.95
   8   5  17   23.77   13.00
  -8  -5  17   27.65   13.17
   8   5  18    5.07    8.40
  -8  -5  18   17.35   10.60
  -8   5  19  -10.83   14.39
   8   5  19    7.51    9.53
  -8  -5  19   17.63   11.79
  -8   5  20  -11.83   14.48
   8   5  20   10.82   11.49
  -8  -5  20   13.02   10.72
   8   5  21    4.07    9.20
  -8   5  21   -4.81    9.70
  -8  -5  21   13.77   11.59
  -8  -5  22   22.07   14.85
  -8   5  22    1.17    3.08
   8   5  22    5.41    8.96
   8   5  23   18.18   13.19
  -9  -5   0  105.57   18.22
  -9  -5   1   -4.92    8.68
  -9  -5  -1    3.17    6.14
   9   5  -1    0.90    0.94
  -9   5   2    4.45    3.27
   9  -5  -2    6.97    4.41
  -9  -5  -2   13.90    9.46
   9   5  -2    6.81    2.22
  -9   5   3   35.14    9.23
   9  -5  -3   33.96    9.52
  -9  -5  -3   33.98   10.78
  -9  -5   3   13.72    9.14
   9   5  -3   34.98    5.39
  -9   5   4  170.04   19.72
   9  -5  -4  181.27   22.07
  -9  -5  -4  178.17   22.54
  -9  -5   4  122.88   19.98
   9   5  -4  173.53   14.25
   9   5   4  168.05   16.00
  -9   5   5   23.29    7.02
   9   5   5   18.00    4.62
  -9  -5   5   22.85    6.15
   9   5  -5   20.24    5.04
   9  -5  -5   23.29    7.63
  -9   5   6   30.12    7.65
  -9  -5   6   33.98    7.07
   9  -5  -6   33.85    9.16
   9   5   6   32.84    8.00
   9   5  -6   30.72    6.90
  -9   5   7    5.67    2.98
  -9  -5   7    7.41    3.02
   9  -5  -7    8.95    4.72
  -9   5  -7   19.41    4.49
   9   5   7    8.50    4.07
  -9  -5   8   28.56    5.91
  -9   5   8   24.43    7.21
   9  -5  -8   27.81    8.14
   9   5   8   26.09    8.53
  -9  -5   9   19.59    4.55
  -9   5   9   18.19    6.22
   9  -5  -9   19.85    6.81
   9   5   9   21.32    8.16
   9  -5 -10    4.83    3.34
  -9  -5  10    3.08    1.57
   9   5  10    5.14    4.38
   9  -5 -11    4.36    3.04
   9   5  11    3.00    4.28
   9  -5 -12   12.19    5.32
   9   5  12   15.14    8.49
   9  -5 -13    1.87    1.61
   9   5  13    7.70    7.41
   9  -5 -14   34.13    8.80
  -9  -5  14   65.64   19.28
   9   5  14   35.32   13.60
   9   5  15    9.11    8.09
  -9  -5  15   17.28   11.42
  -9  -5  16   21.21   12.10
   9   5  16   11.95   10.43
   9   5  17    9.85    9.59
  -9  -5  17   22.19   12.33
   9   5  18   11.46   10.75
  -9  -5  18   18.53   12.44
  -9   5  19   -4.55   11.26
   9   5  19   13.75   10.42
  -9  -5  19   20.37   13.70
  -9   5  20   -5.72    8.23
  -9  -5  20   21.72   13.32
   9   5  20    7.13    8.88
  -9  -5  21   20.80   14.47
   9   5  21    3.65    6.87
  -9   5  21   -4.61    9.50
  -9  -5  22   29.00   15.33
  -9   5  22    8.73    9.80
   9   5  22    7.99    7.80
  -9  -5  23   27.11   16.15
   9   5  23    8.24   10.15
 -10  -5   0    5.27    3.37
 -10  -5   1    0.51    7.22
 -10  -5  -1   12.76    6.48
 -10  -5   2  -13.65   12.62
  10   5   2    0.56    0.93
 -10  -5  -3  201.68   25.73
 -10  -5   3  153.74   22.69
  10   5   3  202.14   14.52
  10  -5  -4    9.26    4.95
 -10   5   4    7.15    4.44
 -10  -5  -4    8.73    6.06
  10   5   4    7.44    2.99
 -10   5   5  130.41   17.14
 -10  -5   5  134.82   15.42
  10  -5  -5  136.88   19.58
 -10  -5   5   94.07   12.54
  10   5   5  133.15   15.23
 -10  -5   6    1.79    0.99
 -10   5   6    3.65    2.66
  10  -5  -6    0.74    1.13
  10   5   6    1.30    1.38
 -10   5  -6    0.08    2.51
 -10  -5   7   -0.11    1.05
  10  -5  -7    0.93    0.55
  10   5   7   -0.06    2.24
 -10  -5   8    0.29    0.33
 -10   5   8   -0.55    0.47
  10  -5  -8    0.93    1.39
  10   5   8    1.43    2.56
 -10   5   9    0.49    0.71
  10  -5  -9    0.36    1.12
 -10  -5   9    0.52    1.10
  10   5   9    2.75    4.15
 -10  -5  10    9.08    2.63
  10  -5 -10    8.99    5.05
  10   5  10   12.35    6.64
  10  -5 -11   11.51    5.54
  10   5  11   20.15    9.71
  10  -5 -12    3.17    2.43
  10   5  12   10.40    7.04
  10  -5 -13   19.87    6.56
 -10  -5  13   46.44   17.11
  10   5  13   28.84   12.02
  10  -5 -14    0.71    1.75
  10   5  14   11.67    8.94
 -10  -5  14   17.66   11.67
  10   5  15   12.38    9.09
 -10  -5  15   27.09   13.73
  10   5  16    8.24    8.61
 -10  -5  16   17.23   12.09
  10   5  17   14.46   11.90
 -10  -5  17   12.51   12.14
 -10  -5  18   20.45   12.95
  10   5  18    7.37    9.36
 -10   5  19  -10.04   14.63
 -10  -5  19   18.12   12.51
  10   5  19    4.24    8.10
 -10   5  20  -10.32   11.91
 -10  -5  20   18.07   12.74
  10   5  20    5.30    8.38
 -10   5  21   -3.19    6.04
  10   5  21    2.83    7.75
  10   5  22    8.11    8.51
 -10   5  22   -5.96    8.83
 -10  -5  23   23.76   15.30
 -11  -5   0  224.51   28.85
 -11  -5   1  -11.01    8.27
 -11  -5  -1    6.44    4.51
 -11  -5  -2  367.45   36.77
 -11  -5   2  324.18   34.52
 -11  -5  -3    8.28    6.06
  11   5   3    1.51    1.63
 -11  -5  -4  593.98   44.02
 -11  -5   4  520.21   45.15
  11   5   4  583.24   26.59
 -11   5   5    6.93    3.81
 -11  -5  -5    7.11    4.97
  11   5   5   11.45    5.03
 -11   5   6  390.80   30.16
 -11  -5   6  406.45   26.41
 -11   5  -6  414.78   26.36
 -11  -5   6  426.22   40.22
  11   5   6  414.10   28.67
 -11  -5   7    5.21    2.92
 -11   5   7    4.34    3.40
  11   5   7    6.39    5.29
 -11   5   8   55.32   10.88
 -11  -5   8   57.47    8.54
  11  -5  -8   60.11   13.03
 -11   5  -8   60.53    5.89
 -11  -5   8   91.75   19.97
  11   5   8   61.15   13.11
 -11   5   9   -0.01    0.42
  11  -5  -9   -0.34    1.43
 -11  -5   9    0.10    0.69
  11   5   9    2.73    4.53
 -11   5  10   91.10   14.06
 -11  -5  10   88.10    8.18
  11  -5 -10   86.86   15.15
 -11  -5  10  121.74   24.51
  11   5  10   92.06   18.32
  11  -5 -11   16.42    6.40
 -11  -5  11   38.65   15.57
  11   5  11   22.43    9.77
  11  -5 -12  206.84   22.43
 -11  -5  12  199.42   31.95
  11   5  12  199.57   28.85
  11  -5 -13    1.01    1.90
  11   5  13    8.67    8.72
 -11  -5  14   79.42   21.69
  11   5  14   74.79   19.82
 -11  -5  15   19.82   13.40
  11   5  15    9.86    8.79
 -11  -5  16   23.81   14.17
  11   5  16    9.99    8.89
 -11  -5  17   11.76   11.21
  11   5  17    5.84    7.74
 -11  -5  18   17.49   13.09
  11   5  18    5.30    6.91
 -11   5  19   -2.75    9.42
 -11  -5  19   12.47   11.13
  11   5  19    3.63    6.91
 -11   5  20   10.01    8.36
 -11  -5  20   38.74   17.42
  11   5  20   18.75   12.37
 -11  -5  21   22.98   14.87
  11   5  21    4.65    8.65
 -11   5  21   -5.12    9.11
  11   5  22   -1.56    4.30
 -11   5  22   -2.22    9.32
 -11  -5  23   20.75   15.46
 -12  -5   0   -1.76    7.19
 -12  -5   1   67.40   14.19
 -12  -5  -1   93.23   19.45
 -12  -5  -2    7.00    7.92
 -12  -5   2  -14.40   10.92
 -12  -5  -3  198.65   26.63
 -12  -5   3  128.18   19.53
 -12  -5  -4   18.28    9.71
 -12  -5  -5   55.27   14.93
 -12   5  -5   44.83    9.18
 -12  -5   6    3.83    3.39
  12   5   6    3.58    3.16
 -12   5  -6    4.48    3.84
 -12   5   7   49.15   10.86
 -12  -5   7   45.58    8.64
 -12   5  -7   82.93   10.37
 -12  -5   7  101.30   21.45
  12   5   7   44.98   10.34
 -12  -5   8    0.62    1.44
 -12   5   8    0.75    1.32
 -12   5  -8   -4.58    3.12
  12   5   8    1.95    3.97
 -12   5   9   14.07    5.59
 -12  -5   9   15.77    4.17
  12   5   9   16.02    7.53
 -12  -5  10   30.71   16.46
  12   5  10    4.10    5.56
 -12  -5  11   40.35   16.65
  12   5  11   18.01    9.90
 -12  -5  12   43.54   17.20
  12   5  12   11.84    8.01
 -12  -5  13   55.65   20.14
  12   5  13   44.14   14.39
 -12  -5  14   36.60   16.63
  12   5  14   12.82    8.92
 -12  -5  15   14.99   11.97
  12   5  15    4.73    5.20
 -12  -5  16   16.00   13.20
  12   5  16    5.34    6.42
  12   5  17    7.31    8.49
 -12  -5  17   18.38   13.23
 -12  -5  18   23.02   14.57
  12   5  18    3.80    5.72
 -12   5  19   -3.16    9.95
  12   5  19    3.25    5.70
 -12   5  20   -6.53   10.43
  12   5  20    3.82    6.31
 -12  -5  21   26.47   16.20
 -12   5  21   -1.81    6.40
 -12  -5  22   30.07   17.64
 -12   5  22    2.06    4.29
 -13  -5   0   55.90   14.24
 -13  -5   1  -27.13   10.77
 -13  -5  -1    0.59    3.64
 -13  -5  -2  145.93   24.29
 -13  -5   2  100.53   18.05
 -13  -5  -3    4.14    6.58
 -13  -5   3  -16.56   15.96
 -13  -5  -4  263.99   32.16
 -13  -5   4  202.82   27.27
 -13   5  -4  247.34   26.01
 -13  -5  -5    4.03    6.63
 -13   5  -5   -3.96    4.49
 -13  -5   6   90.25   14.93
 -13   5  -6   77.86   13.43
 -13   5  -7   48.80    8.82
 -13  -5   7   57.19   18.72
 -13  -5   8    0.11    0.94
 -13   5   8   -0.86    1.81
 -13  -5   9    0.72    1.22
  13   5   9    2.06    3.92
 -13  -5  10   69.49   20.59
  13   5  10   25.57    9.57
 -13  -5  11   39.57   17.13
  13   5  11    3.04    3.89
 -13  -5  12  118.77   27.37
  13   5  12   89.77   19.44
 -13  -5  13   28.05   15.19
  13   5  13    7.17    7.10
 -13  -5  14   60.04   20.49
  13   5  14   32.80   13.10
 -13  -5  15   22.92   15.23
  13   5  15    2.18    4.31
 -13  -5  16   21.37   14.10
  13   5  16    2.13    4.87
 -13  -5  17   33.61   17.46
 -13   5  18   -4.68   10.13
 -13  -5  18   17.69   13.60
 -13   5  19   -7.91   11.50
 -13  -5  19   29.72   17.66
 -13   5  20   -6.13   10.09
 -13  -5  20   28.16   17.54
 -13  -5  21   26.06   17.16
 -13   5  21   -0.03    5.87
 -14  -5   0   -3.58    6.78
 -14  -5   1  -27.71   11.21
 -14  -5  -1    1.96    4.15
 -14  -5  -2    9.70    9.19
 -14  -5   3  -30.72   18.26
 -14  -5  -3    9.39    9.68
 -14  -5  -4   10.67    8.07
 -14   5  -4   -1.39    4.53
 -14  -5  -5    2.63    5.60
 -14   5  -5    2.40    2.70
 -14  -5  -6    2.84    3.57
 -14   5  -6   12.26    7.80
 -14  -5   7    5.47    3.43
 -14   5  -7   35.64    6.27
 -14  -5   8    7.05    3.44
 -14   5  -8   -3.30    4.36
 -14  -5   9   71.08   20.47
 -14  -5  10   41.32   17.41
 -14  -5  11   58.26   19.99
 -14  -5  12   39.98   17.86
 -14  -5  13   29.40   16.37
 -14  -5  14   28.13   16.29
 -14  -5  15   27.01   16.07
 -14  -5  16   30.16   16.99
 -14  -5  17   34.45   18.22
 -14   5  18  -10.54   12.51
 -14  -5  18   32.30   17.91
 -14   5  19    0.58    6.35
 -14  -5  19   27.51   17.31
 -14   5  20   -2.08    5.55
 -14  -5  20   41.09   20.13
 -14   5  21   -3.51    6.80
 -15  -5   0   46.35   12.04
 -15  -5  -1   -3.12    5.33
 -15  -5   2  -29.49   12.08
 -15  -5  -2   40.58   13.49
 -15  -5  -3   22.65   11.80
 -15   5  -3   -1.98    5.71
 -15  -5  -4   17.11   11.23
 -15   5  -4    0.97    3.76
 -15  -5  -5    0.40    5.16
 -15   5  -5    4.75    5.37
 -15   5  -6   61.32   13.87
 -15  -5  -6   45.58   13.20
 -15  -5   7    1.26    1.84
 -15   5  -7   -3.93    7.35
 -15  -5   8  142.17   27.75
 -15  -5   9   63.73   20.06
 -15  -5  10   64.16   20.86
 -15  -5  11   55.55   20.54
 -15  -5  12   46.83   19.75
 -15  -5  13   30.94   17.85
 -15  -5  14   36.31   19.33
 -15  -5  15   32.08   18.05
 -15  -5  16   63.14   23.66
 -15  -5  17   38.75   20.22
 -15   5  18   -0.57    9.35
 -15  -5  18   44.80   20.57
 -15   5  19   -5.12    9.13
 -15  -5  19   36.44   20.10
 -15   5  20    7.33    5.85
 -15   5  21   -3.71    8.41
 -16  -5   0    2.73    2.72
 -16  -5   1   -7.13    9.03
 -16  -5  -1    6.63    6.64
 -16  -5  -2   -0.15    2.02
 -16   5  -2   -6.37    8.31
 -16  -5  -3    3.92    7.04
 -16   5  -3   -3.58    5.91
 -16  -5  -4   31.80   13.71
 -16   5  -4   15.23    7.37
 -16  -5  -5    7.95    6.86
 -16   5  -5   14.98    8.40
 -16   5  -6   39.41   11.31
 -16  -5  -6    4.86    4.69
 -16  -5   7   33.16    6.69
 -16  -5   8   85.42   22.93
 -16  -5   9   66.13   21.24
 -16  -5  10   66.52   21.76
 -16  -5  11   46.73   19.90
 -16  -5  12   45.18   19.64
 -16  -5  13   49.54   20.93
 -16  -5  14   36.80   18.84
 -16  -5  15   48.66   20.96
 -16  -5  16   27.58   17.39
 -16  -5  17   42.92   21.44
 -16   5  18   -8.41   12.41
 -16  -5  18   40.24   20.96
 -16   5  19   -5.59    9.97
 -16   5  20   -7.09   10.60
 -17  -5   0  282.36   38.58
 -17  -5   1   -9.89    9.45
 -17  -5  -1    5.12    3.58
 -17   5  -1   -6.71    9.70
 -17   5  -2  181.59   27.59
 -17  -5  -2  216.71   33.29
 -17  -5   2  185.85   29.86
 -17  -5  -3   12.27   10.09
 -17   5  -3   -0.47    4.60
 -17   5  -4  126.82   21.97
 -17  -5  -4  135.94   26.09
 -17  -5  -5    6.27    6.89
 -17   5  -5   14.53    9.27
 -17  -5  -6  133.85   25.43
 -17  -5   6   28.41   11.06
 -17  -5   8  139.65   27.91
 -17  -5   9   56.64   21.24
 -17  -5  10   90.83   25.33
 -17  -5  11   57.82   21.78
 -17  -5  12   58.94   22.46
 -17  -5  13   47.90   21.67
 -17  -5  14   95.20   27.89
 -17  -5  15   44.47   21.85
 -17  -5  16   58.86   24.01
 -17   5  17  -11.30   11.35
 -17   5  18    1.75    7.05
 -18  -5   0    1.71    1.81
 -18   5   0   -5.86    9.58
 -18  -5  -1   14.51    9.66
 -18  -5   1   -3.18    7.31
 -18   5  -1   -1.24    5.49
 -18  -5  -2    7.17    7.11
 -18   5  -2   -0.08    4.68
 -18  -5  -3   32.64   15.26
 -18   5  -3   16.43    8.23
 -18  -5  -4   15.40   11.87
 -18   5  -4    9.88    8.70
 -18  -5  -5    9.05   10.28
 -18   5  -5   31.56   12.39
 -18  -5  -6    3.58    5.42
 -18  -5   7  -32.03   20.71
 -18  -5   8  -12.57    9.27
 -18  -5   9   66.36   23.49
 -18  -5  10   57.00   22.56
 -18  -5  11   63.40   22.64
 -18  -5  12   38.69   19.45
 -18  -5  13   48.57   22.99
 -18  -5  14   49.04   22.51
 -18  -5  15   58.29   24.23
 -19  -5   0   42.45   15.37
 -19   5   0   35.40   11.81
 -19  -5   1   -6.75    8.23
 -19  -5  -1    9.50    9.49
 -19   5   1   -9.11    9.62
 -19   5  -1   -2.10    5.26
 -19   5  -2   87.41   20.62
 -19  -5   2   71.28   19.09
 -19  -5  -2  122.78   26.81
 -19   5   2   73.47   18.64
 -19  -5  -3   18.59   11.56
 -19   5  -3    5.47    7.62
 -19  -5  -4   33.57   15.20
 -19   5  -4   29.80   12.86
 -19  -5  -5    0.86    4.87
 -19  -5   6   -6.28   15.62
 -19  -5  -6   37.33   14.91
 -19  -5   8   17.08    7.33
 -19  -5   9  -19.67   11.53
 -19  -5  10   67.32   23.08
 -19  -5  11   60.81   23.15
 -19  -5  12   54.56   23.49
 -19  -5  13   54.75   23.92
 -20  -5   0   -4.27    5.94
 -20   5   0   -0.24    4.88
 -20  -5   1    1.80    3.87
 -20  -5  -1   12.28   10.34
 -20   5   1    1.51    5.64
 -20   5  -1    5.23    4.98
 -20  -5   2  -13.57   12.61
 -20  -5  -2   17.04   11.66
 -20   5   2   -8.78   10.81
 -20   5  -2    2.62    3.93
 -20  -5  -3   22.53   13.08
 -20  -5   3  -21.85   14.68
 -20   5   3   -6.05    9.32
 -20   5  -3    4.31    6.93
 -20  -5  -4   11.79   10.18
 -20   5   4  -16.27   10.08
 -20  -5  -5    5.93    8.73
 -20  -5  -6    7.36    7.82
 -20  -5  11   51.38   14.26
 -20  -5  12   79.51   27.69
 -21  -5   0    8.59    9.24
 -21   5   0    7.07    6.08
 -21  -5  -1   15.55   11.38
 -21  -5   1   -7.28    7.00
 -21   5  -1    2.98    4.88
 -21   5   1   -5.06    6.90
 -21  -5   2   -2.93    5.53
 -21  -5  -2   17.86   13.18
 -21   5   2   -8.00    9.12
 -21   5  -2    7.48    8.85
 -21  -5  -3   16.03   11.91
 -21  -5   3  -11.33   13.96
 -21   5   3   -5.19    9.67
 -21  -5  -4   14.96   12.46
 -21  -5   4  -30.33   14.94
 -21   5   4   -8.09   10.14
 -21  -5  -5   12.22   10.03
 -21  -5   5  -30.10   19.31
 -21   5   5  -10.09   12.35
 -21  -5  -6    3.75    5.73
 -22  -5   0   12.95   10.74
 -22   5   0    2.55    3.97
 -22  -5  -1   19.35   12.80
 -22  -5   1    7.24    7.88
 -22   5  -1   10.12    9.33
 -22   5   1    2.37    3.13
 -22  -5   2    4.11    6.70
 -22  -5  -2   19.64   13.38
 -22   5   2   -7.35    8.50
 -22  -5   3  -16.20   11.01
 -22   5   3    1.92    4.82
 -22  -5   4  -25.02   13.92
 -22   5   4   -5.51   11.03
 -22  -5  -5   24.32   13.63
 -22  -5   5  -12.47   15.27
 -22   5   5   -1.72    9.01
 -22  -5  -6    2.92    5.16
 -22   5   6   -4.82    9.87
 -22   5   7   -5.40   12.32
 -22   5   9   -8.18   13.75
 -23  -5   0   32.17   16.09
 -23   5   0   25.01   13.91
 -23  -5  -1    7.33    9.32
 -23  -5   1    9.97   11.56
 -23   5   1    2.34    6.54
 -23  -5   2   15.11   11.02
 -23  -5  -2   40.40   17.92
 -23   5   2   14.80    9.78
 -23  -5   3  -13.66   10.34
 -23   5   3   -5.65    7.69
 -23  -5   4    5.27    3.27
 -23   5   4    0.96    4.63
 -23  -5  -5    1.90    9.83
 -23  -5   5  -34.41   17.02
 -23   5   5   -8.02   11.33
 -23  -5  -6   13.33    9.25
 -23   5   6   -2.36    9.41
 -23   5   8    0.05    8.26
 -24  -5   0   16.04   13.21
 -24  -5  -1   40.41   19.68
 -24  -5   1   33.59   16.96
 -24   5   1   31.70   15.51
 -24  -5   2    1.46    6.34
 -24   5   2    4.29    6.42
 -24  -5   3   12.31   11.87
 -24   5   3   15.28    9.95
 -24  -5  -4   17.43   12.31
 -24   5   4   -0.85    3.54
 -24  -5  -5   35.89   16.56
 -24   5   5   15.58   10.02
 -24  -5  -6    7.96    8.93
 -24   5   6   -7.80   11.11
 -25  -5  -1   31.71   17.38
 -25  -5  -2   37.44   18.10
 -25  -5  -3   26.79   16.81
 -25   5   3    3.60    7.51
 -25  -5  -4   20.47   14.20
 -25   5   4   -0.84    4.25
   0  -6   0   11.86    4.92
   0   6   0    9.52    4.16
   0   6  -1   -0.28    0.88
   0  -6  -1   -0.24    1.52
   0   6   1    0.75    2.09
   0  -6   1    0.53    1.51
   0   6   2    2.33    2.76
   0   6  -2    0.91    0.69
   0  -6  -2    1.95    1.59
   0   6  -2    4.02    3.42
   0  -6   2    2.33    2.31
   0   6  -3   -0.82    2.25
   0  -6  -3    0.51    1.10
   0   6  -3    1.97    3.79
   0  -6   3   -0.25    1.19
   0   6  -4   55.86   10.14
   0  -6  -4   54.51   11.06
   0   6  -4   55.24    9.28
   0  -6   4   55.82   10.72
   0  -6  -5    0.71    1.71
   0  -6   5    0.83    0.91
   0   6  -5    0.01    1.62
   0  -6  -6  105.34   15.78
   0   6  -6  100.34   14.26
   0  -6   6   96.88   15.14
   0  -6   6   98.13   12.30
   0   6  -6  123.00   14.08
   0  -6  -7    0.57    2.34
   0   6  -7    0.49    1.54
   0  -6   7    0.33    1.67
   0  -6   7    1.35    2.88
   0   6  -7    3.71    4.15
   0  -6  -8  126.04   17.98
   0   6  -8  120.44   16.33
   0  -6   8  113.84   14.13
   0   6  -8  121.94   15.85
   0  -6   8  117.45   17.41
   0  -6  -9    2.25    3.50
   0  -6   9    0.20    2.96
   0   6  -9   -0.04    0.90
   0  -6  10  108.30   13.39
   0  -6  11   -3.37    3.52
   0  -6  12    6.65    4.77
   0  -6  13  -10.66    7.47
   0  -6  14  -17.42    9.62
   0  -6  16   -3.28    7.13
   0   6  17  -10.79   14.02
   0   6  18   -1.62    9.62
   0   6  19   -2.41    5.61
   0   6  20    4.62    3.95
   0   6  21   -4.81    7.44
   0   6  22   -0.28    2.51
   0   6  23    2.20    0.31
   1  -6   0   28.68    7.57
  -1  -6   0   28.77    7.24
   1   6   0   27.70    7.42
  -1   6   0   29.72    7.57
   1   6   0   26.62    7.17
  -1  -6  -1   -0.60    1.39
   1   6  -1   -1.17    1.78
   1   6   1    1.63    2.41
  -1   6  -1    1.35    1.15
  -1   6   1   -0.62    2.20
  -1  -6   1   -0.18    0.67
   1  -6  -1    2.18    2.78
   1   6  -1    0.52    1.92
   1  -6   1    0.70    0.67
  -1  -6  -2  157.93   18.08
   1  -6  -2  170.98   18.38
   1  -6   2  161.98   18.66
  -1   6  -2  172.54   18.04
  -1   6   2  170.31   18.52
  -1  -6   2  153.03   17.32
   1   6  -2  165.51   17.33
   1   6  -2  160.54   17.98
   1  -6  -3    0.32    0.45
   1   6  -3   -0.07    0.98
  -1  -6  -3    0.38    0.74
  -1   6  -3    0.40    1.47
  -1   6   3    0.44    1.44
  -1   6  -3    2.24    2.98
   1   6  -3   -1.00    2.20
   1  -6   3   -0.50    2.05
  -1  -6   3   -0.20    0.90
  -1  -6  -4  341.45   27.54
   1  -6  -4  337.41   26.44
   1   6  -4  335.21   24.53
  -1   6  -4  334.56   25.97
  -1  -6   4  340.24   25.77
  -1  -6   4  333.33   24.09
  -1   6  -4  320.63   22.36
   1   6  -4  333.06   25.04
   1  -6   4  342.07   28.52
   1  -6  -5    3.41    2.21
   1   6  -5    4.21    2.49
  -1  -6  -5    4.13    4.00
   1   6  -5    8.89    2.43
  -1  -6   5    5.54    3.66
  -1   6  -5   -3.23    4.62
  -1   6  -5    2.96    2.54
  -1  -6   5    4.61    2.82
   1  -6   5    4.94    3.46
   1  -6  -6   12.84    5.49
  -1  -6  -6   14.75    6.18
   1   6  -6   12.28    4.78
  -1  -6   6    9.14    4.51
   1  -6   6   12.32    5.69
  -1   6  -6    9.84    4.47
  -1  -6   6   13.14    5.91
   1   6  -6   24.84    7.89
  -1   6  -6   31.71    5.92
   1  -6  -7    0.63    0.54
  -1   6  -7    2.07    2.66
  -1  -6   7   -0.01    0.92
   1   6  -7    0.37    0.99
   1  -6   7    0.06    0.92
  -1  -6   7    4.59    4.34
  -1   6  -7    5.33    5.23
   1   6  -7    4.45    4.04
   1   6  -8   49.99   10.24
  -1   6  -8   46.29   10.53
   1  -6  -8   48.92   10.89
  -1  -6   8   46.64   10.41
   1  -6   8   46.45   11.22
  -1   6  -8   48.36    9.07
   1  -6   8   44.07    8.09
  -1  -6   8   49.20    9.82
   1   6  -8   40.93    9.05
   1  -6  -9    5.50    4.23
   1  -6   9    5.06    3.95
  -1  -6   9   -0.76    3.48
  -1  -6   9    1.22    1.83
   1   6  -9    0.64    1.71
   1  -6 -10    7.92    5.11
  -1  -6  10    0.39    5.11
   1  -6  10    8.91    4.28
   1   6 -10    7.64    4.40
   1  -6 -11    2.40    4.06
  -1  -6  11   -8.83    7.48
   1  -6  11    3.19    3.64
   1   6 -11    1.30    2.56
   1  -6 -12  198.72   24.51
   1  -6  12  176.50   17.55
  -1  -6  12  175.01   18.37
   1  -6 -13    0.39    2.27
   1  -6  13   -1.92    2.45
   1  -6 -14   23.00    9.03
   1  -6  14   16.56    3.81
   1  -6 -15   -0.12    2.70
   1  -6  15  -10.85    5.64
   1  -6 -16   32.10   10.68
   1  -6  16   18.93    4.34
   1   6  17   -8.74   11.85
   1  -6 -17   -0.09    1.68
   1  -6  17  -13.21    7.77
   1   6  18   -8.75   10.73
   1  -6 -18    0.82    2.05
  -1   6  18   -9.05   12.61
   1  -6 -19    1.69    3.96
  -1   6  19   -4.07    8.93
   1   6  19   -0.04    5.24
   1  -6 -20   14.11    8.39
  -1   6  20    5.01    4.68
   1   6  20    6.71    4.15
   1   6  21   -0.73    6.54
  -1   6  21   -1.63    5.54
  -1   6  22    6.78    6.47
   1   6  22    5.36    7.69
   1   6  23    0.47    3.60
  -1   6  23   -1.23    3.82
  -2  -6   0   99.08   13.92
  -2   6   0   96.51   13.75
   2  -6   0   90.43   13.72
   2   6   0   96.50   14.38
  -2   6   1    0.07    0.95
  -2   6  -1    0.75    1.87
  -2  -6  -1    1.01    2.40
  -2  -6   1   -0.08    0.64
   2   6  -1    1.10    2.20
   2   6  -1    1.38    2.99
   2   6   1   -0.18    0.81
   2  -6   1    0.15    0.99
   2  -6  -1    0.28    1.48
  -2   6   2   18.33    6.15
   2   6  -2   16.88    5.84
  -2  -6  -2   17.22    5.97
  -2   6  -2   18.86    6.14
  -2  -6   2   15.80    5.37
   2   6  -2   16.56    5.36
   2  -6   2   17.14    6.18
   2  -6  -2   16.08    5.93
   2  -6  -3   11.96    5.06
  -2   6   3   12.60    5.10
   2   6  -3   11.64    5.01
  -2  -6  -3   12.16    5.68
   2   6  -3    2.43    5.58
  -2  -6   3   13.05    4.87
  -2  -6   3   11.58    4.74
  -2   6  -3   11.35    4.91
   2  -6   3   13.56    5.79
  -2  -6   4  158.98   17.27
  -2   6  -4  165.59   18.61
  -2  -6  -4  174.25   20.45
  -2   6   4  167.99   18.88
   2  -6  -4  165.25   18.26
   2   6  -4  164.82   17.23
  -2  -6   4  155.38   17.46
  -2   6  -4  160.71   14.98
   2   6  -4  135.37   16.40
   2  -6   4  177.23   20.82
   2   6  -5    3.84    2.47
   2  -6  -5    2.79    2.34
  -2  -6   5    5.95    4.30
  -2   6  -5    3.48    1.70
  -2   6  -5    3.27    2.59
  -2  -6   5    2.01    1.46
   2  -6   5    5.11    3.77
   2  -6  -6    6.79    3.75
   2   6  -6    8.71    3.97
   2  -6   6    8.94    4.96
  -2   6  -6    8.21    4.51
  -2  -6   6   10.53    4.67
   2   6  -6   18.59    8.12
  -2  -6   6   12.44    6.49
  -2   6  -6   -4.11    6.03
   2  -6  -7    3.49    2.43
   2   6  -7    2.91    2.61
   2  -6   7    2.63    2.36
  -2  -6   7    3.68    3.14
  -2  -6   7    1.47    2.49
   2   6  -7    0.64    1.28
   2   6  -8   66.36   11.19
   2  -6  -8   67.92   12.72
  -2  -6   8   69.30   12.33
  -2  -6   8   59.82    9.96
  -2   6  -8   63.44    9.75
   2   6  -8   63.12   12.18
   2   6  -9    1.38    1.30
   2  -6  -9    0.70    0.36
  -2  -6   9    1.66    1.95
   2  -6 -10    0.30    2.14
   2  -6  10    0.74    1.02
   2   6 -10   -1.53    2.24
   2  -6 -11    3.57    5.14
   2  -6  11    1.31    2.10
   2   6 -11    1.04    2.80
   2  -6 -12   35.04   10.65
   2   6 -12   29.47    8.22
   2  -6  12   38.05    8.00
   2  -6 -13    1.50    2.11
   2  -6  13    7.41    4.22
   2   6 -13    1.47    1.73
   2  -6 -14    2.97    2.72
   2  -6  14   14.82    5.92
   2  -6 -15    2.00    2.43
   2  -6  15    2.50    2.85
   2  -6 -16    3.23    2.55
   2  -6  16    9.11    4.51
   2   6  17   -7.41   10.20
   2  -6 -17    5.42    5.07
   2  -6 -18   11.41    6.44
  -2   6  18    7.03    8.44
   2   6  18    5.47    2.74
   2  -6 -19    0.50    3.52
  -2   6  19   -8.73   12.52
  -2  -6  19   19.75    2.13
   2   6  19   -7.06    8.20
  -2   6  20    0.12    6.72
   2  -6 -20    3.50    3.89
   2   6  20    8.46    9.53
   2   6  21    2.15    4.35
  -2   6  21   -3.12    8.51
   2   6  22    3.55    5.26
  -2   6  22    2.51    3.95
   2   6  23    0.81    1.03
  -2   6  23   -2.39    6.76
   3  -6   0  333.99   27.13
  -3   6   0  315.30   25.19
  -3  -6   0  328.60   25.72
   3   6   0  325.40   27.15
  -3   6   1    3.80    2.74
  -3  -6   1    1.52    1.31
  -3  -6  -1    2.91    2.46
   3   6   1    3.89    3.80
   3   6  -1    2.13    1.61
   3  -6   1    3.64    2.68
  -3   6  -1    2.54    2.59
   3  -6  -1    2.82    1.77
  -3   6  -2   17.74    6.14
  -3  -6  -2   18.55    6.56
  -3   6   2   15.68    5.57
  -3  -6   2   14.31    5.07
   3   6  -2   16.70    5.63
   3   6  -2   11.92    3.04
  -3  -6   2   14.31    6.02
   3   6   2   15.79    6.35
   3  -6  -2   15.54    5.61
   3  -6   2   15.03    6.28
   3   6  -3    0.21    0.76
  -3   6   3   -0.28    2.14
  -3  -6  -3    1.06    2.21
  -3  -6   3    0.15    1.37
  -3  -6   3    1.16    3.23
   3   6   3   -2.51    4.13
   3  -6   3    0.49    1.60
  -3   6  -3    0.20    0.97
   3  -6  -3   -0.65    1.40
  -3  -6   4   92.15   12.95
  -3   6  -4   92.14   14.67
   3  -6  -4   95.51   14.01
   3   6  -4   93.76   13.06
  -3   6   4   92.69   14.24
  -3  -6   4   87.62   14.48
   3   6  -4  143.13   18.07
  -3   6  -4   93.18   10.80
   3  -6   4   92.27   15.73
  -3   6   5    3.73    3.38
   3  -6  -5    2.74    2.26
   3   6  -5    3.27    2.35
  -3   6  -5    7.67    4.02
  -3  -6   5    3.66    3.35
   3   6  -5   17.25    9.42
  -3  -6   5    2.40    1.97
   3  -6   5    3.53    3.27
  -3   6  -5    5.08    3.26
   3  -6  -6   20.87    6.62
   3   6  -6   20.30    5.90
  -3  -6   6   20.27    6.11
   3  -6   6   22.59    8.07
  -3   6  -6   15.55    2.21
   3   6  -6   28.72    9.05
  -3  -6   6   20.39    5.51
   3   6  -7    1.46    1.17
   3  -6  -7    0.69    1.54
  -3  -6   7    1.39    2.14
  -3  -6   7   -4.98    5.79
   3   6  -7   -1.09    1.88
   3   6  -8  184.07   18.08
   3  -6  -8  180.47   20.30
  -3  -6   8  178.10   19.17
  -3   6  -8  167.11   14.62
  -3  -6   8  159.76   19.10
   3   6  -8  181.82   22.90
   3   6  -9    0.12    1.31
   3  -6  -9    0.98    0.56
  -3  -6   9    0.83    1.33
   3  -6 -10    7.08    3.82
   3   6 -10    7.73    3.69
  -3  -6  10    6.11    3.29
   3   6 -11    5.35    3.32
   3  -6 -11    4.07    2.62
   3  -6 -12  109.65   17.59
   3   6 -12  103.62   14.69
  -3  -6  12   59.77    5.00
   3   6 -13    1.50    1.70
   3  -6 -13   -0.48    0.48
  -3  -6  13    1.81    7.99
   3  -6 -14    1.91    1.79
   3   6 -14    2.12    2.86
   3  -6 -15    0.53    2.03
   3  -6  15    2.14    1.77
   3   6 -15    0.08    1.26
   3   6  16    5.37    6.96
   3  -6 -16   17.78    7.37
   3   6  17   -1.92    7.67
   3  -6 -17    1.19    1.51
   3  -6 -18   24.48    9.25
   3   6  18   26.64   12.13
  -3   6  19   -9.53   11.73
   3  -6 -19    1.48    2.39
   3   6  19   -6.29    9.07
  -3   6  20   -5.31   10.33
   3   6  20    5.94    6.40
  -3   6  21   -0.38    6.09
   3   6  21    4.13    6.17
   3   6  22    8.44    9.49
  -3   6  22   -1.46    3.63
  -3   6  23    0.11    4.65
   3   6  23    6.64    8.78
  -4  -6   0   15.08    6.03
   4   6   0   13.87    5.92
   4  -6   0   11.93    4.92
  -4   6   0   11.93    4.88
  -4   6  -1   63.49   11.66
  -4  -6   1   63.91   11.66
  -4  -6  -1   71.63   12.72
   4  -6  -1   68.67   12.44
  -4   6   1   64.39   11.52
   4   6   1   68.36   13.67
   4   6  -1   63.80   12.14
  -4  -6   1   68.75   12.35
   4  -6   1   63.89   13.01
  -4  -6   2   11.29    4.36
  -4   6   2   12.87    5.15
  -4  -6   2   11.51    6.34
   4   6   2   18.55    8.60
   4   6  -2   -1.15    7.66
  -4   6  -2   13.07    5.50
   4  -6  -2   13.39    5.44
   4  -6   2   12.24    5.82
  -4   6   3    1.57    1.54
  -4  -6   3   -1.70    3.27
  -4  -6   3    2.73    4.58
   4  -6   3    2.82    2.58
  -4   6  -3    0.85    0.69
   4  -6  -3    0.98    0.87
  -4  -6   4   12.88    4.94
  -4   6   4   13.82    5.46
   4  -6   4   10.67    5.37
   4  -6  -4   10.77    4.81
  -4  -6   4   13.86    6.07
   4   6   4   11.77    4.63
  -4   6   5    2.07    1.77
   4   6  -5    3.52    2.72
   4  -6   5    2.88    3.11
  -4  -6   5    3.40    2.52
   4  -6  -5    1.92    2.17
  -4  -6   5   -0.02    0.64
  -4   6  -5    2.44    2.23
  -4  -6   6   26.26    6.60
   4  -6  -6   26.79    7.72
   4   6  -6   26.95    7.08
  -4   6   6   26.77    7.87
   4  -6   6   26.04    8.99
  -4  -6   6   13.64    3.42
  -4   6  -6   32.40    5.65
   4   6  -6   29.71    9.39
   4   6  -7   12.97    4.79
   4  -6  -7   13.81    5.70
  -4  -6   7   13.47    4.90
  -4  -6   7   -3.12    7.80
  -4   6  -7   19.18    3.06
   4   6  -7   12.45    4.39
   4   6  -7   14.87    7.21
   4  -6  -8   29.31    8.07
   4   6  -8   25.01    6.61
  -4  -6   8    6.67    6.66
  -4   6  -8   24.10    4.08
  -4  -6   8   26.08    7.17
   4  -6  -9   73.56   13.20
   4   6  -9   76.35   11.66
  -4  -6   9   54.02    6.31
  -4  -6   9   77.47   12.52
   4   6 -10   82.34   12.13
   4  -6 -10   76.30   13.65
  -4  -6  10   45.68    2.65
  -4  -6  10   79.31   12.99
   4  -6 -11   14.62    5.97
   4   6 -11   11.75    4.56
   4  -6 -12    0.57    0.38
   4   6 -12    1.72    1.68
   4  -6 -13   -0.76    2.05
   4   6 -13    0.12    1.05
   4  -6 -14    0.39    2.50
   4   6 -14    0.85    1.95
   4   6  15   -8.54   11.38
   4  -6 -15    7.68    4.46
   4  -6 -16    1.02    1.99
   4   6  16   -5.08    9.67
   4  -6 -17    9.14    5.93
   4   6  17    6.78    4.83
   4  -6 -18    4.14    3.03
   4   6  18   -5.01    7.87
  -4   6  19  -15.48   14.47
   4   6  19    2.06    3.04
  -4   6  20  -13.37   13.83
   4   6  20   -0.57    2.34
  -4   6  21   -8.62   11.31
   4   6  21    6.42    9.36
  -4   6  22   -0.25    6.49
   4   6  22    9.75   11.86
  -4   6  23    1.14    1.64
   4   6  23    4.32   10.13
  -5   6   0  681.68   38.91
  -5  -6   0  692.30   39.46
  -5  -6   0  684.59   41.10
   5   6   0  674.91   44.27
   5  -6   0  694.22   41.71
  -5  -6   1    1.83    3.08
  -5  -6   1    2.62    3.91
   5   6  -1   -9.07    9.94
   5   6   1   -1.25    3.57
  -5   6   1   -0.48    1.95
   5  -6   1   -0.25    2.36
  -5   6  -1    0.85    1.03
   5  -6  -1   -1.09    3.48
  -5  -6   2  375.60   27.15
  -5   6   2  374.81   28.16
  -5   6  -2  371.53   30.01
  -5  -6   2  369.13   30.55
   5   6   2  379.80   31.89
   5   6  -2  325.71   29.25
   5  -6  -2  370.53   29.28
   5  -6   2  371.14   31.96
  -5  -6   3   -0.71    2.05
  -5   6   3   -1.20    2.30
  -5  -6   3    4.69    5.40
   5  -6  -3    0.40    1.03
   5  -6   3   -0.20    1.19
  -5   6   4    3.72    2.46
  -5  -6   4    2.18    1.09
  -5  -6   4    2.24    3.18
   5  -6  -4    3.69    2.71
   5  -6   4    3.21    3.10
  -5  -6   5    2.55    2.18
  -5   6   5    1.21    1.81
  -5  -6   5   -2.30    5.82
   5  -6  -5    1.93    2.06
   5  -6   5    2.47    3.01
   5  -6  -6   65.77   12.07
  -5  -6   6   68.04   10.70
  -5   6   6   66.07   12.34
  -5   6  -6   69.95    7.99
  -5  -6   6   54.06   10.24
   5   6  -7    2.24    2.42
  -5   6   7    2.85    2.95
  -5  -6   7    0.83    0.34
   5  -6  -7    2.79    2.51
   5   6  -7    3.90    3.48
   5   6  -8  301.19   23.14
   5  -6  -8  304.74   26.24
  -5  -6   8  312.17   23.88
  -5   6  -8  297.11   13.54
  -5  -6   8  282.66   28.52
   5   6  -8  308.75   30.10
   5   6  -9   -0.43    0.55
   5  -6  -9   -0.77    1.32
  -5  -6   9   -0.32    1.21
   5   6 -10  180.60   17.74
   5  -6 -10  177.64   20.64
  -5  -6  10  126.33   16.89
  -5  -6  10  179.49   18.64
   5   6 -11    1.48    1.51
   5  -6 -11    2.49    2.61
   5  -6 -12   23.73    7.60
   5   6 -12   25.23    6.68
   5   6 -13    0.24    0.78
   5  -6 -13    1.00    1.38
   5   6 -14    2.71    2.13
   5  -6 -14    2.40    2.38
   5   6  14   -7.53   10.01
   5   6  15   -6.79    9.55
   5  -6 -15   -1.59    3.24
   5  -6 -16   41.68   10.98
   5   6  16   40.51   14.18
   5  -6 -17   -0.48    1.95
   5   6  17   -3.00    5.43
   5  -6 -18   24.99    8.50
   5   6  18   32.10   14.68
  -5   6  19  -13.19   14.75
   5   6  19   -0.02    3.13
  -5   6  20   -7.48   11.64
   5   6  20    4.70    7.55
  -5   6  21   -2.71    8.87
   5   6  21    0.90    7.41
   5   6  22   11.89   12.46
  -5   6  22   -4.43    7.89
   5   6  23    6.65    9.61
  -6   6   0  406.03   31.01
  -6  -6   0  387.19   32.85
   6  -6   0  409.06   33.55
  -6  -6   1  665.58   38.27
  -6   6   1  666.39   39.07
  -6  -6   1  681.23   42.21
  -6  -6  -1  631.30   40.91
   6  -6   1  684.49   43.87
   6  -6  -1  641.02   41.84
  -6   6   2   43.97   10.02
  -6  -6   2   51.27   10.47
  -6  -6   2   52.44   13.96
   6  -6   2   44.96   11.75
   6  -6  -2   43.05   10.34
  -6   6   3   44.77    9.91
  -6  -6   3   44.39    9.34
  -6  -6   3   52.52   12.16
   6  -6  -3   42.21    9.82
   6  -6   3   44.27   11.96
  -6   6   4   15.75    5.84
  -6  -6   4   16.48    5.14
  -6  -6   4   12.12    2.01
   6  -6   4   16.20    7.11
   6  -6  -4   16.94    6.30
  -6  -6   5    4.89    2.83
  -6   6   5    4.34    2.90
   6  -6  -5    3.56    1.88
  -6  -6   5   -3.59    9.69
  -6   6   6    0.93    2.37
  -6  -6   6    0.86    1.80
   6  -6  -6   -0.14    0.77
   6   6  -6    0.86    2.55
  -6  -6   7  124.49   14.35
  -6   6   7  128.70   17.24
   6  -6  -7  125.67   17.14
  -6   6  -7  125.70    8.47
  -6  -6   7  103.08   15.21
   6   6  -7  134.89   18.66
   6  -6  -8   84.56   14.27
  -6  -6   8   87.15   12.12
  -6  -6   8   61.58   10.50
   6   6  -8   88.52   16.20
   6  -6  -9  173.69   20.53
  -6  -6   9  139.14   18.21
  -6  -6   9  176.30   17.78
  -6  -6  10    5.41    1.94
  -6  -6  10    8.34    3.57
   6  -6 -10    9.37    5.11
   6  -6 -11   32.54    8.96
   6   6 -11   31.91    7.48
   6   6 -12    8.92    3.99
   6  -6 -12   11.06    5.44
   6   6  12    5.09    5.36
   6   6  13   -5.84    8.65
   6  -6 -13    0.41    2.45
   6  -6 -14    0.16    1.29
   6   6  14   -3.51    6.96
   6  -6 -15    7.69    4.68
   6   6  15    5.43    2.21
   6  -6 -16   22.73    8.26
   6   6  16   18.49    9.82
   6  -6 -17   12.96    6.76
   6   6  17   14.52    8.82
  -6  -6  18   46.28   15.97
   6   6  18    0.92    4.55
  -6   6  19   -7.92   12.97
   6   6  19   10.22    9.44
  -6   6  20  -11.12   13.66
   6   6  20    5.49    8.40
  -6   6  21   -8.89   10.70
   6   6  21   -0.81    6.42
  -6   6  22    3.29    4.40
   6   6  22    9.23   11.40
   6   6  23    7.47   11.32
  -7  -6   0 1162.30   58.74
   7  -6   0 1215.58   60.08
  -7  -6  -1   -1.47    1.10
   7  -6  -1    1.18    2.30
   7  -6   1    1.10    2.85
  -7   6   2  367.99   29.55
  -7  -6   2  389.22   29.02
  -7  -6  -2  354.38   31.81
  -7  -6   2  361.47   34.10
   7  -6  -2  357.74   31.67
   7  -6   2  395.94   35.53
  -7  -6   3    6.74    3.56
  -7   6   3    3.31    2.75
  -7  -6   3    2.24    4.91
   7  -6  -3    5.39    3.78
   7  -6   3    5.39    4.50
  -7   6   4   78.40   13.15
  -7  -6   4   75.50   11.89
   7  -6  -4   74.73   13.89
  -7  -6   4   61.40   11.53
  -7   6   5    8.79    3.97
  -7  -6   5   12.77    4.55
   7  -6  -5   16.82    6.97
   7   6  -5   13.23    5.04
   7  -6  -6   26.92    7.83
  -7  -6   6   29.30    7.00
  -7   6   6   30.02    8.17
  -7  -6   6   14.94    9.13
   7   6  -6   33.30    8.69
  -7   6   7   11.44    5.20
   7  -6  -7    8.40    3.91
  -7  -6   7    8.53    3.63
  -7   6  -7   14.87    3.29
   7   6  -7    9.10    4.73
  -7  -6   8  347.48   23.75
  -7   6   8  343.22   28.25
   7  -6  -8  363.26   29.99
  -7  -6   8  321.94   32.25
   7   6  -8  363.82   31.54
   7  -6  -9    0.51    1.45
  -7  -6   9    1.41    2.13
   7  -6 -10  248.40   25.02
  -7  -6  10  275.09   30.64
  -7  -6  10  245.20   20.17
   7   6  11   -0.55    6.02
   7  -6 -11    5.49    3.54
  -7  -6  11    6.74    3.03
   7   6  12   -5.39    7.80
   7  -6 -12    1.49    2.50
   7   6  13   -0.97    3.98
   7  -6 -13    5.27    3.78
   7  -6 -14    0.36    1.84
   7   6  14   -3.12    5.59
   7  -6 -15    3.60    3.61
   7   6  15    1.33    1.85
   7  -6 -16    7.32    4.84
   7   6  16    7.83    8.62
  -7  -6  17   37.00   14.15
   7   6  17   -1.31    2.76
  -7  -6  18   53.24   16.92
   7   6  18   22.07   12.68
  -7  -6  19   40.34   15.34
   7   6  19    9.22    8.96
  -7   6  20   -9.03   14.15
  -7  -6  20   38.18   14.89
   7   6  20   13.63   11.91
  -7   6  21   -3.50    8.78
   7   6  21    4.00    9.40
  -7   6  22   -2.19    7.61
   7   6  22    7.28   10.50
   7   6  23    1.56    6.84
  -8  -6   0  141.53   21.74
   8  -6   0  135.99   20.91
  -8  -6  -1  216.40   26.33
  -8  -6   1  243.40   28.12
   8  -6   1  237.82   28.44
   8  -6  -1  242.73   26.93
  -8  -6  -2   39.59   11.37
  -8  -6   2   43.75   12.04
   8  -6  -2   40.45   11.45
  -8  -6   3    1.11    1.90
   8  -6  -3    1.25    2.16
  -8   6   4   33.17    8.80
  -8  -6   4   32.04    7.96
   8  -6  -4   29.79    8.89
  -8  -6   4   15.67    1.56
   8   6  -4   33.49    7.30
   8  -6  -5    9.51    5.04
  -8   6   5    6.59    3.56
  -8  -6   5    9.31    3.83
   8   6  -5   13.27    5.24
  -8   6   6    4.52    2.06
  -8  -6   6    5.89    2.80
   8  -6  -6    7.06    4.67
   8   6  -6    6.93    4.03
  -8   6   7   20.89    6.88
  -8  -6   7   21.62    5.84
   8  -6  -7   26.93    8.47
   8   6  -7   22.40    7.44
  -8  -6   8   44.53    8.32
  -8   6   8   48.31   10.88
   8  -6  -8   46.73   10.93
   8   6  -8   44.53   10.69
   8  -6  -9   80.61   14.60
   8   6   9   83.41   16.29
  -8  -6   9   88.04   11.82
  -8  -6   9   72.34   15.12
   8   6  10   30.55    9.21
   8  -6 -10   31.14    8.86
  -8  -6  10   33.48    7.16
   8   6  11   -0.03    5.81
   8  -6 -11    5.29    3.09
  -8  -6  11    5.67    2.78
   8  -6 -12   28.50    8.52
   8   6  12   24.70    9.53
   8  -6 -13    5.46    3.40
   8   6  13    2.39    2.22
   8  -6 -14    0.65    1.84
   8   6  14    0.91    3.45
   8  -6 -15    1.30    2.03
   8   6  15    3.82    4.61
  -8  -6  16   42.98   15.09
   8   6  16    9.12    7.81
  -8  -6  17   39.77   15.06
   8   6  17    5.69    8.08
  -8  -6  18   38.40   15.04
   8   6  18   14.90   11.39
  -8  -6  19   33.44   14.60
   8   6  19    3.42    7.43
  -8   6  20   -3.69   12.07
   8   6  20    6.79   10.63
  -8   6  21   -4.37    8.27
   8   6  21   15.00   12.70
  -8   6  22   -0.19    6.71
   8   6  22    7.58    9.67
   9  -6   0   74.17   15.66
  -9  -6   0   85.81   17.75
   9  -6  -1    7.22    5.47
  -9  -6  -1   18.09   10.37
  -9  -6   1   13.33    8.11
   9  -6  -2    5.14    4.11
  -9  -6  -2   10.00    6.12
  -9  -6   2    2.41    3.40
  -9  -6   3    2.93    3.18
   9  -6  -3    2.15    2.85
  -9  -6   3   -5.48    7.96
  -9  -6  -3   -1.76    3.00
   9   6  -3    1.87    1.90
  -9  -6   4   58.87   11.19
   9  -6  -4   51.85   12.73
  -9  -6   4   27.71    4.59
   9   6  -4   54.05    8.85
   9  -6  -5   11.05    5.48
  -9  -6   5   11.10    4.55
   9   6  -5   11.80    4.86
   9  -6  -6    0.21    1.61
  -9  -6   6   -0.02    1.26
  -9   6   6   -0.23    2.46
   9   6  -6    0.98    0.76
   9  -6  -7    0.24    2.42
   9   6   7   -3.95    5.26
  -9  -6   7    0.54    1.49
  -9   6   7    0.07    0.71
   9   6  -7   -0.63    2.34
   9  -6  -8   15.46    6.47
   9   6   8   10.14    1.93
  -9   6   8   14.55    5.78
  -9  -6   8   16.59    4.97
   9   6  -8   12.12    4.56
  -9   6   9    0.37    0.93
   9   6   9   -5.57    6.19
   9   6  -9   -1.12    5.12
  -9  -6   9   -0.75    1.77
   9  -6  -9    1.32    3.00
   9  -6 -10   65.29   13.79
  -9  -6  10   60.21    9.32
   9   6  10   51.77   13.01
   9  -6 -11    0.36    1.86
   9   6  11   -1.62    3.18
   9  -6 -12    5.06    3.84
   9   6  12    1.17    3.01
   9  -6 -13    2.10    2.55
   9   6  13    0.34    2.97
   9  -6 -14    1.76    2.17
   9   6  14    2.41    3.63
   9  -6 -15   -2.64    3.19
   9   6  15    0.70    3.97
  -9  -6  16   60.88   18.23
   9   6  16   29.84   13.78
  -9  -6  17   36.85   14.82
   9   6  17    5.12    7.02
  -9  -6  18   49.28   17.23
   9   6  18   13.50   10.64
  -9  -6  19   38.14   15.88
   9   6  19    5.79    9.64
  -9   6  20   -9.31   11.86
   9   6  20    4.86    7.61
  -9   6  21   -5.35    9.54
   9   6  21    8.79   10.28
  -9   6  22    0.83    7.00
   9   6  22   12.59   12.13
 -10  -6   0   21.64   11.14
 -10  -6  -1   11.56    9.17
 -10  -6   1    4.69    3.46
  10  -6  -2   15.38    7.51
 -10  -6  -2   16.66    8.52
 -10  -6   2   12.36    3.72
  10   6  -2   16.62    3.76
  10  -6  -3  202.83   26.01
 -10  -6  -3  200.29   26.33
 -10  -6   3  168.25   25.21
  10   6  -3  192.15   13.77
 -10  -6   4   63.59   11.84
  10  -6  -4   66.15   14.64
 -10  -6   4   42.35    6.78
  10   6  -4   61.61    8.69
 -10  -6   5  219.53   21.22
  10  -6  -5  221.62   26.48
 -10  -6   5  188.98   25.36
  10   6  -5  212.03   18.00
  10   6   5  215.79   20.26
  10  -6  -6   -1.31    2.85
  10   6  -6   -2.12    2.94
 -10  -6   6   -0.77    1.36
  10   6   6   -3.06    4.77
  10  -6  -7    3.35    2.10
 -10  -6   7    2.47    0.88
  10   6  -7   -0.85    3.67
  10   6   7    2.28    2.37
 -10   6  -7   -1.10    3.04
  10  -6  -8   -0.27    0.96
 -10  -6   8    1.21    1.93
 -10   6   8    0.43    0.87
  10   6   8   -0.84    2.86
 -10   6   9    0.52    0.95
 -10  -6   9    0.19    0.62
  10  -6  -9    0.11    2.12
  10   6   9   -0.42    3.02
  10  -6 -10    0.95    2.48
  10   6  10   -2.90    4.92
  10  -6 -11   52.71   12.42
 -10  -6  11   47.56    7.42
  10   6  11   45.32   13.22
  10  -6 -12   -0.03    0.86
  10   6  12    1.58    4.62
  10  -6 -13   46.74   11.57
 -10  -6  13   81.88   20.60
  10   6  13   50.96   15.62
  10  -6 -14    6.85    4.15
  10   6  14    6.35    6.58
 -10  -6  15   63.55   19.52
  10   6  15   18.31   11.19
 -10  -6  16   40.05   15.86
  10   6  16    4.71    7.77
 -10  -6  17   42.24   16.50
  10   6  17    9.72    9.63
 -10  -6  18   37.07   15.15
  10   6  18    5.26    7.43
 -10  -6  19   36.43   16.51
  10   6  19    8.31    9.24
 -10   6  20   -5.54   11.85
  10   6  20    9.80   10.73
 -10   6  21   -4.33    6.04
  10   6  21   10.57   10.93
 -10  -6  22   55.35   20.20
  10   6  22    4.89    7.36
 -11  -6   0    3.71    3.55
 -11  -6  -1    8.12    8.69
 -11  -6   1    2.05    1.03
 -11  -6   2   15.95    5.40
  11   6   2   24.56    4.06
 -11  -6  -3    4.65    5.21
 -11  -6   3   -3.93    9.32
  11   6   3    1.39    0.71
 -11  -6  -4   18.47    8.26
  11   6   4   15.91    4.55
 -11  -6   5   29.32    8.34
  11  -6  -5   31.78   10.63
  11   6   5   30.64    7.31
  11  -6  -6   26.26    9.42
 -11  -6   6   22.63    6.69
  11   6   6   20.16    6.63
  11  -6  -7    1.23    1.95
 -11  -6   7   -0.49    1.45
  11   6   7   -0.21    1.34
 -11   6  -7   -0.25    0.69
  11  -6  -8    1.42    2.18
 -11  -6   8    2.93    2.52
  11   6   8    2.61    4.13
  11  -6  -9    2.91    3.06
 -11  -6   9    3.59    2.67
  11   6   9    5.52    5.16
 -11  -6  10    2.02    1.55
  11   6  10    1.88    4.27
  11  -6 -11    8.59    5.24
  11   6  11    7.73    5.93
  11  -6 -12    3.84    3.01
  11   6  12    4.72    7.14
  11  -6 -13    1.46    2.17
  11   6  13    8.40    8.75
 -11  -6  14   49.25   18.11
  11   6  14    8.00    7.82
 -11  -6  15   44.99   17.99
  11   6  15    5.02    7.24
 -11  -6  16   40.78   17.04
  11   6  16    4.74    6.94
 -11  -6  17   46.71   18.04
  11   6  17    8.67    9.92
 -11  -6  18   35.84   16.16
  11   6  18   12.56   10.46
 -11  -6  19   46.79   18.96
  11   6  19    6.13    6.76
 -11   6  20   -6.96   11.86
  11   6  20   10.08   10.27
 -11   6  21   -2.74    7.39
  11   6  21   12.63   12.12
 -11  -6  22   54.84   20.13
  11   6  22    4.36    9.44
 -11  -6  23   40.24   19.89
 -12  -6   0    6.41    7.70
 -12  -6  -1   83.74   19.60
 -12  -6   1   68.13   16.35
 -12  -6   2    2.89    7.08
 -12  -6  -2   27.02   13.94
 -12  -6  -3  203.33   28.89
 -12  -6   3  158.62   26.08
  12   6   3  202.90   12.51
 -12  -6   4  -10.19   12.77
 -12  -6  -4    4.67    4.69
  12   6   4    2.83    3.06
 -12  -6   5  193.79   21.29
 -12  -6   5  148.82   24.12
  12   6   5  197.14   17.98
 -12  -6   6   11.47    5.00
 -12   6  -6    7.54    1.13
  12   6   6   16.36    6.26
 -12  -6   7   15.87    5.31
 -12   6  -7   19.01    6.02
  12   6   7   16.10    6.74
 -12  -6   8    0.56    1.12
  12   6   8    3.15    4.98
  12  -6  -9    2.49    2.85
 -12  -6   9    1.98    2.00
  12   6   9    5.70    5.82
  12  -6 -10    0.53    1.05
  12   6  10    3.57    4.71
  12  -6 -11   40.61   11.27
  12   6  11   41.97   13.27
  12  -6 -12    6.89    5.07
  12   6  12    9.72    7.89
 -12  -6  13  107.03   24.52
  12   6  13   75.34   19.13
 -12  -6  14   50.69   18.86
  12   6  14   13.66    9.54
 -12  -6  15   43.50   17.62
  12   6  15    8.96    8.36
 -12  -6  16   40.12   17.60
  12   6  16    7.38    7.79
 -12  -6  17   47.47   19.41
  12   6  17    7.03    7.45
 -12  -6  18   36.64   17.80
  12   6  18    5.83    5.40
 -12  -6  19   36.92   17.79
  12   6  19    2.89    8.94
 -12   6  20   -7.18   13.82
  12   6  20    9.94   10.34
 -12   6  21    5.65    7.47
  12   6  21   13.13   12.27
 -12  -6  22   51.13   21.20
  12   6  22    6.84    7.90
 -13  -6   0    0.73    2.06
 -13  -6  -1   22.13   10.83
 -13  -6   1    9.16    2.94
 -13  -6  -2   10.79    9.91
 -13  -6   2  -19.63   12.06
 -13  -6  -3    9.52    8.94
 -13  -6  -4    8.06    7.44
 -13  -6   6    2.07    2.90
  13   6   6    2.29    2.93
 -13   6  -6   -0.53    2.45
 -13  -6   7   -0.34    0.71
  13   6   7    2.48    3.56
 -13  -6   8    0.49    0.72
  13   6   8    0.99    3.61
 -13  -6   9    3.75    2.31
 -13  -6   9   -1.34    9.80
  13   6   9    6.99    5.50
 -13  -6  10   61.04   20.89
  13   6  10    5.65    6.37
 -13  -6  11   73.04   22.52
  13   6  11    9.61    7.48
 -13  -6  12   61.90   20.38
  13   6  12    9.76    7.28
 -13  -6  13   47.24   18.30
  13   6  13    6.37    6.08
 -13  -6  14   42.93   18.08
  13   6  14    1.04    4.46
 -13  -6  15   33.94   16.60
  13   6  15    4.41    6.60
 -13  -6  16   40.34   17.82
  13   6  16   -0.18    4.01
 -13  -6  17   55.90   20.65
  13   6  17   -1.38    1.19
 -13  -6  18   37.55   17.85
  13   6  18    2.51    6.61
 -13  -6  19   40.99   19.58
  13   6  19    9.58    8.88
 -13   6  20   -5.06   11.89
  13   6  20    0.24    7.04
 -13   6  21   -6.03    9.82
 -13  -6  21   57.68   22.26
 -14  -6   0   17.27    9.21
 -14  -6  -1   31.47   12.75
 -14  -6   1    3.35    0.54
 -14  -6   2  -28.30   11.67
 -14  -6  -2   17.52   10.58
 -14  -6  -3   25.82   11.43
 -14  -6   3  -12.14   13.35
 -14  -6  -4   12.05    7.41
 -14  -6  -5    5.55    3.40
 -14   6  -5   -1.52    4.83
 -14  -6   6    1.49    1.79
 -14   6  -6    3.87    4.02
 -14  -6   7    2.43    2.60
 -14   6  -7   19.48    7.79
 -14  -6   8   -1.11    1.84
 -14  -6  10   55.46   12.71
  14   6  10    0.87    1.97
 -14  -6  11   76.19   22.83
  14   6  11   11.30    7.56
 -14  -6  12   44.70   18.74
  14   6  12    5.02    4.72
 -14  -6  13   57.79   20.83
  14   6  13    7.74    6.73
 -14  -6  14   54.30   20.42
  14   6  14    1.85    5.69
 -14  -6  15   44.99   19.20
  14   6  15    0.41    3.17
 -14  -6  16   48.27   19.59
 -14  -6  17   56.99   21.86
 -14  -6  18   46.55   20.52
 -14   6  19   -9.04   14.30
 -14  -6  19   49.52   21.58
 -14   6  20  -14.76   14.87
 -14  -6  20   61.04   23.26
 -15  -6   0    0.31    2.01
 -15  -6  -1    9.98    9.40
 -15  -6   1    0.09    4.39
 -15  -6   2  -15.96    9.01
 -15  -6  -2   11.44   11.11
 -15  -6  -3   38.28   15.19
 -15  -6   3    4.45    7.78
 -15  -6  -4    3.12    6.39
 -15   6  -4   -5.46    7.27
 -15  -6  -5   -0.64    4.73
 -15   6  -5   -3.70    4.69
 -15  -6   6    0.84    1.80
 -15   6  -6    4.42    5.34
 -15  -6   7    0.81    1.93
 -15  -6  10   13.38    6.36
 -15  -6  11   68.39   22.29
 -15  -6  12   65.49   21.84
 -15  -6  13   60.73   22.06
 -15  -6  14   54.50   20.66
 -15  -6  15   53.16   22.09
 -15  -6  16   46.51   19.97
 -15  -6  17   52.70   22.29
 -15  -6  18   63.07   24.34
 -15   6  19   -7.22   13.44
 -15   6  20  -11.14   14.72
 -16  -6   0   18.25   11.25
 -16  -6  -1   19.92   11.95
 -16  -6   1   12.28    7.42
 -16  -6   2  -24.39   11.45
 -16  -6  -2    7.64    8.20
 -16  -6   3   51.32   18.01
 -16  -6  -3   98.38   22.33
 -16   6  -3   69.28   14.99
 -16  -6  -4    0.79    3.38
 -16   6  -4   -2.59    5.38
 -16  -6  -5   11.63    7.78
 -16   6  -5    5.27    4.72
 -16  -6   6  -29.85   16.60
 -16  -6   7   -0.83   11.37
 -16  -6   9  -21.89   20.01
 -16  -6  11   40.84    9.80
 -16  -6  12   59.62   23.25
 -16  -6  13   60.81   22.32
 -16  -6  14   59.83   22.35
 -16  -6  15   68.80   23.94
 -16  -6  16   64.21   24.34
 -16  -6  17   72.66   25.62
 -16   6  19   -9.01   12.40
 -16   6  20  -14.15   14.09
 -17  -6   0    6.84    7.57
 -17  -6  -1    8.76    9.57
 -17  -6   1   -5.37    7.19
 -17  -6   2  -12.70    8.46
 -17   6  -2   -3.51    8.15
 -17  -6  -3   12.45   10.25
 -17  -6   3    3.15    4.63
 -17   6  -3    0.27    7.26
 -17  -6  -4    8.26    9.46
 -17  -6   4  -16.41   12.29
 -17   6  -4   -2.29    5.33
 -17  -6  -5    5.05    7.64
 -17   6  -5   10.47    6.89
 -17  -6   6  -29.09   17.48
 -17  -6   7  -27.38   17.94
 -17  -6  12   24.18    4.48
 -17  -6  13   75.36   25.39
 -17  -6  14   87.88   27.09
 -17  -6  15   81.08   26.89
 -17  -6  16   60.50   24.36
 -17   6  19   -7.45   13.68
 -18  -6   0    9.10    6.83
 -18  -6   1   58.72   17.82
 -18  -6  -1   58.65   18.11
 -18   6  -1   29.53    9.47
 -18  -6   2   -4.63    5.97
 -18  -6  -2    9.19    8.77
 -18   6  -2   -4.68    7.23
 -18  -6   3   10.22    6.28
 -18   6  -3   12.67    3.88
 -18  -6  -4    6.18    8.82
 -18   6  -4    2.93    5.04
 -18  -6   5    0.12   11.84
 -18  -6  -5   40.98   15.43
 -18  -6  13   21.48   11.40
 -18  -6  14   45.08   10.69
 -19  -6   0   12.43   10.15
 -19   6   0   -2.28    6.06
 -19  -6  -1   18.58   11.60
 -19  -6   1    4.30    5.11
 -19   6  -1   -3.67    9.12
 -19  -6   2   -3.01    5.27
 -19   6  -2    0.66    4.77
 -19  -6   3  -12.62    9.01
 -19   6  -3   -0.92    2.11
 -19  -6  -4    4.50    9.04
 -19  -6   4  -11.06   10.71
 -19  -6   5   -7.69    8.89
 -19  -6  -5   15.09   10.49
 -19  -6   6  -36.07   17.60
 -19  -6  -6   -0.09    3.05
 -19  -6   7  -20.72   17.32
 -20  -6   0   10.45   10.55
 -20   6   0   -7.88    9.85
 -20  -6   1    5.89    5.44
 -20   6   1   -0.77    6.82
 -20   6  -1    0.46    2.70
 -20  -6   2   -4.61    6.22
 -20   6   2  -14.22    9.02
 -20   6  -2   -1.72    6.77
 -20  -6   3    7.26    6.42
 -20  -6  -3   30.00   14.45
 -20  -6  -4    7.87    8.95
 -20  -6   4  -13.75   12.56
 -20  -6   5  -21.18   13.77
 -20  -6  -5    2.81    7.20
 -20  -6   6  -21.45   16.97
 -20  -6  -6   -1.09    2.13
 -20  -6   8  -36.32   22.54
 -20  -6  10  -41.86   24.83
 -21  -6   0    7.80    9.21
 -21   6   0   -5.49    9.02
 -21  -6   1    4.55    6.32
 -21   6   1   -8.87    8.81
 -21   6  -1    0.92    5.75
 -21  -6   2    0.85    3.14
 -21   6   2   -5.10   10.45
 -21  -6   3    5.74    2.07
 -21  -6  -3   14.81   11.36
 -21   6   3   -8.58   10.31
 -21  -6  -4    9.30    8.97
 -21  -6   4   -6.71    7.96
 -21  -6   5  -16.32   11.38
 -21  -6  -5    1.88    5.49
 -21  -6   6  -15.87   15.40
 -21  -6  -6    2.07    2.43
 -21  -6   8  -35.60   19.56
 -22  -6   0   10.94   12.70
 -22   6   0   -3.18    6.52
 -22  -6   1   32.48   16.32
 -22  -6  -1   22.07   14.65
 -22   6   1   -4.33    8.04
 -22  -6   2    0.74    1.01
 -22   6   2  -15.81    9.97
 -22  -6   3    6.73    8.71
 -22   6   3    2.68    9.21
 -22  -6  -4    6.08    6.90
 -22  -6   4   -3.01    7.39
 -22   6   4  -11.20   11.53
 -22  -6   5    2.37    4.15
 -22  -6  -5    5.52    8.82
 -22  -6   6  -18.69   12.55
 -22   6   6  -11.12   12.12
 -22  -6   7  -33.30   17.09
 -23  -6   0   14.76   13.33
 -23  -6  -1   22.88   14.57
 -23  -6   1   10.64   11.37
 -23   6   1   -1.46    5.28
 -23  -6  -2   25.90   15.06
 -23  -6   2    9.85    8.83
 -23   6   2   -0.27    7.55
 -23  -6  -3   10.82   10.33
 -23  -6   3    0.92    4.73
 -23  -6  -4   20.91   14.22
 -23  -6   4    5.95    6.18
 -23   6   4    0.42    8.24
 -23  -6  -5    8.41    9.40
 -23   6   5  -10.10   13.07
 -23   6   6   -7.93   12.80
 -23   6   7   -6.63   12.96
 -24  -6   0   28.69   15.20
 -24  -6  -1   22.91   16.51
 -24  -6   1   18.47   15.27
 -24  -6  -2   24.68   16.47
 -24   6   2   -5.12    6.67
 -24  -6  -3    6.29   10.47
 -24   6   3   -1.14    6.46
 -24  -6  -4    2.33    5.76
 -24   6   4  -10.06    9.99
 -24  -6  -5   11.34   10.93
 -24   6   5  -11.93   12.98
 -24   6   6  -10.71   13.79
 -25  -6  -4   13.13   13.02
 -25   6   4   -4.11    7.25
 -25  -6  -5    3.42    6.32
   0  -7   0    3.68    3.51
   0   7   0    2.28    1.94
   0   7   1    1.71    2.57
   0  -7  -1    1.76    2.10
   0   7  -1    1.84    2.58
   0   7  -1    0.13    2.98
   0  -7   1    0.49    1.63
   0   7   2    0.70    2.59
   0   7  -2   -0.48    0.54
   0  -7  -2   -1.10    1.98
   0   7  -2    1.66    4.01
   0  -7   2    0.31    0.94
   0  -7  -3    5.03    2.99
   0   7  -3    5.52    3.01
   0   7  -3    9.11    5.83
   0  -7   3    3.85    2.39
   0  -7  -4   -0.18    1.76
   0   7  -4   -0.33    1.85
   0   7  -4    0.04    1.68
   0  -7   4   -0.97    2.68
   0   7  -5    5.60    4.06
   0  -7  -5    2.79    3.18
   0   7  -5   -4.30    6.51
   0  -7   5    4.09    3.36
   0  -7  -6    0.57    1.41
   0   7  -6    0.26    0.75
   0  -7   6   -0.18    0.90
   0  -7  -7   26.28    8.55
   0  -7   7   27.01    8.60
   0   7  -7   36.06    9.99
   0  -7  -8   -0.49    1.06
   0  -7   8   -0.47    2.15
   0  -7   8    0.08    2.20
   0   7  -8    2.57    2.84
   0  -7  -9   70.81   15.13
   0  -7   9   78.92   15.56
   0  -7   9   75.81   12.01
   0   7  -9   70.04   12.31
   0  -7 -10   -0.12    3.55
   0  -7  10    4.04    5.03
   0  -7 -11   62.82   14.95
   0  -7  11   71.00   12.24
   0  -7 -12    2.06    2.67
   0  -7  12    6.47    5.78
   0  -7 -13   88.72   17.52
   0  -7  13   86.76   13.33
   0  -7 -14   -0.35    0.34
   0  -7  14    2.92    2.81
   0  -7 -15   17.77    8.27
   0  -7  15   20.71    6.73
   0  -7 -16   -1.02    1.20
   0  -7  16   -1.00    2.29
   0  -7 -17    0.58    0.31
   0  -7  17    0.07    1.53
   0  -7 -18    2.44    4.22
   0   7  18  -13.39   14.36
   0   7  19   -8.91   10.10
   0  -7 -19    1.60    5.39
   0  -7 -20    3.62    4.70
   0   7  20  -14.13   14.18
   0  -7 -21   16.72    9.78
   0   7  21   11.12    8.99
   0   7  22    1.24    1.07
   1   7   0    2.32    3.00
  -1  -7   0   -1.57    2.32
  -1   7   0   -0.07    0.96
   1   7   0   -1.12    3.18
   1  -7   0   -0.15    1.10
   1   7   1    0.67    1.84
  -1   7  -1   -1.14    2.43
   1   7  -1    0.31    1.45
   1  -7  -1    0.67    1.57
  -1  -7  -1    0.18    0.61
  -1   7   1   -0.32    1.21
  -1  -7   1    2.65    2.98
   1   7  -1    1.77    3.65
   1  -7   1    0.88    1.86
  -1   7   2   -0.29    1.02
  -1  -7  -2   -0.28    1.71
   1   7  -2    0.12    0.61
   1  -7  -2    1.49    2.99
  -1   7  -2   -0.71    0.80
   1   7  -2    6.91    5.69
  -1   7  -2   -0.40    2.66
  -1  -7   2    0.30    1.97
   1  -7   2    0.28    0.92
  -1   7  -3   19.69    6.79
   1  -7  -3   22.10    7.29
   1   7  -3   19.13    6.16
  -1  -7   3   21.54    7.02
  -1  -7  -3   20.40    7.03
  -1   7   3   23.82    7.52
  -1   7  -3   22.97    6.91
   1   7  -3   16.55    6.00
   1  -7   3   20.97    7.00
   1   7  -4   -0.83    1.93
   1  -7  -4   -0.30    2.24
  -1  -7  -4    0.22    1.60
  -1   7  -4    1.37    2.19
   1   7  -4   -6.43    5.97
  -1   7  -4    1.29    3.59
   1  -7   4    0.27    0.62
  -1  -7   4    0.35    0.73
   1  -7  -5   -1.36    2.38
  -1  -7  -5    0.96    2.06
   1   7  -5   -0.31    0.97
  -1   7  -5   -7.11    4.55
   1  -7   5   -0.09    1.59
  -1  -7   5   -0.91    2.09
   1   7  -6   -0.57    0.68
  -1  -7  -6    0.25    2.57
   1  -7  -6    0.07    1.56
  -1  -7   6    0.18    0.64
   1  -7   6   -0.44    2.22
  -1  -7   6   -0.63    1.55
   1   7  -7   32.89    8.64
  -1  -7  -7   32.26    9.87
   1  -7  -7   28.08    8.73
   1  -7   7   32.94    9.75
  -1  -7   7   32.79    9.53
  -1  -7   7   30.35    8.11
  -1   7  -7   53.86    9.99
   1   7  -7   44.19   10.70
  -1  -7  -8    0.60    1.42
   1  -7  -8    1.82    2.77
  -1  -7   8    0.23    1.15
   1  -7   8    1.15    2.14
  -1  -7   8    8.60    6.23
  -1   7  -8    3.29    4.09
   1   7  -8    0.98    1.61
  -1  -7  -9    4.28    4.16
   1  -7  -9    2.55    2.58
   1  -7   9    5.22    4.17
  -1  -7   9    4.50    3.78
  -1  -7   9   11.99    7.07
  -1   7  -9   -1.10    3.94
   1   7  -9   -0.55    5.04
   1  -7 -10    1.98    3.09
  -1  -7  10    4.44    4.80
   1  -7  10    1.70    1.62
  -1  -7  10    0.87    2.44
   1  -7 -11   17.22    8.39
  -1  -7  11   15.51    6.31
   1  -7  11   13.36    4.57
   1  -7 -12   -0.51    1.83
   1  -7  12    4.57    4.60
  -1  -7  12    0.67    1.72
   1  -7 -13    8.15    4.84
  -1  -7  13    6.56    2.43
   1  -7 -14   -0.37    1.37
  -1  -7  14   -8.63    5.95
   1  -7 -15   -0.02    2.15
   1  -7  15    7.46    5.05
   1  -7 -16    0.67    1.97
   1  -7  16    8.35    5.52
   1  -7 -17    2.07    3.14
  -1  -7  17  -12.46    6.78
   1   7  18  -14.02   12.93
   1  -7 -18   -0.88    2.16
   1  -7 -19    7.42    6.34
   1   7  19   -1.23    7.63
  -1   7  19  -15.56   14.50
   1  -7 -20    1.49    4.92
  -1   7  20  -12.79   12.86
   1   7  20   -7.84   11.28
  -1   7  21   -7.43   12.06
   1   7  21    4.68    4.30
   1   7  22   -5.65    9.03
  -1   7  22   -2.82    5.62
  -2  -7   0   -0.48    2.04
  -2   7   0    1.04    1.23
   2   7   0    1.64    3.43
   2  -7   0    0.12    1.39
  -2   7   1   16.99    6.37
  -2  -7  -1   17.54    6.29
   2   7  -1   17.83    6.58
  -2  -7   1   18.06    6.05
  -2   7  -1   14.02    5.66
   2   7  -1   22.47    8.64
   2   7   1   18.91    6.96
   2  -7   1   16.94    6.34
   2  -7  -1   18.79    6.43
  -2   7  -2    1.13    2.01
   2   7  -2    0.87    1.51
  -2   7   2    0.28    0.76
  -2  -7   2    1.07    2.56
  -2  -7  -2    0.74    1.26
   2   7  -2    0.71    1.93
   2  -7   2   -0.16    1.63
   2  -7  -2    1.91    3.02
  -2   7   3   90.01   14.88
   2   7  -3   99.10   14.61
  -2  -7  -3   95.34   15.55
   2  -7  -3   97.59   14.95
  -2  -7   3   95.85   14.60
  -2   7  -3   97.12   13.17
   2   7  -3   84.82   13.62
   2  -7   3   92.46   16.02
  -2  -7  -4   -1.08    0.32
   2  -7  -4   -0.09    1.33
   2   7  -4    1.86    3.05
  -2   7  -4    1.22    3.17
  -2  -7   4   -3.36    4.30
   2  -7   4    0.86    1.43
  -2  -7   4    0.67    1.17
   2   7  -5   28.08    7.74
   2  -7  -5   30.74    8.68
  -2  -7   5   31.57    8.39
  -2  -7  -5   29.07    8.96
   2   7  -5   25.56    7.20
  -2   7  -5   33.54    7.57
  -2  -7   5   28.75    7.99
   2  -7   5   35.21   10.15
  -2  -7  -6    0.01    2.20
   2   7  -6   -0.32    1.33
   2  -7  -6    0.05    0.68
  -2  -7   6    6.18    5.25
  -2   7  -6   -5.80    5.42
   2  -7   6    1.00    2.29
  -2  -7   6   -0.65    1.84
   2  -7  -7   41.69   10.26
   2   7  -7   42.90    9.47
  -2  -7  -7   43.20   11.31
   2  -7   7   43.17   11.86
  -2  -7   7   45.40   10.53
   2   7  -7   49.54   12.15
  -2  -7   7   50.53   10.95
  -2   7  -7   75.05   10.21
   2   7  -8   -0.62    1.86
   2  -7  -8   -0.81    2.18
   2  -7   8   -0.71    2.22
  -2  -7   8    0.14    1.66
  -2  -7   8    4.07    6.17
  -2   7  -8    4.78    4.75
   2   7  -8   -1.28    2.52
   2  -7  -9   12.45    5.78
   2   7  -9   13.41    5.56
  -2  -7   9   13.86    5.87
  -2  -7   9   16.75    5.98
  -2   7  -9    8.98    2.20
   2   7  -9    6.76    1.73
   2  -7 -10    1.04    1.68
  -2  -7  10   -4.32    4.00
  -2  -7  10   -0.05    2.90
   2  -7 -11    7.34    5.16
  -2  -7  11   -5.17    5.66
   2  -7 -12    3.95    3.61
  -2  -7  12   -4.21    6.34
   2  -7 -13   39.60   11.58
  -2  -7  13   23.33    5.61
   2  -7 -14   -0.61    2.03
   2  -7  14    4.74    3.63
   2  -7 -15   -0.48    1.37
   2  -7  15    1.01    2.44
   2  -7 -16    1.76    2.45
   2   7  17   58.25   17.70
   2  -7 -17   71.65   16.83
  -2  -7  17   35.29    9.07
   2  -7 -18   -0.38    1.42
  -2   7  19   -8.63   11.88
   2   7  19   -8.04    9.93
  -2   7  20   -9.90   13.65
   2  -7 -20    0.72    1.82
   2   7  20    0.89    4.15
  -2   7  21   11.69    8.19
   2   7  21    5.40    5.30
  -2   7  22   -2.66    9.47
   2   7  22   -1.69    7.83
  -3  -7   0    7.43    3.85
   3   7   0   14.20    6.86
   3  -7   0    9.14    4.67
  -3  -7  -1    8.62    4.44
  -3  -7   1    7.37    3.59
  -3   7   1    7.14    3.79
   3   7  -1   11.45    6.32
   3  -7  -1    9.08    4.56
   3  -7   1    6.27    4.17
  -3   7   2    2.70    2.21
   3   7  -2    6.48    4.36
  -3  -7  -2    3.86    2.89
  -3  -7   2    3.85    2.05
   3   7  -2    2.03    3.95
   3  -7  -2    3.62    2.60
   3  -7   2    5.43    3.97
  -3  -7  -3    6.84    4.69
   3   7  -3    7.35    4.03
  -3  -7   3    7.88    3.91
   3   7  -3   -2.84    7.65
  -3  -7   3    5.75    3.00
   3  -7  -3    8.26    4.72
   3  -7   3    8.86    5.51
  -3  -7  -4    5.88    4.00
   3   7  -4    6.37    3.91
   3  -7  -4    3.31    2.79
  -3  -7   4    7.77    4.37
  -3   7  -4    5.34    2.46
   3  -7   4    4.68    4.36
  -3  -7   4    6.69    3.82
  -3  -7  -5    0.85    1.85
   3  -7  -5    0.51    0.57
   3   7  -5    1.67    2.30
  -3  -7   5    3.42    4.86
  -3   7  -5    4.38    3.78
   3  -7   5    1.00    1.69
  -3  -7   5   -0.11    0.82
   3  -7  -6    3.21    2.74
   3   7  -6    3.64    2.69
  -3  -7   6    2.07    0.50
   3  -7   6    5.22    4.43
  -3  -7   6    9.79    6.71
  -3   7  -6    1.16    1.95
   3   7  -7    0.45    1.14
   3  -7  -7    0.71    0.42
   3  -7   7    0.82    0.81
  -3  -7   7    1.45    2.35
  -3  -7   7    5.40    5.06
   3   7  -7    2.74    4.77
   3   7  -8   11.31    4.50
   3  -7  -8   10.80    5.36
  -3  -7   8   14.15    5.94
  -3   7  -8   18.39    6.49
  -3  -7   8    7.86    4.54
   3  -7  -9   -1.42    3.81
   3   7  -9   -0.01    2.34
  -3  -7   9    0.94    1.62
  -3  -7   9   -0.44    2.53
  -3   7  -9   -1.21    3.39
   3  -7 -10    1.00    0.81
   3   7 -10    1.18    1.90
  -3  -7  10    3.72    3.16
   3  -7 -11   15.62    6.71
   3   7 -11   15.70    5.94
  -3  -7  11   -0.87    5.59
   3  -7 -12    0.53    1.85
   3  -7 -13    3.55    3.32
  -3  -7  13  -23.14   11.50
   3  -7 -14   -0.26    1.35
   3  -7 -15   50.17   13.07
  -3  -7  15    6.79    1.99
   3  -7 -16   -1.08    2.28
   3  -7 -17    6.90    5.43
   3   7  17   -4.01    8.87
   3   7  18   -5.86   10.22
   3  -7 -18    2.35    3.25
   3  -7 -19    0.34    1.66
   3   7  19   -5.50   10.61
  -3   7  20   -7.97   13.71
   3   7  20    0.13    4.79
  -3   7  21   -5.63   11.11
   3   7  21    1.35    4.39
  -3   7  22   -2.12    2.25
   3   7  22   -7.09   10.97
  -4  -7   0    1.48    1.97
   4  -7   0    2.74    2.57
   4  -7  -1  278.21   26.80
  -4  -7  -1  288.16   26.81
  -4  -7   1  292.74   25.88
   4  -7   1  274.39   27.81
  -4  -7   2    0.84    0.78
  -4  -7  -2    1.36    2.14
  -4  -7   2    0.73    0.90
   4  -7   2    0.56    0.80
   4  -7  -2    1.05    2.02
  -4  -7   3  135.21   16.96
  -4  -7  -3  146.02   19.68
   4  -7  -3  139.11   18.86
  -4  -7   3  143.55   19.21
   4  -7   3  143.46   20.91
   4   7  -4   11.36    5.17
  -4  -7   4   10.12    4.84
  -4  -7   4   22.42    8.81
   4  -7  -4   10.19    5.01
   4  -7   4    9.40    5.57
   4   7  -5    2.01    2.25
  -4   7  -5    1.85    2.36
   4  -7   5    1.14    1.73
   4  -7  -5    1.63    2.52
  -4  -7   5   -0.34    1.24
   4   7  -6    1.02    1.94
   4  -7  -6   -0.78    2.04
  -4   7  -6    4.17    3.67
  -4  -7   6    0.62    2.04
   4  -7   6   -0.72    1.63
  -4  -7   6    0.72    1.14
   4   7  -7    3.63    3.11
   4  -7  -7    3.99    2.85
  -4  -7   7    2.94    4.45
  -4  -7   7    2.23    1.25
   4  -7   7    2.57    2.68
   4   7  -8    0.58    1.31
   4  -7  -8    1.26    2.69
  -4   7  -8    9.43    5.18
  -4  -7   8   -3.71    6.32
  -4  -7   8    3.30    3.18
   4  -7  -9  110.59   17.24
   4   7  -9  108.63   15.37
  -4   7  -9  107.40   11.45
  -4  -7   9  102.02   16.12
  -4  -7   9  109.42   16.24
   4   7 -10    0.93    1.91
   4  -7 -10   -1.41    3.02
  -4  -7  10    0.59    0.90
   4   7 -11   -0.15    0.76
   4  -7 -11   -2.52    3.85
  -4  -7  11   -0.18    0.71
   4   7 -12    1.62    1.76
   4  -7 -12    2.67    1.62
   4  -7 -13   78.68   15.62
   4   7 -13   78.31   13.56
   4  -7 -14    3.43    3.49
   4   7 -14    1.44    1.74
   4  -7 -15   11.71    6.21
   4  -7 -16   -0.77    2.08
   4   7  16  -10.71   13.19
   4  -7 -17   17.76    7.84
   4   7  17    6.08    5.15
   4  -7 -18   -1.77    3.62
   4   7  18   -1.95    6.87
   4   7  19   -4.59    7.76
  -4   7  20  -10.20   13.95
   4   7  20   -2.76    7.61
  -4   7  21    2.07    6.46
   4   7  21   13.48   10.16
  -4   7  22   -8.58   10.82
   4   7  22    3.03    7.02
  -5  -7   0   45.22   10.98
   5  -7   0   40.22   10.48
  -5  -7  -1  114.29   17.21
  -5  -7   1  114.77   16.58
  -5  -7   1  110.13   17.35
   5  -7  -1  109.71   17.50
   5  -7   1  113.90   18.39
  -5  -7  -2    2.40    3.23
  -5  -7   2   -1.11    2.67
  -5  -7   2   -0.85    1.33
   5  -7  -2   -0.29    0.63
   5  -7   2    1.00    3.06
  -5  -7   3   18.60    5.95
  -5  -7   3   21.76    8.74
   5  -7   3   15.16    7.02
   5  -7  -3   16.88    6.67
   5  -7  -4   43.96   10.56
  -5  -7   4   42.37    9.48
  -5  -7   4   50.31   12.24
   5  -7   4   40.62   11.40
  -5  -7   5   14.08    5.58
  -5  -7   5   12.99    6.51
   5  -7   5   13.20    6.67
   5  -7  -5   10.95    5.51
  -5   7  -6   11.62    4.55
  -5  -7   6    4.44    2.97
   5  -7   6    9.10    5.75
   5  -7  -6    8.64    5.41
  -5  -7   6    8.36    4.13
   5   7  -7   13.81    5.49
  -5  -7   7   10.82    5.60
  -5   7  -7    7.22    0.56
  -5  -7   7   13.13    5.22
   5  -7  -7   14.00    5.80
   5   7  -8   10.66    5.11
  -5  -7   8    3.39    1.63
  -5  -7   8    9.05    4.26
   5  -7  -8    7.16    3.94
   5  -7  -9   33.38    9.46
   5   7  -9   33.48    8.44
  -5  -7   9   18.09    4.48
  -5  -7   9   33.18    8.74
   5  -7 -10   13.78    6.43
   5   7 -10   18.54    6.34
  -5  -7  10   16.37    6.08
  -5  -7  11    0.23    0.48
   5   7 -11    0.12    1.43
   5  -7 -11    1.59    2.64
   5  -7 -12    0.89    2.77
   5   7 -12    1.03    1.61
   5   7 -13    2.49    2.40
   5  -7 -13    2.86    3.60
   5  -7 -14    8.17    5.20
   5   7  15   -5.65    9.22
   5  -7 -15   -0.35    1.59
   5  -7 -16   -0.17    0.58
   5   7  16   -4.20    8.25
   5  -7 -17   18.64    7.79
   5   7  17   12.55    7.22
   5  -7 -18    3.41    2.73
   5   7  18   -0.27    5.33
   5   7  19   -1.01    5.57
  -5   7  20  -15.57   14.61
   5   7  20    4.65    6.62
  -5   7  21   -8.31   13.48
   5   7  21    5.04    9.37
  -5   7  22   -5.66   10.22
   5   7  22    7.66    8.37
  -6  -7   0   20.54    7.62
  -6  -7   0   14.88    5.14
   6  -7   0   19.36    7.70
  -6  -7  -1   69.89   13.87
  -6  -7   1   71.65   13.67
  -6  -7   1   71.19   14.80
   6  -7   1   70.95   15.18
   6  -7  -1   73.71   14.88
  -6  -7   2    0.89    1.13
  -6  -7   2    5.24    6.28
   6  -7   2   -0.66    1.45
   6  -7  -2    0.68    1.39
  -6  -7   3   21.62    6.83
  -6  -7   3   31.27   11.63
   6  -7   3   24.77    9.27
   6  -7  -3   22.19    8.18
  -6  -7   4   11.01    4.67
  -6  -7   4   17.84    8.78
   6  -7  -4   11.06    5.47
   6  -7   4    9.34    6.01
  -6  -7   5   77.01   12.45
   6  -7  -5   74.08   14.24
   6  -7   5   73.52   16.80
  -6  -7   5   78.97   15.23
   6  -7  -6    9.18    5.11
  -6  -7   6    7.22    3.91
  -6   7  -6    5.55    2.20
  -6  -7   6    6.66    2.17
  -6  -7   7    6.08    3.70
   6  -7  -7    6.20    4.17
  -6  -7   7    0.09    4.73
  -6   7  -7    8.99    3.20
   6   7  -7    5.42    4.00
  -6  -7   8   -8.02   11.30
  -6  -7   8    3.94    2.37
   6  -7  -8    4.60    3.99
   6  -7  -9   36.01   10.18
  -6  -7   9   26.74    5.58
  -6  -7   9   41.10    9.49
  -6  -7  10    2.38    2.68
   6  -7 -10    1.61    2.31
   6  -7 -11   10.43    5.52
  -6  -7  11    9.90    4.79
   6   7 -11    9.75    4.52
   6   7 -12    1.80    2.99
   6  -7 -12    1.08    2.75
   6  -7 -13   28.70    9.53
   6   7 -13   23.90    7.12
   6   7  14  -11.78   11.23
   6  -7 -14    1.80    3.85
   6  -7 -15   13.33    6.76
   6   7  15    6.29    5.50
   6  -7 -16    2.86    3.80
   6   7  16   -6.68    8.71
   6  -7 -17    1.57    3.82
   6   7  17   -0.33    3.41
   6   7  18   -1.35    0.93
   6   7  19   -0.06    5.12
  -6   7  20   -8.65   13.60
   6   7  20   -2.03    2.25
  -6   7  21  -11.88   15.68
   6   7  21    3.07    5.87
  -6   7  22   -5.77   11.56
   6   7  22   11.20   12.83
  -7  -7   0   92.69   15.68
  -7  -7   0   93.29   17.74
   7  -7   0   91.79   17.43
  -7  -7   1   -0.30    1.29
  -7  -7   1    1.38    6.39
  -7  -7  -1   -0.12    2.17
   7  -7   1    1.03    2.11
   7  -7  -1   -0.15    0.82
  -7  -7   2   18.92    6.70
  -7  -7   2   26.67   11.50
   7  -7   2   15.42    7.14
   7  -7  -2   18.59    7.35
  -7  -7   3    1.81    1.50
  -7  -7   3    5.35    7.13
   7  -7   3   -0.10    2.04
   7  -7  -3    2.30    3.21
  -7  -7   4   20.56    6.65
  -7  -7   4   21.61    9.05
   7  -7  -4   19.01    7.59
   7  -7   4   16.96    7.42
  -7  -7   5    1.25    1.93
   7  -7  -5   -0.61    1.17
  -7  -7   5   -2.46    3.05
  -7  -7   6   12.80    5.06
   7  -7  -6   12.04    5.70
  -7  -7   6    5.51    5.38
   7   7  -6   12.65    6.04
  -7  -7   7   15.90    5.78
   7  -7  -7   10.57    5.32
  -7   7  -7   19.91    4.44
   7   7  -7   12.12    6.24
  -7  -7   8   22.54    6.57
  -7  -7   8    7.20    9.05
  -7   7  -8    2.06    2.56
   7  -7  -8   22.36    7.92
  -7  -7   9   -1.96   11.77
  -7  -7   9   16.20    5.76
   7  -7  -9   14.04    6.39
   7  -7 -10    8.00    4.99
  -7  -7  10    9.29    4.47
  -7  -7  11   18.42    6.15
   7  -7 -11   17.39    7.30
   7  -7 -12    3.10    2.99
   7  -7 -13    3.65    3.06
   7   7  13   -5.87    7.72
   7  -7 -14   21.84    8.35
   7   7  14   19.58    8.78
   7  -7 -15    3.65    3.31
   7   7  15    1.21    5.91
   7  -7 -16    0.87    1.98
   7   7  16    2.92    2.15
  -7  -7  17  -13.07   11.89
   7   7  17   -3.34    6.04
  -7  -7  18  -17.20   13.30
   7   7  18    5.07    4.58
  -7  -7  19  -11.48   12.93
   7   7  19    4.31    8.32
   7   7  20    4.95    8.23
  -7   7  21   -9.40   15.06
   7   7  21    2.99    7.11
  -7   7  22    0.70    6.16
   7   7  22    5.48    8.51
  -8  -7   0   55.63   14.93
   8  -7   0   53.11   13.54
  -8  -7   1    6.69    4.01
  -8  -7   1    9.32    9.02
  -8  -7  -1    6.50    4.26
   8  -7   1    6.37    4.89
   8  -7  -1    6.55    3.81
  -8  -7   2    0.35    0.73
  -8  -7   2   10.94    8.89
   8  -7  -2    3.08    3.69
   8  -7   2    2.17    3.00
  -8  -7   3   79.05   13.69
  -8  -7   3   76.26   16.80
   8  -7   3   74.20   16.96
   8  -7  -3   76.41   15.80
  -8  -7   4   25.43    7.58
   8  -7  -4   24.34    8.71
  -8  -7   4   34.36   11.50
  -8  -7   5   84.56   13.25
   8  -7  -5   81.29   15.88
  -8  -7   5   67.23   15.71
   8   7  -5   79.36   13.24
  -8  -7   6    1.60    1.12
   8  -7  -6    4.88    4.68
   8   7  -6    6.61    5.08
  -8  -7   7    2.62    2.75
   8  -7  -7    1.98    3.31
   8   7  -7    1.38    3.03
   8  -7  -8   11.53    5.79
  -8  -7   8   12.28    4.93
  -8  -7   8   -3.75   10.18
  -8   7  -8    5.55    0.89
   8   7  -8   16.20    7.16
   8  -7  -9    0.89    1.62
  -8  -7   9    1.55    1.89
  -8  -7  10   20.26    6.54
   8  -7 -10   19.44    7.45
  -8  -7  11    0.48    1.01
   8  -7 -11    1.30    1.28
   8   7  11   -7.41    9.50
   8  -7 -12    7.78    4.51
   8   7  12    0.89    6.57
   8  -7 -13    4.62    2.67
   8   7  13    1.67    6.84
   8  -7 -14    0.35    0.87
   8   7  14   -1.64    4.27
   8  -7 -15    1.32    0.86
   8   7  15   -1.92    5.72
  -8  -7  16   11.56    3.45
   8   7  16    3.62    3.45
  -8  -7  17   15.74    5.51
   8   7  17    5.17    5.49
  -8  -7  18   16.20    2.65
   8   7  18   10.31    8.87
  -8  -7  19    7.16    3.25
   8   7  19    2.05    5.22
   8   7  20    3.39    7.13
  -8   7  21   -7.79   12.77
  -8  -7  21  -22.99   18.31
   8   7  21    4.71    7.74
   8   7  22   10.52   11.90
  -9  -7   0   77.85   18.01
   9  -7   0   78.43   17.25
  -9  -7  -1    0.27    3.54
   9  -7  -1   -1.12    2.50
   9  -7   1    0.38    1.77
  -9  -7   2    1.36    1.24
  -9  -7   2   11.76    8.96
  -9  -7  -2    3.76    5.03
   9  -7  -2    2.76    2.36
  -9  -7   3   -0.39    2.75
   9  -7  -3   -0.84    1.67
  -9  -7   3    2.74    7.46
  -9  -7   4   24.11    7.35
   9  -7  -4   24.27    8.71
  -9  -7   4   19.78    6.19
   9   7  -4   26.32    6.89
  -9  -7   5    3.73    2.53
   9  -7  -5    2.77    2.44
   9   7  -5    2.82    2.96
  -9  -7   6    3.02    0.77
   9  -7  -6    5.27    3.94
   9   7  -6    7.41    4.90
  -9  -7   7    6.38    3.28
   9  -7  -7    6.16    3.79
   9   7  -7    7.04    4.39
  -9  -7   8   16.12    5.65
   9  -7  -8   14.10    7.04
  -9   7  -8   19.30    3.29
   9   7  -8   15.50    6.87
  -9  -7   9    1.09    1.06
   9  -7  -9    1.28    2.24
  -9  -7  10   62.51   10.96
   9  -7 -10   59.52   14.05
   9   7  10   53.75   12.91
   9  -7 -11   22.67    8.28
  -9  -7  11   22.56    6.39
   9   7  11   14.31    3.28
   9  -7 -12   22.24    8.51
   9   7  12   13.97    5.96
   9  -7 -13   -1.16    2.12
   9   7  13   -2.36    5.14
   9  -7 -14    0.54    1.86
   9   7  14   -4.27    6.28
   9  -7 -15    1.47    1.33
  -9  -7  15    5.65    7.61
   9   7  15    1.59    3.10
  -9  -7  16   21.19    3.81
   9   7  16    7.60    5.32
  -9  -7  17   26.63    6.44
   9   7  17    4.72    6.91
  -9  -7  18   31.34    8.92
   9   7  18   10.02   10.84
  -9  -7  19   25.16    7.32
   9   7  19    3.43    5.65
  -9  -7  20    8.77    3.76
   9   7  20    5.07    6.88
  -9   7  21   -9.53   13.36
  -9  -7  21   -5.57   13.97
   9   7  21    4.83    8.93
   9   7  22   12.59   13.89
 -10  -7   0   15.83    9.37
  10  -7  -1    3.50    2.82
 -10  -7  -1    7.40    7.43
 -10  -7   1    5.65    7.15
  10  -7  -2   -0.29    2.73
 -10  -7  -2    1.18    4.96
 -10  -7   3   12.84    6.03
  10  -7  -3   11.18    6.21
 -10  -7   3    8.70    7.40
  10   7  -3   11.85    4.51
 -10  -7   4   27.65    8.34
  10  -7  -4   23.25    8.83
 -10  -7   4   17.68    4.60
  10   7  -4   27.69    6.77
 -10  -7   5   19.68    6.69
  10  -7  -5   19.71    8.40
 -10  -7   5   -0.88    9.40
  10   7  -5   19.07    6.35
 -10  -7   6   10.27    4.30
  10  -7  -6   10.19    6.21
  10   7  -6   13.20    5.49
 -10  -7   7    8.03    3.85
  10  -7  -7    7.67    5.45
  10   7  -7    8.82    4.14
  10  -7  -8   16.64    7.21
  10   7   8   10.69    2.71
 -10  -7   8   16.73    5.67
 -10   7  -8   12.77    2.47
  10   7  -8   13.23    5.29
 -10  -7   9    2.97    2.13
  10  -7  -9    3.63    3.92
  10   7   9   -1.85    5.50
  10   7  -9   -1.49    4.50
  10  -7 -10    3.84    4.15
 -10  -7  10    3.69    2.66
  10   7  10   -1.60    5.70
  10  -7 -11   24.37    9.03
 -10  -7  11   20.96    5.96
  10   7  11   20.99    7.96
  10  -7 -12    0.08    2.24
  10   7  12    0.74    0.77
  10  -7 -13    0.74    1.60
  10   7  13    0.62    1.68
  10  -7 -14    0.89    1.64
  10   7  14    3.05    4.27
 -10  -7  15   13.41    8.38
  10   7  15    2.41    8.09
 -10  -7  16   28.69    6.62
  10   7  16    9.15    8.50
 -10  -7  17   43.88   11.85
  10   7  17    4.05    6.49
 -10  -7  18   49.87   13.99
  10   7  18    5.38    9.35
 -10  -7  19   35.75   10.28
  10   7  19    4.56    7.16
 -10  -7  20   15.65    5.39
  10   7  20    9.13   11.09
 -10   7  21   -9.18   13.56
 -10  -7  21    2.41    8.79
  10   7  21    5.76    9.79
  10   7  22   12.13   12.09
 -11  -7   0   70.19   18.35
 -11  -7  -1   17.38   10.28
 -11  -7   1    3.11    7.08
 -11  -7  -2    1.34    2.85
 -11  -7   2    7.07    6.24
  11   7  -2    1.74    1.99
 -11  -7   3    3.92    4.16
  11  -7  -3    6.14    4.86
 -11  -7   3    5.60    6.83
 -11  -7  -3    3.37    2.50
  11   7  -3    5.40    2.62
 -11  -7   4    8.98    5.28
  11  -7  -4    7.36    5.73
 -11  -7   4   -1.98    6.98
  11   7  -4    6.39    2.85
 -11  -7   5   20.19    6.86
  11   7   5   12.27    2.91
  11  -7  -5   17.25    7.84
 -11  -7   5   -1.27    9.70
  11   7  -5   15.46    4.44
  11  -7  -6    2.62    3.24
  11   7   6   -0.91    4.10
  11   7  -6    0.13    2.60
 -11  -7   6    2.46    2.44
  11  -7  -7    2.10    3.13
 -11  -7   7   -0.53    2.16
  11   7  -7   -3.82    4.93
  11   7   7   -1.95    4.06
 -11  -7   8    7.37    3.78
  11  -7  -8    6.00    4.57
 -11   7  -8   13.56    4.38
  11   7   8    6.60    3.35
  11  -7  -9    7.31    5.24
 -11  -7   9    5.00    3.27
  11   7   9    4.25    2.62
  11  -7 -10    9.32    5.79
 -11  -7  10   11.42    4.65
  11   7  10    9.71    5.07
  11  -7 -11    5.66    5.06
  11   7  11    3.47    4.41
  11  -7 -12    0.31    1.97
  11   7  12    1.26    3.32
  11  -7 -13   16.25    7.46
  11   7  13   13.49    7.36
 -11  -7  14  -13.68    8.90
  11   7  14   17.14   10.37
 -11  -7  15   15.34    5.97
  11   7  15    4.93    7.14
 -11  -7  16   41.62    9.35
  11   7  16   18.31   11.61
 -11  -7  17   42.73   11.32
  11   7  17    5.54    7.16
 -11  -7  18   50.03   13.13
  11   7  18   20.18   13.71
 -11  -7  19   39.23   10.26
  11   7  19    4.63    6.40
 -11  -7  20   22.10    6.03
  11   7  20    8.05   10.12
 -11   7  21  -12.68   14.70
 -11  -7  21   -3.66   11.26
  11   7  21   12.10   11.33
  11   7  22    8.98   11.01
 -12  -7   0   31.95   15.27
 -12  -7  -1    9.93    8.33
 -12  -7   1   -1.01    4.94
 -12  -7  -2    8.60    8.33
 -12  -7   2    7.81    9.63
  12   7   2   -0.89    1.39
 -12  -7   3    0.72    2.07
 -12  -7  -3    5.09    6.47
  12   7   3    0.74    0.24
 -12  -7   4    9.19    4.88
  12   7   4    7.39    2.63
 -12  -7   5   21.70    7.58
  12  -7  -5   18.17    8.69
 -12  -7   5    3.19    8.20
  12   7   5   18.32    5.35
 -12  -7   6    5.17    3.41
  12  -7  -6    5.05    5.02
  12   7   6    6.97    4.26
  12  -7  -7   16.96    7.86
 -12  -7   7   16.66    6.03
 -12   7  -7   12.12    3.18
  12   7   7   14.64    6.16
 -12  -7   8    8.82    4.26
  12  -7  -8   10.00    6.09
  12   7   8    8.40    5.26
  12  -7  -9    5.17    3.03
 -12  -7   9    9.30    4.29
  12   7   9    8.31    6.11
  12  -7 -10    0.49    1.89
  12   7  10    5.38    5.42
  12  -7 -11    4.50    4.48
  12   7  11    4.45    4.77
  12  -7 -12   10.36    6.37
  12   7  12   10.84    8.42
  12   7  13    2.24    5.13
  12   7  14    6.67    7.59
 -12  -7  15    9.43    3.13
  12   7  15    8.90    8.94
 -12  -7  16   23.24    4.35
  12   7  16    2.29    6.74
 -12  -7  17   38.71    8.38
  12   7  17    8.54    8.77
 -12  -7  18   42.83   10.87
  12   7  18    5.05    8.11
 -12  -7  19   29.02    5.92
  12   7  19    6.13    9.42
 -12  -7  20   12.14    6.25
  12   7  20    3.81    7.23
 -12  -7  21  -29.95   15.38
  12   7  21    0.88    7.63
  12   7  22    9.52   10.59
 -13  -7   0   13.37    9.90
 -13  -7  -1   15.78   11.19
 -13  -7   1    7.50    7.20
 -13  -7  -2    9.29    8.67
 -13  -7   2    1.29    4.67
 -13  -7   3    7.23    5.40
 -13  -7  -3    8.78    7.86
  13   7   3    5.44    2.17
 -13  -7   4    1.93    2.83
 -13  -7  -4   -0.60    3.34
  13   7   4    3.72    3.01
 -13  -7   5    4.89    3.58
  13   7   5    7.61    4.11
 -13  -7   6   -0.45    1.47
  13   7   6    1.83    3.43
 -13  -7   7    1.61    2.26
  13   7   7    2.41    3.79
 -13   7  -7   -2.52    3.23
 -13  -7   8   18.22    6.28
  13   7   8   17.89    7.64
  13   7   9    4.63    4.93
  13   7  10    9.04    7.27
  13  -7 -11    2.12    3.04
  13   7  11    4.25    4.91
  13   7  12    5.23    6.72
  13   7  13    5.12    7.61
  13   7  14    5.46    7.91
 -13  -7  15  -18.95   11.31
  13   7  15   11.84    9.61
 -13  -7  16   17.95    5.92
  13   7  16    7.99    8.41
 -13  -7  17   21.45    1.92
  13   7  17    5.16    5.85
 -13  -7  18   16.04    6.64
  13   7  18    6.19    7.19
 -13  -7  19   10.95    4.29
  13   7  19   13.84   10.76
 -13  -7  20   -4.08    9.78
  13   7  20   15.27   12.66
  13   7  21    8.04    9.97
 -14  -7   0   25.84   11.89
 -14  -7  -1   18.30   12.32
 -14  -7   1   13.57   10.44
 -14  -7  -2   16.73   10.91
 -14  -7   2   -0.61    1.29
 -14  -7  -3    8.15    7.01
 -14  -7   3   -0.13    4.13
 -14  -7   4    8.79    7.11
 -14  -7  -4   24.71   11.45
 -14  -7   5    7.31    4.15
 -14  -7   6    3.01    2.62
 -14   7  -6   -1.51    4.68
  14   7   6    3.96    3.31
 -14  -7   7    0.66    1.27
  14   7   7    1.60    2.00
 -14  -7   8    0.50    1.25
  14   7   8    0.70    2.43
  14   7   9    0.84    2.80
  14   7  10    2.07    4.86
  14   7  11    5.01    6.03
  14   7  12    5.32    4.94
  14   7  13    2.53    3.23
  14   7  14   -0.03    4.74
  14   7  15    0.31    4.46
 -14  -7  16  -30.79   16.07
  14   7  16    4.89    6.22
 -14  -7  17   -7.89    7.34
 -14  -7  18   -3.41    8.63
 -14  -7  19  -18.44   14.12
 -14   7  20  -11.74   16.31
 -15  -7   0   29.32   13.28
 -15  -7  -1    9.92    8.88
 -15  -7   1    2.12    4.69
 -15  -7  -2    8.60    9.38
 -15  -7   2    0.25    3.33
 -15  -7  -3    4.40    4.06
 -15  -7   3   -5.26    8.74
 -15  -7   4   -0.66    6.15
 -15  -7  -4    6.10    3.88
 -15  -7   5    1.18    2.62
 -15   7  -5   -7.70    7.47
 -15  -7   6    1.22    1.30
 -15  -7   6  -22.98   14.31
 -15  -7   7    7.24    4.10
 -16  -7   0    6.98    7.48
 -16  -7  -1   15.02   10.13
 -16  -7   1    9.31    6.98
 -16  -7  -2    8.34    9.88
 -16  -7   2    4.15    6.26
 -16  -7  -3   14.25   10.94
 -16  -7   3    3.63    5.76
 -16  -7   4   -6.93    6.34
 -16  -7  -4    1.56    2.28
 -16  -7   5    2.71    3.18
 -16   7  -5   -4.63    6.51
 -16  -7   6    1.60    2.64
 -16  -7   6  -27.38   13.00
 -16  -7   7  -31.63   16.98
 -16  -7   8  -26.31   17.91
 -16  -7  10  -24.15   18.78
 -17  -7   0   75.36   21.70
 -17  -7  -1   19.89   12.95
 -17  -7   1   19.93   11.97
 -17  -7  -2   10.66    8.79
 -17  -7   2    4.44    7.56
 -17  -7  -3    6.68    6.79
 -17  -7   3    1.36    5.10
 -17  -7   4   -4.08    6.54
 -17  -7  -4    4.86    7.30
 -17   7  -4   -4.33    6.91
 -17  -7   5  -10.40   10.71
 -17  -7  -5    0.93    1.74
 -17  -7   6  -14.79   12.61
 -17  -7   7  -22.61   12.35
 -17  -7  12  -37.51   23.69
 -18  -7   0   18.50   12.18
 -18  -7  -1   24.06   13.78
 -18  -7   1   21.49   12.77
 -18  -7  -2    7.98    9.45
 -18  -7   2    3.14    6.53
 -18  -7  -3    2.40   10.46
 -18  -7   3   -2.21    4.44
 -18   7  -3   -9.05    9.02
 -18  -7   4   -6.87    9.88
 -18  -7  -4    5.32    7.66
 -18  -7   5  -10.98   10.92
 -18  -7  -5    5.31    6.97
 -18  -7   6  -12.51   14.05
 -18  -7   7  -25.53   18.79
 -18  -7   8  -18.85   18.98
 -18  -7   9  -29.70   19.32
 -18  -7  10  -28.44   20.98
 -18  -7  11  -33.59   22.94
 -19  -7   0    8.91    8.38
 -19  -7  -1    4.66    6.77
 -19  -7   1   14.01   10.91
 -19   7  -1   -7.40   10.72
 -19  -7  -2   28.39   14.35
 -19  -7   2   13.97   10.61
 -19   7  -2   -0.36    7.04
 -19  -7  -3    4.54    7.60
 -19  -7   3   -3.37    0.94
 -19  -7   4    3.63    5.56
 -19  -7  -4    3.34    5.42
 -19  -7   5  -15.06   13.96
 -19  -7  -5   -1.74    5.41
 -19  -7   6  -17.47   11.27
 -19  -7   7  -34.79   16.16
 -19  -7   8  -37.05   17.00
 -19  -7  12  -39.44   25.07
 -20  -7   0   16.61   11.44
 -20   7   0   -7.60    9.13
 -20  -7  -1   31.13   15.75
 -20  -7   1   16.84   13.11
 -20   7  -1   -4.81    7.49
 -20  -7  -2   23.11   14.21
 -20  -7   2    8.70    6.99
 -20  -7  -3    6.84    9.71
 -20  -7   3    3.86    5.88
 -20  -7   4    0.89    5.17
 -20  -7  -4    7.12    8.54
 -20  -7   5  -10.55    9.38
 -20  -7  -5    2.43    7.36
 -20  -7   6   -5.95   10.31
 -20  -7   7  -22.07   16.72
 -20  -7   8  -14.82   14.48
 -20  -7   9  -25.92   17.29
 -21  -7   0   19.33   13.76
 -21   7   0   -6.17   11.14
 -21  -7  -1   21.71   13.75
 -21  -7   1   16.79   11.36
 -21   7   1   -9.54   11.74
 -21  -7  -2   18.04   12.94
 -21  -7   2   13.83   11.35
 -21  -7  -3    5.21    7.38
 -21  -7   3    5.39    6.68
 -21  -7   4    4.43    6.68
 -21  -7  -4   12.16    8.40
 -21  -7   5   -8.27    7.35
 -21  -7  -5   -3.79    6.60
 -21  -7   6   -3.71    8.39
 -21  -7   7  -15.86   13.10
 -21  -7   8  -29.80   16.06
 -22  -7   0   20.40   14.07
 -22  -7  -1   18.96   13.86
 -22  -7   1   14.54   12.78
 -22   7   1  -14.24   12.36
 -22  -7  -2   19.34   11.94
 -22  -7   2   13.01   11.29
 -22   7   2   -6.54   11.02
 -22  -7  -3    4.19    6.65
 -22  -7   3   11.60   11.55
 -22   7   3  -11.94   11.92
 -22  -7   4   13.41    8.76
 -22  -7  -4    7.55    7.79
 -22  -7  -5   -1.55    6.52
 -22  -7   5    1.27    2.41
 -23  -7   0   29.47   16.33
 -23  -7  -1   27.28   17.03
 -23  -7   1   19.22   13.37
 -23  -7  -2    7.47    9.77
 -23  -7   2   12.92   12.66
 -23   7   2  -17.68   10.74
 -23  -7  -3    3.56    5.38
 -23   7   3  -10.63   12.88
 -23  -7  -4    0.12    5.44
 -23   7   4  -12.04   13.31
 -23  -7  -5   -2.30    3.77
 -23   7   5  -12.95   14.31
 -23   7   6  -16.21   16.10
 -24  -7  -3    4.12    6.42
 -24   7   3  -14.27   11.97
 -24  -7  -4   10.34    8.81
 -24   7   4   -6.88   11.72
 -24   7   5  -10.40   12.88
   0  -8   0  424.43   33.26
   0  -8  -1    0.30    2.35
   0   8  -1   -0.71    1.55
   0  -8   1   -0.10    1.62
   0  -8  -2  329.70   29.65
   0  -8   2  323.95   29.31
   0   8  -2  332.42   28.40
   0  -8  -3    0.59    1.82
   0  -8   3   -0.20    2.07
   0  -8  -4  201.06   23.37
   0  -8   4  193.01   23.68
   0   8  -4  193.27   20.90
   0  -8  -5   -0.95    1.16
   0   8  -5   -7.41    6.68
   0  -8   5   -0.81    1.69
   0  -8  -6   95.21   16.89
   0   8  -6   73.79   10.13
   0  -8   6   95.97   16.87
   0  -8  -7    0.15    1.50
   0  -8   7    0.64    2.35
   0  -8  -8  120.57   19.71
   0  -8   8  117.73   19.53
   0   8  -8  117.12   17.51
   0  -8   9    1.40    3.32
   0  -8  -9    2.52    4.71
   0   8  -9   -0.12    0.88
   0  -8 -10  162.82   23.73
   0  -8  10  167.00   24.11
   0  -8  10  147.95   17.87
   0   8 -10  152.20   20.57
   0  -8 -11    0.84    2.72
   0  -8  11    3.78    4.79
   0  -8 -12    6.28    5.06
   0  -8  12   12.41    6.44
   0  -8 -13   -1.15    1.58
   0  -8  13    5.94    5.30
   0  -8 -14    1.06    2.00
   0  -8  14   18.83    7.96
   0  -8 -15    1.56    1.72
   0  -8  15   13.31    7.38
   0  -8 -16  133.61   23.99
   0  -8  16  143.10   17.96
   0  -8 -17    3.37    4.78
   0  -8 -18   10.79    6.95
   0  -8 -19    0.22    0.77
   0   8  19  -11.82   13.90
   0  -8 -20    2.33    4.13
   0   8  20   -8.28   11.21
   0   8  21   -4.02    7.97
   0  -8 -21    1.03    3.94
   0   8  22   -6.16    8.63
   1  -8   0  995.18   51.38
  -1  -8   0  935.74   49.07
  -1  -8   1    6.41    4.19
  -1  -8  -1    5.84    3.99
   1  -8  -1    4.39    3.34
   1  -8   1    5.26    3.64
  -1  -8  -2  102.15   16.58
  -1  -8   2  102.22   16.16
   1  -8   2   96.76   16.54
   1  -8  -2  107.60   16.97
  -1   8  -2  103.78   15.84
   1   8  -2   99.83   17.14
   1  -8  -3   -0.67    1.73
  -1  -8  -3    0.27    1.38
  -1   8  -3   -1.05    1.84
   1   8  -3    0.24    3.24
   1  -8   3   -1.86    4.28
  -1  -8   3   -0.03    1.02
   1  -8  -4    5.26    3.89
  -1  -8  -4    4.58    3.35
   1   8  -4   -0.67    4.96
  -1   8  -4    7.84    5.04
  -1  -8   4    4.04    2.56
   1  -8   4    4.88    3.28
   1  -8  -5    0.83    2.10
  -1  -8  -5    1.83    2.32
  -1   8  -5   -0.51    1.82
  -1  -8   5    0.85    1.32
   1  -8   5    0.60    1.97
   1  -8  -6   74.95   15.10
  -1  -8  -6   79.20   15.51
  -1   8  -6   59.20   10.11
   1   8  -6   69.99   11.91
  -1  -8   6   81.10   15.21
   1  -8   6   78.14   16.07
   1  -8  -7    4.82    4.32
  -1  -8  -7    5.39    4.72
  -1   8  -7   26.08    5.34
   1   8  -7   20.29    9.18
   1  -8   7    5.91    4.47
  -1  -8   7    4.08    3.50
  -1  -8  -8  333.54   32.93
   1  -8  -8  334.76   32.23
  -1  -8   8  347.31   32.65
   1  -8   8  332.44   33.80
   1   8  -8  322.61   30.03
  -1  -8   8  317.60   26.86
  -1   8  -8  306.25   25.78
  -1  -8  -9    2.57    2.25
   1  -8  -9    2.70    3.42
  -1  -8   9    4.55    4.02
   1  -8   9    1.39    1.72
  -1  -8   9    6.53    4.68
  -1   8  -9    2.66    2.21
   1   8  -9   -1.72    4.76
  -1  -8 -10  103.16   19.43
   1  -8 -10  117.00   19.88
  -1  -8  10  117.26   19.82
  -1  -8  10  113.69   16.57
  -1   8 -10  108.00   16.02
   1   8 -10  104.65   17.39
  -1  -8 -11    0.09    2.36
   1  -8 -11    2.48    3.69
  -1  -8  11    8.66    7.25
  -1  -8 -12    8.70    5.54
   1  -8 -12    7.11    4.96
  -1  -8  12   17.48    7.64
  -1  -8 -13   -0.06    2.38
   1  -8 -13   -0.20    2.16
  -1  -8 -14    3.44    3.92
   1  -8 -14    2.37    2.02
   1  -8  14    2.83    2.38
  -1  -8 -15    0.60    2.58
   1  -8 -15   -0.77    2.48
   1  -8  15    2.74    3.18
  -1  -8 -16   51.97   15.25
   1  -8 -16   47.11   14.37
  -1  -8  16   68.91   13.32
  -1  -8 -17    4.29    5.44
   1  -8 -17    2.15    4.03
  -1  -8 -18   39.84   13.98
   1  -8 -18   41.93   13.89
  -1  -8 -19    1.60    2.99
   1   8  19  -12.71   13.39
   1  -8 -19    1.28    3.82
  -1  -8 -20    0.36    4.08
   1  -8 -20    1.21    2.16
   1   8  20  -11.19   12.21
  -1   8  20  -19.01   16.73
  -1   8  21  -14.24   14.54
  -1  -8 -21    2.86    4.69
   1   8  21   -9.49   11.35
  -1   8  22  -10.23   11.17
   1   8  22   -7.64   10.46
  -2  -8   0  626.77   40.81
   2  -8   0  587.17   40.48
  -2  -8  -1    0.01    1.86
  -2  -8   1    2.97    3.31
   2  -8   1   -1.64    2.87
   2  -8  -1    1.54    2.30
  -2  -8  -2    4.84    3.83
  -2  -8   2    7.14    4.33
   2  -8  -2    7.60    4.37
   2  -8   2    3.73    2.66
   2  -8  -3    2.42    1.94
  -2  -8  -3    1.20    1.84
  -2   8  -3    0.69    1.59
  -2  -8   3    1.59    2.13
   2  -8   3    3.42    2.91
   2  -8  -4   18.86    7.28
  -2  -8  -4   18.44    7.39
  -2   8  -4   25.66    8.10
  -2  -8   4   18.81    6.78
   2  -8   4   18.11    7.08
   2  -8  -5    1.27    1.32
  -2  -8  -5    2.25    3.54
  -2   8  -5    9.31    5.42
  -2  -8   5    1.32    1.02
   2  -8   5    3.53    3.50
  -2  -8  -6   63.14   14.47
  -2  -8   6   66.92   13.37
   2  -8  -6   62.42   13.43
  -2  -8   6   61.51   12.13
  -2   8  -6   59.93    9.36
   2  -8   6   67.77   15.02
  -2  -8  -7    0.05    0.81
   2  -8  -7   -0.08    1.58
  -2  -8   7    1.36    3.30
   2  -8   7   -0.13    1.94
  -2  -8   7    0.23    0.44
  -2  -8  -8   46.26   12.89
   2  -8  -8   45.20   11.85
   2  -8   8   48.11   13.15
  -2  -8   8   47.08   11.62
  -2   8  -8   61.56   11.32
  -2  -8   8   48.59   10.96
   2  -8  -9    2.21    0.94
  -2  -8  -9    0.99    1.17
   2  -8   9    0.25    2.57
  -2  -8   9    1.20    1.78
  -2   8  -9    3.69    3.17
  -2  -8 -10   81.33   16.95
   2  -8 -10   89.24   16.99
  -2  -8  10   89.95   16.81
  -2  -8  10  102.39   16.38
  -2   8 -10   82.75   12.92
   2  -8 -11    2.22    2.57
  -2  -8  11    5.39    5.54
  -2  -8  11    0.30    1.11
   2  -8 -12    3.74    3.39
  -2  -8  12   13.65    7.23
   2  -8 -13    0.43    1.42
  -2  -8  13    5.74    4.50
   2  -8 -14   -0.33    1.30
  -2  -8  14    0.30    0.80
   2  -8 -15   -0.65    1.44
  -2  -8  15    7.22    4.49
   2  -8 -16    8.30    5.67
  -2  -8  16    8.64    4.13
   2  -8 -17    1.25    3.17
  -2  -8  17    1.01    1.90
   2   8  18   -1.38    9.23
   2  -8 -18   13.91    7.46
   2   8  19  -13.29   15.50
   2  -8 -19   -0.70    2.36
   2  -8 -20    0.37    1.88
   2   8  20   -2.68   10.24
  -2   8  20  -15.52   15.25
  -2   8  21   -5.13   11.98
  -2  -8 -21    1.25    5.36
   2   8  21    0.86    3.73
  -2  -8 -22    6.40    5.86
  -2   8  22    3.46    4.44
   2   8  22    3.13    0.78
  -3  -8   0   68.98   13.39
   3  -8   0   69.86   13.98
  -3  -8   1   14.15    6.01
  -3  -8  -1   17.61    7.17
   3  -8   1   11.65    5.68
   3  -8  -1   13.78    5.73
  -3  -8   2  148.57   19.14
   3  -8  -2  136.09   19.42
  -3  -8  -2  138.26   19.92
   3  -8   2  137.98   20.77
  -3  -8   3    0.66    2.14
  -3  -8  -3   -0.38    1.44
   3  -8  -3   -0.56    2.41
   3  -8   3   -0.05    2.05
  -3  -8   4   21.54    7.38
  -3  -8  -4   23.47    8.32
   3  -8  -4   23.58    8.07
  -3   8  -4   25.29    7.40
   3  -8   4   24.93    9.39
   3  -8  -5   -0.80    1.76
  -3  -8  -5    0.62    2.54
  -3   8  -5    2.04    4.13
  -3  -8   5    1.03    2.96
  -3  -8   5   -1.13    2.38
   3  -8   5    0.08    0.75
   3  -8  -6    5.39    4.31
  -3  -8  -6    4.84    4.35
  -3  -8   6    6.29    5.09
  -3   8  -6    6.17    2.18
   3  -8   6    4.13    3.91
  -3  -8   6    2.80    0.90
  -3  -8  -7    1.30    1.90
   3  -8  -7    0.86    1.26
  -3  -8   7   12.02    8.07
  -3   8  -7  -10.05    7.05
  -3  -8   7   -0.18    2.43
   3  -8   7    1.04    1.35
   3  -8  -8   30.83    9.67
   3  -8   8   35.44   11.62
  -3  -8   8   34.89    9.90
  -3  -8   8   49.95   12.30
  -3   8  -8   60.79    9.74
   3  -8  -9   -0.80    3.30
  -3  -8   9    0.31    1.28
  -3   8  -9    3.80    3.70
   3  -8 -10   -0.91    3.74
  -3  -8  10    3.96    4.42
  -3  -8  10    0.79    2.60
   3  -8 -11    1.16    2.71
  -3  -8  11    8.03    5.15
  -3  -8  11    2.00    2.93
   3  -8 -12   16.60    7.95
  -3  -8  12   19.87    8.01
   3  -8 -13    3.25    3.95
  -3  -8  13   -0.18    1.75
   3  -8 -14    1.42    3.11
  -3  -8  14   -7.83    5.15
   3  -8 -15    1.76    2.64
  -3  -8  15   -9.56    6.96
   3  -8 -16   -0.01    1.73
  -3  -8  16   -1.38    4.54
   3  -8 -17   -0.38    1.69
  -3  -8  17   -7.36    5.81
   3  -8 -18   -0.19    1.90
   3   8  18   -8.76   12.38
  -3  -8  18   -6.20    5.23
   3  -8 -19   -1.02    3.36
   3   8  19   -8.97   10.17
   3   8  20    0.78    6.86
  -3   8  21   -6.26   11.00
   3   8  21   -0.33    4.33
  -3   8  22   -5.63   11.42
   3   8  22    0.74    0.82
   4  -8   0  105.76   17.83
  -4  -8   0  119.80   17.89
  -4  -8   1    2.87    2.61
  -4  -8  -1    2.66    0.48
   4  -8  -1    2.76    3.34
   4  -8   1    4.24    3.81
  -4  -8  -2   18.67    7.63
  -4  -8   2   17.41    6.67
   4  -8  -2   18.05    7.28
   4  -8   2   15.67    7.30
  -4  -8   3   39.07    9.97
   4  -8  -3   36.83   10.25
  -4  -8  -3   35.23   10.11
  -4  -8   3   36.17    9.42
   4  -8   3   42.85   11.75
   4  -8  -4  214.80   24.70
  -4  -8   4  224.87   23.34
  -4  -8  -4  221.18   26.10
  -4  -8   4  204.46   23.84
   4  -8   4  213.48   27.49
  -4  -8  -5   17.79    7.81
  -4   8  -5   16.59    5.78
  -4  -8   5   17.84    7.91
   4  -8   5   16.08    7.90
   4  -8  -5   18.20    7.43
  -4  -8   5   15.35    6.07
  -4  -8   6   60.57   12.42
   4  -8  -6   68.05   13.81
  -4  -8   6   73.94   16.62
  -4   8  -6   72.00   10.62
   4  -8   6   68.92   16.07
   4  -8  -7    1.15    0.99
  -4   8  -7   -5.28    4.61
  -4  -8   7    6.85    6.30
   4  -8   7    4.07    4.85
  -4  -8   7   -0.05    2.77
   4  -8  -8    4.59    3.70
  -4  -8   8    5.72    4.21
   4  -8  -9    0.19    1.86
  -4  -8   9   -0.05    1.48
  -4  -8   9    3.33    5.33
  -4   8  -9    3.46    3.58
   4  -8 -10   -1.26    3.29
  -4  -8  10    4.96    4.68
  -4  -8  10    1.37    1.55
   4  -8 -11    2.07    1.95
  -4  -8  11    1.97    2.60
  -4  -8  11    4.03    3.53
   4  -8 -12   39.57   11.48
  -4  -8  12   22.80    9.65
   4  -8 -13   14.85    7.54
  -4  -8  13   -0.50    4.26
   4  -8 -14   26.57   10.06
  -4  -8  14    4.41    3.75
   4  -8 -15   -0.19    1.16
  -4  -8  15  -11.63    7.56
   4  -8 -16    2.05    3.13
  -4  -8  16  -19.46    8.98
   4  -8 -17    0.46    1.36
   4   8  17  -10.58   12.32
  -4  -8  17  -10.89    8.18
   4  -8 -18    0.93    2.31
   4   8  18   -8.40   11.06
  -4  -8  18  -14.52    8.76
   4   8  19   -7.35   10.85
   4   8  20    0.54    2.14
  -4   8  21  -13.75   15.50
   4   8  21   -4.64    5.91
   4   8  22    2.48    7.27
  -5  -8   0    8.36    4.61
   5  -8   0    8.26    5.12
  -5  -8  -1    8.19    5.02
  -5  -8   1    8.39    4.54
   5  -8  -1    8.00    4.89
   5  -8   1    9.86    5.80
  -5  -8   2  400.89   31.83
   5  -8  -2  380.67   33.99
  -5  -8  -2  382.77   34.14
  -5  -8   2  389.64   33.61
   5  -8   2  375.05   36.52
  -5  -8   3   53.18   11.32
   5  -8  -3   54.21   12.69
  -5  -8  -3   55.07   13.23
  -5  -8   3   54.51   13.25
   5  -8   3   45.69   13.07
   5  -8  -4  247.75   27.43
  -5  -8   4  258.76   25.39
  -5  -8  -4  263.20   29.06
  -5  -8   4  263.37   27.86
   5  -8   4  240.41   30.23
   5  -8  -5   50.89   12.29
  -5  -8   5   50.12   11.30
  -5  -8   5   55.48   14.94
   5  -8   5   48.44   13.53
   5  -8  -6  169.23   22.28
  -5  -8   6  159.30   19.62
  -5   8  -6  173.55   16.18
  -5  -8   6  186.44   24.38
   5  -8   6  166.88   25.90
  -5  -8   7   28.80   11.26
  -5   8  -7   16.83    4.17
   5  -8  -7   12.72    5.89
   5  -8   7   13.85    7.97
  -5  -8   7   10.80    4.98
  -5  -8   8   31.32    8.52
   5  -8  -8   34.09   10.36
  -5  -8   8   47.62   12.99
  -5   8  -9    4.91    4.31
  -5  -8   9    2.61    3.48
   5  -8  -9    1.59    2.91
  -5  -8   9    1.98    2.02
   5  -8 -10    0.76    2.56
  -5  -8  10   -6.04    6.43
  -5  -8  10   -0.07    0.90
   5  -8 -11   13.18    6.89
  -5  -8  11    1.90    3.77
  -5  -8  11   14.51    6.46
   5  -8 -12   49.14   12.85
  -5  -8  12   10.92    8.42
  -5  -8  12   49.07   11.98
   5  -8 -13   18.09    8.05
  -5  -8  13  -15.06    7.82
   5  -8 -14   53.16   13.75
  -5  -8  14   16.47    6.31
   5  -8 -15    4.64    4.85
   5  -8 -16    4.79    3.86
   5   8  16   -2.29    9.40
  -5  -8  16  -18.67   10.88
   5  -8 -17    1.24    1.39
   5   8  17   -9.82   11.05
   5  -8 -18    5.68    4.58
   5   8  18   -1.27    5.60
   5   8  19   -0.90    6.12
   5   8  20    4.88    5.23
  -5   8  21   -9.58   15.11
   5   8  21    3.35    8.93
   5   8  22   24.91   15.81
  -6  -8   0    1.88    2.80
   6  -8   0    1.06    1.06
  -6  -8  -1   12.62    6.27
  -6  -8   1   12.22    5.77
  -6  -8   1    6.88    2.98
   6  -8   1   15.34    7.63
   6  -8  -1   13.18    6.96
  -6  -8   2  153.96   20.36
  -6  -8  -2  162.16   22.69
  -6  -8   2  164.92   22.68
   6  -8   2  163.22   24.20
   6  -8  -2  163.53   22.97
  -6  -8   3   45.22   10.83
  -6  -8   3   54.14   14.20
   6  -8   3   45.22   13.00
   6  -8  -3   43.65   11.64
  -6  -8   4  324.45   27.99
   6  -8  -4  325.32   31.65
  -6  -8   4  308.18   32.13
   6  -8   4  318.17   35.02
  -6  -8   5   81.62   13.90
   6  -8  -5   76.34   15.18
  -6  -8   5   85.37   17.48
   6  -8   5   75.15   17.68
  -6  -8   6  156.03   19.21
   6  -8  -6  143.69   21.00
  -6   8  -6  157.37   14.77
  -6  -8   6  166.06   23.92
   6  -8   6  152.67   25.27
  -6  -8   7   30.59   10.47
  -6   8  -7   24.86    5.92
   6  -8  -7   18.71    7.29
  -6  -8   7   18.83    6.62
  -6   8  -8   -7.74    5.32
  -6  -8   8   11.44    7.07
  -6  -8   8    7.45    4.18
   6  -8  -8    9.77    5.63
  -6   8  -9    4.86    3.64
  -6  -8   9   -4.53    5.98
   6  -8  -9   -0.37    1.50
  -6  -8   9    0.32    2.25
   6  -8 -10   47.51   12.42
  -6  -8  10   32.66   11.48
  -6  -8  10   51.50   11.41
   6   8 -11   14.24    6.03
  -6  -8  11   -3.81    6.69
   6  -8 -11   14.27    7.17
  -6  -8  11   12.16    5.73
   6   8 -12   46.04   10.94
   6  -8 -12   45.80   12.46
  -6  -8  12   14.16    5.68
  -6  -8  12   40.40   10.32
  -6  -8  13  -16.04   11.47
   6  -8 -13   20.92    8.65
   6  -8 -14    7.26    5.48
   6   8  15   -8.36   11.02
   6  -8 -15   -0.14    2.64
   6   8  16  -10.60   11.78
   6  -8 -16    3.45    4.03
   6   8  17   -5.64    8.81
   6  -8 -17    2.92    4.55
  -6  -8  18  -24.48   13.10
   6   8  18    0.14    5.34
   6   8  19   -0.39    4.62
   6   8  20   -1.82    6.28
  -6   8  21   -6.98   12.69
   6   8  21    1.92    1.60
   6   8  22   12.15   11.74
  -7  -8   0   21.36    7.92
   7  -8   0   21.34    8.88
  -7  -8   1   64.74   13.66
  -7  -8  -1   64.53   14.75
  -7  -8   1   70.76   16.04
   7  -8  -1   67.78   15.32
   7  -8   1   68.56   15.99
  -7  -8   2    8.58    4.85
  -7  -8   2   11.18    7.17
   7  -8   2    7.68    5.65
   7  -8  -2    6.65    5.25
  -7  -8   3  177.80   21.50
  -7  -8   3  198.97   26.51
   7  -8  -3  188.86   25.43
   7  -8   3  165.92   25.99
  -7  -8   4  206.55   22.87
  -7  -8   4  199.70   27.08
   7  -8  -4  211.78   26.32
   7  -8   4  206.73   29.05
  -7  -8   5  124.58   17.41
  -7  -8   5  145.76   23.88
   7  -8   5  139.37   24.22
   7  -8  -5  129.70   20.33
   7  -8  -6   60.57   14.03
  -7  -8   6   66.49   12.70
  -7  -8   6   81.54   18.18
  -7  -8   7   22.82    7.21
  -7   8  -7   30.25    6.41
  -7  -8   7   18.46    8.56
   7  -8  -7   22.12    8.66
  -7  -8   8   -6.60    6.30
  -7   8  -8   -8.26    3.70
  -7  -8   8    0.60    1.39
   7  -8  -8    1.41    2.34
  -7   8  -9    4.35    2.87
   7  -8  -9   -0.49    2.16
  -7  -8   9   -0.30    2.08
   7  -8 -10   42.50   11.99
  -7  -8  10   28.55    6.02
  -7  -8  10   41.22   10.17
   7  -8 -11    6.02    4.35
  -7  -8  11    7.91    4.30
   7  -8 -12   20.16    8.06
  -7  -8  12   18.85    7.05
   7  -8 -13   31.81   10.49
  -7  -8  13    2.88    9.64
   7  -8 -14   77.05   16.51
  -7  -8  14   31.92   11.43
   7   8  14   64.48   17.82
   7  -8 -15    1.42    3.27
   7   8  15   -3.69    7.93
   7  -8 -16    0.33    0.63
   7   8  16   -2.31    6.22
   7   8  17   -6.53    8.50
  -7  -8  18  -30.12   15.64
   7   8  18    0.74    4.83
   7   8  19    0.15    2.15
   7   8  20    3.13    3.49
   7   8  21    4.29    7.02
   7   8  22    2.63    8.54
  -8  -8   0   37.78   10.60
  -8  -8   0   39.78   12.68
   8  -8   0   40.45   12.18
  -8  -8   1   -0.72    0.71
  -8  -8   1   -5.05    3.34
   8  -8   1   -0.38    2.27
   8  -8  -1    0.05    2.04
  -8  -8   2    4.71    3.40
  -8  -8   2   10.83    8.68
   8  -8  -2    5.64    4.83
   8  -8   2    2.80    1.40
  -8  -8   3   78.31   14.73
  -8  -8   3   92.77   20.25
   8  -8   3   75.68   17.93
   8  -8  -3   76.53   16.96
  -8  -8   4   45.06   10.70
  -8  -8   4   74.52   17.20
   8  -8   4   44.67   13.73
   8  -8  -4   47.18   13.04
  -8  -8   5   58.14   11.83
   8  -8  -5   53.65   14.00
  -8  -8   5   71.52   17.58
  -8  -8   6    2.35    1.81
   8  -8  -6    6.49    5.26
   8   8  -6    3.71    2.91
  -8  -8   7    1.04    1.58
   8  -8  -7    1.50    2.90
  -8   8  -7    2.75    2.35
  -8  -8   7    2.39    2.66
   8   8  -7    3.45    4.15
  -8  -8   8   -4.90    8.09
  -8   8  -8    3.53    1.85
   8  -8  -8    0.18    2.01
  -8  -8   8    0.75    0.42
   8  -8  -9   -1.16    3.89
  -8  -8   9   -0.75    1.94
   8  -8 -10   -0.84    2.89
  -8  -8  10    1.09    2.26
   8  -8 -11   -0.94    2.43
  -8  -8  11    1.84    1.52
  -8  -8  12   20.44    6.75
   8  -8 -12   21.67    8.57
   8  -8 -13    9.28    5.07
   8   8  13    2.40    5.93
   8  -8 -14    3.08    2.73
   8   8  14   -5.00    8.46
   8  -8 -15    4.89    3.79
   8   8  15    5.28    1.50
   8  -8 -16    7.64    5.41
   8   8  16    3.84    3.57
   8   8  17   -2.98    4.98
   8   8  18   -0.78    3.09
   8   8  19    1.50    4.11
   8   8  20   10.14   10.32
   8   8  21    1.26    5.98
   8   8  22   -0.04    6.77
  -9  -8   0    2.70    5.64
   9  -8   0    2.61    1.95
  -9  -8   1   -0.06    2.41
  -9  -8   1    5.75    6.41
  -9  -8  -1    2.08    3.22
   9  -8  -1    0.03    0.97
   9  -8   1   -0.17    0.53
  -9  -8   2    1.71    2.08
   9  -8   2    2.01    2.64
   9  -8  -2   -0.27    2.69
  -9  -8   3    1.03    1.82
   9  -8  -3    1.57    2.52
  -9  -8   4   -0.19    1.33
   9  -8  -4    0.66    1.54
  -9  -8   4    6.82    7.56
  -9  -8   5   12.82    5.28
   9  -8  -5   14.31    7.17
  -9  -8   5   10.73    6.88
   9   8  -5   17.10    6.63
  -9  -8   6   -0.34    1.61
   9  -8  -6    0.99    2.90
  -9  -8   6    9.01    8.78
   9   8  -6    3.21    3.67
  -9  -8   7    0.85    1.59
   9  -8  -7    0.78    2.53
   9   8  -7    2.55    4.59
  -9  -8   8    4.35    7.12
  -9   8  -8   21.37    4.44
  -9  -8   8   14.02    5.71
   9  -8  -8   16.77    8.05
  -9  -8   9    6.37    3.46
   9  -8  -9    7.37    5.22
  -9  -8  10    6.88    4.32
  -9  -8  10   40.76    9.91
   9  -8 -10   42.46   12.56
   9  -8 -11    8.67    5.44
  -9  -8  11    8.52    4.38
   9   8  11    2.86    3.78
   9  -8 -12   19.63    7.79
  -9  -8  12   18.99    6.54
   9   8  12   10.51    5.47
   9  -8 -13    0.73    0.38
   9   8  13   -7.22    8.26
   9  -8 -14   13.43    6.93
   9   8  14    7.81    4.75
   9  -8 -15   -0.95    3.00
   9   8  15   -2.84    4.29
   9   8  16    4.63    3.33
   9   8  17    7.10    7.06
   9   8  18    9.88    9.52
   9   8  19    4.90    9.75
   9   8  20    7.20    9.35
   9   8  21   -0.17    3.04
   9   8  22   13.75   13.26
 -10  -8   0   45.08   14.52
  10  -8   0   44.54   13.74
 -10  -8   1   46.75   12.23
 -10  -8   1   52.56   16.47
 -10  -8  -1   38.36   13.73
  10  -8  -1   42.67   13.25
  10  -8   1   40.34   13.18
 -10  -8   2   13.14    6.59
 -10  -8   2   24.47   11.70
  10  -8  -2   13.53    6.95
 -10  -8   3    4.39    3.86
  10  -8  -3    2.90    2.94
 -10  -8   3   10.15    9.80
 -10  -8   4    1.18    2.33
  10  -8  -4    0.78    2.32
 -10  -8   4    6.98    7.42
  10   8  -4    3.46    3.00
 -10  -8   5    1.03    2.15
  10  -8  -5    3.27    2.84
 -10  -8   5    1.65    3.95
  10   8  -5    5.60    4.43
 -10  -8   6   29.93    8.57
  10  -8  -6   33.87   11.67
 -10  -8   6   35.99   12.47
  10   8  -6   32.40    9.50
 -10  -8   7    7.43    4.21
  10  -8  -7    7.35    5.23
 -10  -8   7   -1.38    6.07
  10   8  -7    6.39    4.57
 -10  -8   8   47.76   10.58
  10  -8  -8   51.27   14.01
 -10  -8   8   31.13   10.31
  10   8  -8   42.07   11.15
 -10  -8   9   22.21    7.10
 -10  -8   9    5.23    9.39
  10  -8  -9   20.08    8.89
  10   8  10    0.46    7.02
 -10  -8  10  -13.07   13.05
  10  -8 -10    7.54    5.79
 -10  -8  10    5.58    3.50
 -10  -8  11    3.37    2.71
  10  -8 -11    3.14    3.67
  10   8  11    0.46    4.72
  10  -8 -12    1.37    2.82
  10   8  12   -0.60    3.54
  10  -8 -13    5.28    4.62
  10   8  13    0.80    3.06
  10  -8 -14   -0.26    2.67
  10   8  14   -1.00    4.18
  10   8  15    1.30    1.51
  10   8  16   -0.39    4.46
  10   8  17    2.05    5.37
  10   8  18    4.16    6.56
  10   8  19    8.40   10.35
  10   8  20    2.88    8.59
  10   8  21    8.63   10.52
 -11  -8   0   74.24   18.69
 -11  -8  -1  100.72   21.99
 -11  -8   1  120.36   25.57
  11  -8  -1  117.87   23.42
 -11  -8   2   15.15    7.69
  11  -8  -2   15.07    7.70
 -11  -8   2   30.35   13.17
 -11  -8  -2    9.75    6.99
 -11  -8   3   36.71   10.50
  11  -8  -3   32.67   11.92
 -11  -8   3   53.54   16.68
  11   8  -3   35.35    7.57
 -11  -8   4    8.70    5.20
  11  -8  -4    7.28    6.53
 -11  -8   4    8.02    7.30
  11   8  -4   12.35    5.09
 -11  -8   5   12.14    5.75
  11  -8  -5   12.34    7.47
 -11  -8   5   12.20    6.19
  11   8  -5   14.99    5.44
 -11  -8   6   28.52    8.41
  11  -8  -6   28.50   10.84
 -11  -8   6   19.85    7.98
  11   8  -6   25.12    7.11
 -11  -8   7   47.48   10.62
 -11  -8   7   30.86    9.54
  11  -8  -7   48.78   13.92
 -11  -8   8   11.80    5.29
  11   8   8    3.19    3.63
  11  -8  -8   14.97    7.93
 -11  -8   9   34.41    9.04
  11   8   9   29.27    9.03
  11  -8  -9   34.89   11.74
  11  -8 -10   11.98    6.71
 -11  -8  10   15.26    6.15
  11   8  10   12.04    5.84
  11  -8 -11   17.45    8.87
  11   8  11   13.38    5.71
  11  -8 -12   17.80    8.39
  11   8  12   11.50    6.65
  11  -8 -13    2.00    3.01
  11   8  13    0.29    2.20
  11   8  14    4.74    5.19
  11   8  15   12.07    9.35
  11   8  16   11.32    8.83
 -11  -8  17  -31.38   14.77
  11   8  17   15.69   10.64
  11   8  18    7.05    9.25
  11   8  19    6.48   10.42
  11   8  20    9.86   10.94
  11   8  21   13.29   12.06
 -12  -8   0   33.15   14.12
 -12  -8  -1   59.07   17.56
 -12  -8   1   71.39   20.19
  12   8  -1   57.54    7.07
 -12  -8   2   15.72   10.31
 -12  -8  -2   10.28    8.47
  12   8  -2    9.38    3.48
 -12  -8   3   41.67   11.81
  12  -8  -3   38.97   13.11
 -12  -8   3   57.26   17.67
  12   8  -3   37.29    6.32
 -12  -8   4   10.09    5.59
 -12  -8   4   22.25   10.80
  12  -8  -4   11.91    7.47
  12   8   5   -2.95    4.93
 -12  -8   5   -1.53    2.04
 -12  -8   5   -5.15    5.89
  12  -8  -5   -2.14    4.92
 -12  -8   6    0.55    1.36
  12   8   6   -2.80    4.20
  12  -8  -6    1.06    2.11
 -12  -8   6   -2.19    3.35
 -12  -8   7  101.12   15.97
  12  -8  -7   95.28   20.36
 -12  -8   7   66.28   16.95
  12   8   7   94.02   15.93
 -12  -8   8   16.67    6.40
  12  -8  -8   15.12    7.77
  12   8   8   10.72    4.95
 -12  -8   9   69.53   13.01
  12  -8  -9   61.45   16.17
 -12  -8   9   35.43   11.07
  12   8   9   60.62   14.04
  12  -8 -10    1.72    2.53
  12   8  10   -1.96    3.50
  12  -8 -11    4.41    3.90
  12   8  11    5.11    5.53
  12  -8 -12    1.07    1.28
  12   8  12    3.16    3.85
  12   8  13   10.97    7.78
  12   8  14   -1.30    4.05
 -12  -8  15  -18.82   15.71
  12   8  15   13.68   10.10
  12   8  16   11.17    8.30
  12   8  17   22.72   13.33
  12   8  18    3.20    7.92
  12   8  19    9.82   10.57
  12   8  20   11.18   11.05
  12   8  21    2.18    6.80
 -13  -8   0   31.56   13.25
 -13  -8  -1   76.82   19.74
 -13  -8   1   99.59   23.27
 -13  -8   2   14.75   11.92
 -13  -8  -2    5.91    6.92
  13   8   2    2.89    1.65
 -13  -8   3    8.22    5.05
 -13  -8   3   14.25   11.19
 -13  -8  -3   12.82    7.02
  13   8   3    8.08    3.10
 -13  -8   4   10.97    5.70
 -13  -8   4    5.84    6.92
  13   8   4    9.83    3.90
 -13  -8   5   45.40   11.56
 -13  -8   5   37.92   13.45
  13   8   5   44.88    9.31
 -13  -8   6    3.66    3.44
  13  -8  -6    0.36    2.70
  13   8   6    2.21    2.27
 -13  -8   7   48.46   11.24
  13  -8  -7   36.59   12.66
 -13  -8   7   11.34    7.92
  13   8   7   46.87   11.26
 -13  -8   8    1.06    1.58
  13  -8  -8   -0.99    3.82
  13   8   8    3.84    4.30
  13  -8  -9   56.35   16.08
 -13  -8   9   16.17    4.29
  13   8   9   54.88   13.46
  13  -8 -10    1.19    2.73
  13   8  10    5.48    5.27
  13  -8 -11   11.35    6.73
  13   8  11   16.30    8.63
  13   8  12    5.77    5.76
  13   8  13    3.46    5.53
  13   8  14    7.08    7.46
 -13  -8  15  -23.32   17.85
  13   8  15   18.76   10.75
  13   8  16   10.15    9.62
  13   8  17   10.65   11.37
  13   8  18   13.51   12.13
 -14  -8   0   12.89   10.86
 -14  -8  -1   51.40   16.44
 -14  -8   1   64.89   18.55
 -14  -8   2   17.72   11.39
 -14  -8  -2    6.62    8.45
 -14  -8   3    2.41    2.40
 -14  -8   3    9.89    7.51
 -14  -8  -3    4.91    3.96
 -14  -8   4   -0.64    1.79
 -14  -8   4   14.11   10.00
 -14  -8   5   20.61    8.00
 -14  -8   5    8.60    6.93
 -14  -8   6    0.99    0.99
 -14  -8   6  -10.15    9.24
 -14  -8   7   20.84    7.54
 -14  -8   7  -18.19   10.36
 -14  -8   8  -31.68   13.87
 -14  -8   9  -10.91   12.39
 -14  -8  10  -17.26   13.69
 -14  -8  11  -30.77   14.38
 -14  -8  13  -33.24   21.46
 -15  -8   0   31.07   14.42
 -15  -8  -1    8.15    9.84
 -15  -8   1   11.81   10.10
 -15  -8  -2    8.10    7.63
 -15  -8   2   20.46   12.32
 -15  -8   3   16.03   11.25
 -15  -8  -3   -1.99    4.72
 -15  -8   4    1.38    1.89
 -15  -8   4    4.23    6.33
 -15  -8   5   -0.54    1.40
 -15  -8   5   -1.20    4.49
 -15  -8   6   -0.05    1.46
 -15  -8   6   -8.33    9.15
 -15  -8   7    4.10    3.10
 -15  -8   7  -21.58   11.58
 -15  -8   8  -29.32   13.70
 -15  -8   9  -33.70   14.91
 -15  -8  13  -26.58   17.32
 -15  -8  17  -38.44   18.20
 -16  -8   0   22.14   12.37
 -16  -8  -1   18.95   10.87
 -16  -8   1   29.82   14.12
 -16  -8  -2    3.57    8.94
 -16  -8   2   11.72   10.19
 -16  -8   3   19.00   11.44
 -16  -8  -3    4.26    5.50
 -16  -8   4    5.12    3.46
 -16  -8   4    8.13    6.98
 -16  -8   5    8.07    5.72
 -16  -8   5    7.87    7.29
 -16  -8   6    0.84    2.82
 -16  -8   6   -3.90    9.47
 -16  -8   7  -16.04   11.21
 -16  -8   8  -24.22   12.78
 -16  -8   9  -32.35   15.01
 -16  -8  10  -20.27   14.99
 -16  -8  12  -30.99   18.45
 -16  -8  14  -37.78   21.07
 -17  -8   0    7.84    9.48
 -17  -8  -1   23.90   13.10
 -17  -8   1   22.55   12.87
 -17  -8  -2   15.34   11.17
 -17  -8   2    7.00    8.21
 -17  -8   3   70.07   20.52
 -17  -8  -3   62.24   20.80
 -17  -8   4    0.44    3.05
 -17  -8  -4    5.07    3.88
 -17  -8   5   41.98   12.68
 -17  -8   5   37.82   15.96
 -17  -8   6  -10.24    8.63
 -17  -8   7    4.14    7.80
 -17  -8   8  -22.26   16.31
 -17  -8   9   -8.02   11.38
 -17  -8  10  -13.72   13.46
 -17  -8  11   -9.91   15.29
 -17  -8  12  -34.20   16.74
 -17  -8  13  -23.86   20.63
 -17  -8  14  -39.71   18.69
 -18  -8   0   23.64   13.16
 -18  -8   1   61.65   20.24
 -18  -8  -1   70.98   21.44
 -18  -8  -2   16.22   11.37
 -18  -8   2   26.78   13.31
 -18  -8   3   49.76   18.14
 -18  -8  -3   29.35   14.68
 -18  -8   4   10.58   10.16
 -18  -8  -4   15.24   12.15
 -18  -8   5   79.09   22.92
 -18  -8   6   -7.56    7.26
 -18  -8   7   13.27    7.33
 -18  -8   8  -21.51   13.19
 -18  -8   9   -5.06   10.78
 -18  -8  10  -35.69   16.91
 -18  -8  11  -26.93   14.98
 -18  -8  12  -17.69   16.93
 -19  -8   0   18.76   12.48
 -19  -8  -1   41.67   17.49
 -19  -8   1   36.65   16.08
 -19  -8  -2    8.96    9.32
 -19  -8   2   18.05   11.49
 -19  -8   3   38.66   17.89
 -19  -8  -3   33.88   15.24
 -19  -8   4   18.02   11.79
 -19  -8  -4    8.48    8.18
 -19  -8   5   34.96   16.57
 -19  -8   6    4.46    6.12
 -19  -8   7    1.12    3.50
 -19  -8   8  -14.96   12.87
 -19  -8   9  -11.84    9.84
 -19  -8  10  -20.45   16.86
 -19  -8  11    1.56    5.89
 -20  -8   0   22.82   13.88
 -20  -8  -1   21.56   11.69
 -20  -8   1   27.54   14.81
 -20  -8  -2    6.58    5.76
 -20  -8   2   15.07   12.35
 -20  -8   3   43.86   18.62
 -20  -8  -3   33.91   14.83
 -20  -8   4   14.78   10.88
 -20  -8  -4    7.13   10.48
 -20  -8   5    6.97    7.34
 -20  -8   6    4.59    8.71
 -20  -8   7   11.24    7.41
 -20  -8   8  -12.04   11.85
 -20  -8   9  -13.55   10.79
 -21  -8   0   23.19   14.15
 -21  -8  -1   16.97   12.73
 -21  -8   1   20.29   13.36
 -21  -8  -2   12.74   11.35
 -21  -8   2   16.94   12.08
 -21  -8   3   17.97   12.66
 -21  -8  -3    2.77    4.97
 -21  -8   4    9.65   10.50
 -21  -8  -4    2.05    4.85
 -21  -8   5    2.14    4.76
 -21  -8   6   12.42   10.75
 -22  -8   0   22.04   14.73
 -22  -8  -1   10.55   10.35
 -22  -8   1   32.65   16.96
 -22  -8  -2    6.53    9.91
 -22  -8   2   19.34   15.29
 -22   8   2  -10.22   12.53
 -22  -8   3   25.67   16.50
 -22  -8  -3   13.42   11.93
 -22  -8  -4    4.89    4.32
 -23  -8  -1   19.26   12.40
 -23  -8  -2    7.94    8.58
 -23  -8  -3   10.70    9.54
 -23   8   3  -11.48   13.87
 -23  -8  -4    4.05    3.10
 -23   8   4  -12.36   14.43
 -24   8   4  -11.95   13.22
 -24   8   5    0.21    9.25
   0  -9   0    1.54    3.81
   0  -9   1  132.39   20.34
   0  -9  -1  140.24   20.59
   0  -9  -2    0.06    1.79
   0  -9   2    0.38    1.22
   0  -9  -3   77.16   15.61
   0  -9   3   75.57   15.33
   0  -9  -4   -0.37    2.54
   0  -9   4   -1.76    3.39
   0  -9  -5  142.77   21.45
   0  -9   5  149.46   21.95
   0  -9  -6   -0.40    2.22
   0  -9   6    1.03    2.32
   0  -9  -7   74.20   16.24
   0   9  -7   98.93   14.72
   0  -9   7   77.16   16.28
   0  -9  -8    2.68    4.05
   0  -9   8    1.55    2.97
   0   9  -8   10.82    8.17
   0  -9   9   17.07    8.42
   0  -9  -9   13.79    7.29
   0   9  -9   14.52    6.91
   0  -9  10    0.50    3.72
   0  -9 -10   -0.07    3.35
   0   9 -10   -6.06    6.41
   0  -9 -11   37.01   12.12
   0  -9 -12    0.75    2.12
   0  -9 -13    5.12    4.74
   0  -9 -14   -0.54    2.54
   0  -9  14   -1.12    2.65
   0  -9 -15   17.35    8.90
   0  -9  15   11.48    6.08
   0  -9 -16    1.00    3.72
   0  -9 -17   19.17    9.40
   0  -9 -18    1.78    1.83
   0  -9 -19   11.09    7.90
   0  -9 -20    1.22    3.49
   0   9  20  -17.01   15.28
   0  -9 -21   -0.09    1.81
   0   9  21  -10.31   13.48
  -1  -9   0    2.14    2.82
   1  -9   0    2.29    3.12
  -1  -9   1  802.16   48.30
  -1  -9  -1  777.54   48.70
   1  -9   1  773.79   49.16
   1  -9  -1  817.38   49.93
   1  -9  -2    1.03    2.15
  -1  -9  -2    1.95    2.70
  -1  -9   2   -0.26    1.30
   1  -9   2   -0.67    3.60
  -1  -9  -3  138.53   20.71
  -1  -9   3  143.69   20.51
   1  -9  -3  140.66   20.73
   1  -9   3  142.41   21.14
  -1  -9  -4    0.58    0.98
   1  -9  -4   -0.06    2.30
  -1   9  -4    6.30    5.15
  -1  -9   4    0.19    2.39
   1  -9   4   -0.81    2.48
   1  -9  -5   32.50   10.15
  -1  -9   5   29.24    9.13
  -1  -9  -5   31.95   10.04
  -1   9  -5   36.11    9.48
   1  -9   5   31.75   10.56
  -1  -9  -6   -0.09    0.24
   1  -9  -6   -2.33    3.70
  -1   9  -6   -7.63    6.83
   1  -9   6   -0.62    2.07
  -1  -9   6    0.30    1.93
   1  -9  -7  458.01   39.22
  -1  -9  -7  469.22   40.33
  -1   9  -7  421.52   31.49
   1  -9   7  475.22   41.80
  -1  -9   7  475.02   39.75
   1  -9  -8    1.14    1.15
  -1  -9  -8    0.90    1.55
   1  -9   8    3.46    5.24
  -1  -9   8    1.68    3.54
   1  -9  -9  412.28   38.22
  -1  -9  -9  407.73   38.90
  -1  -9   9  406.13   38.14
   1  -9   9  410.02   40.41
  -1   9  -9  373.25   31.19
  -1  -9 -10   -0.84    1.37
   1  -9 -10    1.55    3.15
   1  -9  10   -0.23    3.48
  -1  -9  10    2.23    2.81
  -1  -9  10   -0.36    0.48
  -1   9 -10   -3.00    4.97
  -1  -9 -11   25.23   10.31
   1  -9 -11   22.94    9.25
  -1  -9  11   22.07    7.54
  -1  -9  11   23.08    9.52
  -1  -9 -12    1.27    1.55
   1  -9 -12    0.25    1.98
  -1  -9  12    3.26    4.12
  -1  -9 -13   13.80    7.78
   1  -9 -13    9.67    6.17
  -1  -9  13   14.27    6.52
  -1  -9 -14    4.46    4.93
   1  -9 -14    3.17    3.96
  -1  -9  14    2.62    2.95
  -1  -9 -15   25.01   11.20
   1  -9 -15   29.61   11.30
  -1  -9  15   35.52   10.46
  -1  -9 -16    1.57    4.47
   1  -9 -16    0.35    3.38
  -1  -9  16   12.70    7.79
  -1  -9 -17   34.12   13.11
   1  -9 -17   32.67   12.51
  -1  -9 -18    2.68    5.62
   1  -9 -18    1.19    2.55
  -1  -9 -19   -1.04    2.30
   1  -9 -19   -1.10    2.38
  -1  -9 -20    0.25    3.13
   1  -9 -20   -1.53    3.52
   1   9  20  -11.20   12.79
  -1  -9 -21    4.56    5.20
   1   9  21   -6.63   11.42
  -1   9  21   -8.34   15.80
  -2  -9   0   23.43    8.04
   2  -9   0   19.53    7.61
  -2  -9  -1   29.30    9.44
  -2  -9   1   33.69   10.15
   2  -9   1   28.08    9.28
   2  -9  -1   30.77    9.71
  -2  -9  -2   18.59    7.71
   2  -9   2   12.72    5.45
  -2  -9   2   14.91    7.05
   2  -9  -2   17.52    7.59
  -2  -9  -3   15.41    7.08
  -2   9  -3   18.75    7.06
   2  -9   3    8.70    4.45
   2  -9  -3   12.78    6.19
  -2  -9   3   14.57    6.81
   2  -9  -4    6.25    4.16
  -2  -9  -4    2.79    2.12
  -2   9  -4   12.65    6.68
  -2  -9   4    4.18    2.62
   2  -9   4    0.75    1.74
  -2  -9  -5    0.70    1.93
   2  -9  -5   -2.50    4.00
  -2   9  -5    5.92    5.19
   2  -9   5    2.20    3.19
  -2  -9   5    0.93    0.39
   2  -9  -6    4.97    3.49
  -2  -9  -6    8.25    5.27
  -2   9  -6    2.03    1.13
  -2  -9   6    4.91    2.40
   2  -9   6    8.02    5.75
  -2  -9  -7    7.38    5.79
   2  -9  -7    4.46    3.26
  -2   9  -7   -8.88    8.18
  -2  -9   7   10.24    5.62
   2  -9   7    8.33    5.71
  -2  -9  -8    2.84    3.54
   2  -9  -8    2.92    2.50
  -2  -9   8    6.59    4.49
  -2  -9   8    3.00    2.84
   2  -9   8    0.35    1.75
   2  -9  -9   48.60   13.03
  -2  -9  -9   50.54   13.71
  -2  -9   9   53.09   13.40
   2  -9   9   55.73   15.12
  -2  -9   9   51.78   12.22
  -2   9  -9   53.91   11.44
  -2  -9 -10    5.55    4.51
   2  -9 -10    3.36    3.04
  -2  -9  10    5.66    4.31
  -2  -9  10    5.42    5.50
  -2   9 -10    0.68    2.79
   2  -9 -11    8.68    5.52
  -2  -9 -11    7.33    5.76
  -2  -9  11    6.82    5.66
  -2  -9  11    6.48    5.19
  -2  -9 -12   -1.33    0.67
   2  -9 -12    1.12    2.89
   2  -9 -13    6.52    5.33
  -2  -9 -13    9.14    6.78
  -2  -9  13   14.61    7.77
  -2  -9 -14    1.92    3.50
   2  -9 -14   -1.08    3.67
  -2  -9 -15    3.88    5.38
   2  -9 -15   -1.30    2.16
  -2  -9  15    8.24    6.53
  -2  -9 -16    1.25    4.09
   2  -9 -16   -0.18    0.62
  -2  -9 -17   25.20   11.11
   2  -9 -17   25.13   10.54
  -2  -9 -18   -0.14    2.48
   2  -9 -18   -1.86    3.43
  -2  -9 -19   -1.17    4.40
   2   9  19  -10.49   13.80
   2  -9 -19    0.94    3.37
  -2  -9 -20    1.12    3.67
   2   9  20   -6.96   11.29
   2  -9 -20    0.80    2.79
  -2  -9 -21    3.15    3.37
   2   9  21   -6.66   10.18
  -2   9  21   -7.63   14.86
  -2  -9 -22    6.21    6.53
  -3  -9   0    2.03    1.32
   3  -9   0    0.33    2.96
  -3  -9  -1   58.25   13.38
   3  -9  -1   54.58   13.43
  -3  -9   1   58.17   12.97
   3  -9   1   48.95   12.05
  -3  -9   2    0.25    0.56
  -3  -9  -2    1.61    1.90
   3  -9   2   -0.71    3.19
   3  -9  -2    0.11    2.00
   3  -9  -3   31.71   10.05
  -3  -9   3   33.84    9.67
  -3  -9  -3   27.75    9.34
   3  -9   3   37.93   11.54
  -3  -9  -4    6.22    4.13
  -3   9  -4    9.31    5.46
   3  -9   4    7.46    5.10
   3  -9  -4    9.37    5.36
  -3  -9   4    6.07    4.31
  -3  -9   5  126.81   18.93
   3  -9  -5  128.67   20.04
  -3  -9  -5  129.92   21.16
  -3   9  -5  131.25   17.15
   3  -9   5  129.56   22.53
   3  -9  -6   -2.77    4.28
  -3  -9  -6    4.24    5.20
  -3   9  -6    3.07    3.85
  -3  -9   6    1.17    2.70
  -3  -9   6   -0.73    3.85
   3  -9   6    2.32    3.32
  -3  -9  -7    7.65    6.49
   3  -9  -7    4.30    2.90
  -3   9  -7   -3.88    5.75
  -3  -9   7    4.19    4.03
   3  -9   7    2.60    2.07
  -3  -9   7    0.47    3.21
  -3  -9  -8    1.46    2.42
   3  -9  -8    1.44    0.98
  -3  -9   8    2.35    4.04
  -3   9  -8   -0.16    5.73
   3  -9   8   -0.08    3.02
  -3  -9   8    0.48    1.63
   3  -9  -9   22.50    8.39
  -3  -9  -9   24.99    9.62
  -3  -9   9   26.43    9.31
   3  -9   9   20.42    9.24
  -3  -9   9   25.46    8.76
  -3   9  -9   32.90    9.15
  -3  -9 -10    0.71    2.14
   3  -9 -10   -0.43    2.60
  -3  -9  10    1.32    2.26
  -3   9 -10   -1.40    3.09
  -3  -9 -11   11.24    7.08
   3  -9 -11   16.62    7.82
  -3  -9  11   28.39   10.71
  -3  -9  11   11.79    6.69
  -3  -9 -12    4.56    5.21
   3  -9 -12    6.19    5.60
  -3  -9  12   14.79    7.86
  -3  -9  12    4.64    3.88
   3  -9 -13   12.06    6.75
  -3  -9  13   27.64   10.33
   3  -9 -14    2.52    3.48
  -3  -9  14   10.03    5.92
   3  -9 -15   -0.36    2.17
  -3  -9  15    6.24    5.30
   3  -9 -16   -0.25    1.52
  -3  -9  16    8.03    6.38
   3  -9 -17   13.10    6.98
  -3  -9  17   26.57   10.29
   3  -9 -18    1.73    1.81
  -3  -9 -19    4.38    5.40
   3   9  19   -2.75    8.98
   3  -9 -19   -0.25    1.04
  -3  -9 -20    1.45    3.94
   3   9  20   -5.10   11.27
  -3  -9 -21    6.17    6.84
  -3   9  21   -6.85   13.98
   3   9  21    1.47    6.00
  -3  -9 -22    3.86    5.62
  -4  -9   0   -1.17    3.22
   4  -9   0   -1.07    3.82
  -4  -9  -1    1.45    0.68
  -4  -9   1    3.11    3.31
   4  -9  -1    0.34    1.70
   4  -9   1    1.74    1.87
  -4  -9   2   37.71   10.42
   4  -9  -2   35.91   10.96
  -4  -9  -2   31.39   10.15
   4  -9   2   30.87   10.57
  -4  -9   3   32.42   10.00
   4  -9  -3   32.42   10.15
  -4  -9  -3   32.06   10.06
   4  -9   3   28.70    9.97
   4  -9  -4   55.91   13.52
  -4  -9   4   61.79   13.39
  -4  -9  -4   61.70   14.70
   4  -9   4   58.42   14.95
   4  -9  -5   37.84   11.14
  -4  -9   5   41.83   10.74
  -4  -9  -5   45.34   12.93
  -4   9  -5   40.76    9.60
  -4  -9   5   43.21   10.75
   4  -9   5   43.43   13.15
  -4  -9  -6   30.16   11.05
  -4   9  -6   34.96    9.27
  -4  -9   6   26.19    9.56
   4  -9  -6   22.86    8.52
   4  -9   6   27.04   10.54
  -4  -9   6   21.97    7.48
  -4  -9  -7    4.38    5.08
  -4  -9   7    5.01    5.69
  -4   9  -7   -3.41    3.22
  -4  -9   7   -1.43    3.29
   4  -9   7    0.24    2.30
   4  -9  -7    0.75    1.22
  -4  -9  -8    1.99    4.45
   4  -9  -8    0.99    2.63
  -4  -9   8   10.18    7.14
  -4  -9   8    1.33    1.54
   4  -9   8    0.63    2.19
  -4  -9  -9    8.32    5.38
   4  -9  -9   11.68    6.72
  -4  -9   9    9.55    5.36
  -4  -9   9   31.52   11.12
  -4   9  -9   24.85    7.72
   4  -9 -10    3.22    4.35
  -4  -9  10   -0.64    1.29
   4  -9 -11   19.16    8.78
  -4  -9  11   20.42    8.79
  -4  -9  11   18.93    8.04
   4  -9 -12   23.55    9.59
  -4  -9  12   28.50    9.63
  -4  -9  12   18.82    7.90
   4  -9 -13    8.15    6.39
  -4  -9  13    8.99    6.70
   4  -9 -14    8.01    6.12
  -4  -9  14    7.48    5.84
   4  -9 -15    2.31    2.86
  -4  -9  15    5.73    5.67
   4  -9 -16   -1.08    2.69
  -4  -9  16    8.28    5.96
   4  -9 -17   -0.04    3.13
  -4  -9  17    5.78    5.00
   4  -9 -18   -0.56    4.63
   4   9  18  -13.33   13.18
  -4  -9  18   -0.16    0.63
   4   9  19  -11.84   11.85
   4   9  20   -6.92   10.59
   4   9  21   -3.04    5.98
  -4  -9 -23    2.02    6.18
  -5  -9   0   -0.90    2.63
   5  -9   0    0.93    2.06
  -5  -9   1  256.57   27.70
  -5  -9  -1  251.65   28.57
   5  -9  -1  246.14   29.16
   5  -9   1  253.96   30.90
  -5  -9   2   70.75   14.72
  -5  -9  -2   68.65   15.33
   5  -9  -2   60.75   14.68
   5  -9   2   73.41   16.74
  -5  -9   3  476.72   36.66
   5  -9  -3  475.94   40.01
  -5  -9  -3  478.56   40.31
   5  -9   3  481.60   43.43
   5  -9  -4   46.66   12.36
  -5  -9   4   54.18   12.90
  -5  -9  -4   57.61   14.57
  -5  -9   4   46.72   12.58
   5  -9   4   57.60   15.19
  -5  -9   5  390.71   33.01
   5  -9  -5  377.28   35.62
  -5  -9  -5  372.22   36.92
  -5   9  -5  385.94   27.94
  -5  -9   5  398.11   36.03
   5  -9   5  415.31   41.40
  -5  -9   6   30.75    9.19
   5  -9  -6   31.66    9.96
  -5  -9  -6   35.47   11.81
  -5  -9   6   32.76   11.01
  -5   9  -6   43.26    9.84
   5  -9   6   40.09   13.30
   5  -9  -7  134.33   21.58
  -5  -9   7  132.41   19.11
  -5  -9   7  158.23   22.63
  -5   9  -7  135.93   14.67
   5  -9   7  141.57   25.25
  -5  -9   8    2.41    0.71
   5  -9  -8    4.76    3.84
   5  -9  -9   61.22   14.73
  -5   9  -9   84.76   10.98
  -5  -9   9   60.85   15.04
  -5  -9   9   63.84   13.99
   5  -9 -10    1.04    2.56
  -5  -9  10    6.52    6.39
  -5  -9  10    0.24    1.54
   5  -9 -11   97.52   18.92
  -5  -9  11  122.06   20.32
  -5  -9  11   99.46   17.63
   5  -9 -12   14.56    7.88
  -5  -9  12   23.38    9.09
  -5  -9  12   15.07    7.46
   5  -9 -13  106.89   20.49
  -5  -9  13  104.67   19.79
   5  -9 -14   10.13    6.81
  -5  -9  14    7.40    6.16
   5  -9 -15   20.92    9.55
  -5  -9  15   18.56    8.92
   5  -9 -16    1.15    2.65
  -5  -9  16    3.72    4.69
   5  -9 -17    2.20    4.69
   5   9  17   -9.09   12.32
  -5  -9  17    4.79    4.81
   5  -9 -18    2.77    4.16
   5   9  18   -5.04   11.66
  -5  -9  18    0.08    1.96
   5   9  19   -1.82    8.55
   5   9  20   -1.44    5.81
   5   9  21    8.13    5.72
  -6  -9   0   82.90   16.34
   6  -9   0   85.09   18.25
  -6  -9  -1  164.63   23.39
  -6  -9   1  167.59   22.64
   6  -9   1  171.13   25.72
   6  -9  -1  176.53   25.49
  -6  -9   2  146.00   21.03
  -6  -9  -2  139.45   21.97
   6  -9   2  129.52   23.12
   6  -9  -2  133.21   22.51
  -6  -9  -3   20.28    9.15
  -6  -9   3   17.24    7.07
  -6  -9   3   11.72    6.13
   6  -9  -3   15.52    6.93
   6  -9   3   17.23    8.77
  -6  -9   4  255.88   26.89
   6  -9  -4  255.25   29.81
  -6  -9  -4  244.83   30.31
  -6  -9   4  260.97   29.54
   6  -9   4  252.97   32.88
   6  -9  -5   56.06   13.80
  -6  -9  -5   65.41   15.76
  -6  -9   5   58.42   12.98
  -6  -9   5   69.08   15.69
   6  -9   5   63.61   16.66
  -6  -9   6  115.01   17.85
   6  -9  -6  116.31   20.07
  -6   9  -6  118.01   14.32
  -6  -9   6  139.40   22.60
   6  -9   6  112.30   22.98
   6  -9  -7   50.23   13.45
  -6  -9   7   46.55   11.46
  -6  -9   7   69.23   16.10
  -6   9  -7   57.67    9.51
  -6  -9   8   31.26    9.33
   6  -9  -8   29.29   10.20
  -6   9  -8   28.17    4.72
  -6  -9   8   56.61   15.77
  -6  -9   9   10.45    6.22
  -6  -9   9    6.50    4.73
   6  -9  -9    5.75    4.56
   6  -9 -10   50.22   13.76
  -6  -9  10   58.58   15.20
  -6  -9  10   50.26   12.33
   6  -9 -11   26.45   10.32
  -6  -9  11   40.95   13.76
  -6  -9  11   25.55    8.66
   6  -9 -12   77.43   17.33
  -6  -9  12   60.05   15.81
  -6  -9  12   70.07   14.88
  -6  -9  13    6.18    6.14
   6  -9 -13   18.62    8.42
  -6  -9  14   18.56    9.42
   6  -9 -14   22.77    9.57
  -6  -9  15   -8.07    7.16
   6  -9 -15    3.37    4.22
   6  -9 -16    2.57    3.57
   6   9  16   -9.29   13.29
  -6  -9  16   -1.10    3.91
   6   9  17   -3.48    9.82
   6  -9 -17    8.45    6.78
  -6  -9  17   -8.58    6.61
   6   9  18   -3.61    8.09
  -6  -9  18  -11.14    7.64
  -6  -9  19   -3.79    6.09
   6   9  19    1.35    3.51
   6   9  20    1.13    3.82
   6   9  21    2.34    4.76
  -7  -9   0    1.41    2.58
   7  -9   0    4.27    4.40
  -7  -9  -1  181.27   24.92
  -7  -9   1  186.75   24.70
   7  -9  -1  182.40   26.87
   7  -9   1  180.82   27.42
  -7  -9  -2    3.98    4.33
  -7  -9   2    5.46    4.77
  -7  -9   2    1.82    3.00
   7  -9   2    2.06    3.07
   7  -9  -2    6.79    6.20
  -7  -9   3  332.60   31.46
  -7  -9  -3  332.15   34.74
  -7  -9   3  331.18   35.19
   7  -9   3  322.38   37.88
   7  -9  -3  342.28   36.25
  -7  -9   4   78.36   15.13
  -7  -9   4   79.78   17.17
   7  -9   4   74.81   18.28
   7  -9  -4   82.84   17.47
   7  -9  -5  278.09   31.82
  -7  -9   5  278.71   27.49
  -7  -9   5  314.68   33.85
   7  -9   5  268.92   35.50
  -7  -9   6   43.58   13.81
   7  -9  -6   18.37    8.37
   7  -9   6   18.64    9.57
  -7  -9   6   17.99    7.23
   7  -9  -7   74.54   16.45
  -7  -9   7   72.18   14.03
  -7   9  -7   89.88   11.22
  -7  -9   7   89.63   18.33
  -7   9  -8   -2.90    2.40
   7  -9  -8    1.25    1.15
  -7  -9   8    0.39    1.59
  -7  -9   9    6.96    5.90
   7  -9  -9   -1.07    2.91
  -7  -9   9    2.81    2.11
  -7  -9  10   11.54    5.91
   7  -9 -10    5.22    3.51
  -7  -9  10    4.33    2.37
   7  -9 -11   52.74   14.03
  -7  -9  11   54.37   15.12
  -7  -9  11   62.83   13.39
  -7  -9  12    5.15    2.27
  -7  -9  12   15.74    6.94
   7  -9 -12   13.26    7.40
   7  -9 -13   98.61   19.69
  -7  -9  13   93.53   19.85
  -7  -9  13  109.61   18.18
  -7  -9  14    3.21    4.81
   7  -9 -14   22.11    9.41
   7   9  15   -0.71    8.84
  -7  -9  15   -1.87    4.77
   7  -9 -15    9.12    6.30
   7   9  16   -5.99   10.00
  -7  -9  16  -13.00    8.35
   7  -9 -16   -0.91    2.78
   7   9  17   -7.17   12.31
  -7  -9  17   -7.90    7.45
  -7  -9  18  -15.32   10.44
   7   9  18   -0.83    6.59
  -7  -9  19  -10.21    9.58
   7   9  19   -0.55    1.58
   7   9  20   -1.29    1.24
   7   9  21   17.57   12.73
  -8  -9   0    5.36    4.96
   8  -9   0    5.94    5.27
  -8  -9  -1   39.22   11.83
  -8  -9   1   40.93   11.59
  -8  -9   1   34.88   12.32
   8  -9  -1   37.41   12.58
   8  -9   1   38.39   12.75
  -8  -9  -2   46.02   13.09
  -8  -9   2   48.36   12.24
  -8  -9   2   41.33   13.17
   8  -9   2   41.97   13.93
   8  -9  -2   44.43   13.38
  -8  -9   3   54.58   13.02
  -8  -9   3   57.46   15.15
   8  -9  -3   59.36   15.47
   8  -9   3   52.41   15.50
  -8  -9   4   62.15   13.28
  -8  -9   4   76.66   18.81
   8  -9   4   61.32   16.93
   8  -9  -4   65.75   16.20
  -8  -9   5    4.99    3.76
  -8  -9   5   13.97   10.26
   8  -9  -5    5.96    5.59
  -8  -9   6   12.55    5.83
  -8  -9   6   24.74   11.44
   8  -9  -6   16.37    8.31
  -8  -9   7   11.94    7.88
  -8   9  -7   15.52    4.86
  -8  -9   7    6.11    3.71
   8  -9  -7    4.71    2.83
  -8  -9   8    6.64    7.02
  -8  -9   8    0.44    0.41
   8  -9  -8    0.37    2.94
  -8  -9   9   22.76    7.67
  -8  -9   9   25.80   10.06
   8  -9  -9   17.26    7.13
  -8  -9  10    7.75    4.66
  -8  -9  10    7.27    4.54
   8  -9 -10    4.88    4.67
  -8  -9  11   -5.54    7.48
   8  -9 -11   -0.22    1.73
  -8  -9  11    1.79    2.39
  -8  -9  12   17.88    7.94
  -8  -9  12   20.90    7.88
   8  -9 -12   20.35    8.54
  -8  -9  13   -8.33    8.80
   8  -9 -13    1.98    2.04
   8   9  14   -6.28   10.65
  -8  -9  14  -14.40    8.80
   8  -9 -14    1.86    2.32
   8   9  15    6.02    3.59
  -8  -9  15   -5.18    7.75
   8  -9 -15   10.91    6.13
   8   9  16   -1.68    6.74
   8  -9 -16    0.71    2.31
  -8  -9  16  -11.51    8.13
  -8  -9  17  -15.54    9.60
   8   9  17   -2.28    9.26
  -8  -9  18  -14.19   10.87
   8   9  18   -1.13    4.37
  -8  -9  19  -11.21    9.32
   8   9  19   -0.81    5.97
   8   9  20    0.80    0.85
   8   9  21    9.17    9.90
  -9  -9   0   17.86    7.93
  -9  -9   0   19.14    9.12
   9  -9   0   14.90    8.15
  -9  -9  -1    9.06    6.83
  -9  -9   1   12.13    6.12
  -9  -9   1   14.92    9.02
   9  -9  -1    9.42    6.44
   9  -9   1   10.46    7.88
  -9  -9   2    1.95    1.90
  -9  -9   2    6.20    5.82
   9  -9   2    2.84    4.03
   9  -9  -2   -0.35    1.58
  -9  -9   3    1.16    1.96
   9  -9  -3   -1.24    2.78
   9  -9   3   -0.25    3.19
  -9  -9   4    1.59    1.43
   9  -9  -4    1.35    2.55
  -9  -9   5   10.38    4.81
   9  -9  -5   10.23    7.15
  -9  -9   5   23.96   11.06
  -9  -9   6    1.17    2.07
   9  -9  -6    0.20    1.83
  -9  -9   6    8.16    7.82
   9   9  -6    2.96    3.73
  -9  -9   7    2.32    2.95
   9  -9  -7    1.48    3.25
  -9  -9   8   25.31    8.34
  -9  -9   8   31.94   12.91
   9  -9  -8   24.15   10.19
  -9  -9   9    2.76    4.16
  -9  -9   9    4.46    3.29
   9  -9  -9    7.34    5.93
  -9  -9  10   11.72    5.65
  -9  -9  10   15.32    6.39
   9  -9 -10   14.61    7.71
  -9  -9  11   -5.83    9.29
  -9  -9  11    0.69    1.39
   9  -9 -11   -1.92    3.87
  -9  -9  12   -9.40   10.97
   9  -9 -12    2.63    1.64
   9   9  13   -1.84    6.62
  -9  -9  13  -12.51   11.34
   9  -9 -13    6.48    4.82
   9   9  14   -3.69    7.63
   9  -9 -14    3.38    1.19
   9  -9 -15    1.01    2.25
   9   9  15   -5.05    7.26
  -9  -9  16  -16.03   12.47
   9   9  16   -2.72    6.68
  -9  -9  17  -24.64   12.47
   9   9  17    7.37    7.23
  -9  -9  18   -2.86    8.11
   9   9  18    5.96    5.57
  -9  -9  19  -31.74   14.58
   9   9  19   -0.70    5.08
  -9  -9  20  -12.44   12.62
   9   9  20    8.96    9.60
   9   9  21   14.65   13.10
 -10  -9   0  155.09   24.04
 -10  -9   0  149.80   25.78
  10  -9   0  148.98   26.29
 -10  -9   1    2.37    3.93
 -10  -9   1    3.43    3.64
  10  -9   1    3.81    5.75
  10  -9  -1    4.35    5.58
 -10  -9   2   68.22   15.43
 -10  -9   2   88.69   19.98
  10  -9  -2   80.02   18.75
  10  -9   2   72.57   19.21
 -10  -9   3    4.50    3.85
 -10  -9   3   19.06   11.60
  10  -9  -3    5.90    5.13
 -10  -9   4   15.13    6.27
  10  -9  -4   14.75    7.67
 -10  -9   4   29.80   13.31
 -10  -9   5   15.36    6.62
  10  -9  -5   14.50    7.79
  10   9  -5   15.15    6.69
 -10  -9   6   57.18   12.66
  10  -9  -6   53.63   15.68
 -10  -9   6   56.28   16.48
  10   9  -6   59.14   13.20
 -10  -9   7    9.37    5.04
 -10  -9   7   18.70    9.31
  10  -9  -7    6.86    5.73
 -10  -9   8  151.66   20.47
 -10  -9   8  123.82   25.44
  10  -9  -8  145.11   25.06
 -10  -9   9   -0.05    2.55
  10  -9  -9    0.10    1.46
 -10  -9   9   -0.34    0.70
 -10  -9  10   36.34    9.73
 -10  -9  10   28.15   11.64
  10  -9 -10   35.00   12.57
  10   9  11   -8.65    8.61
 -10  -9  11   -7.81    7.35
  10  -9 -11    1.05    3.10
  10   9  12   -3.80    8.04
 -10  -9  12  -10.61    7.78
  10  -9 -12    3.32    3.50
  10   9  13   -0.10    5.76
  10  -9 -13    7.44    5.36
  10  -9 -14    9.55    6.53
  10   9  14    5.04    3.35
 -10  -9  15  -11.55    8.51
  10   9  15    2.17    3.53
 -10  -9  16   -6.81    9.43
  10   9  16   12.56    9.12
 -10  -9  17  -30.22   14.63
  10   9  17    2.67    7.05
 -10  -9  18  -15.90   12.24
  10   9  18    5.08    7.29
 -10  -9  19  -18.48   13.01
  10   9  19   -0.89    5.29
 -10  -9  20  -26.15   15.29
  10   9  20   -0.04    7.02
  10   9  21    2.47    7.75
 -11  -9   0   88.13   18.55
 -11  -9   0   86.45   20.93
  11  -9   0   91.24   21.33
 -11  -9   1   70.71   16.48
 -11  -9  -1   70.09   18.45
 -11  -9   1   72.74   18.48
  11  -9  -1   75.28   19.21
 -11  -9   2   42.20   12.57
 -11  -9   2   44.38   15.51
  11  -9  -2   48.08   15.46
 -11  -9   3   26.21    9.29
 -11  -9   3   37.58   14.82
  11  -9  -3   29.61   11.99
 -11  -9   4    3.04    2.67
 -11  -9   4   16.02   11.50
  11  -9  -4    6.02    5.39
 -11  -9   5   46.25   11.68
 -11  -9   5   63.19   17.17
  11  -9  -5   52.14   15.43
 -11  -9   6   30.62    9.26
 -11  -9   6   30.92   12.55
  11  -9  -6   26.26   11.09
 -11  -9   7   12.26    6.11
 -11  -9   7    6.48    7.00
  11  -9  -7   10.39    6.82
 -11  -9   8   60.92   13.22
 -11  -9   8   66.82   17.60
  11  -9  -8   65.82   17.29
 -11  -9   9    8.65    5.82
  11  -9  -9   14.87    7.93
 -11  -9   9   11.29    4.84
  11   9  10   20.28    8.34
  11  -9 -10   25.54   10.84
 -11  -9  10   21.65    7.77
  11   9  11    3.94    2.16
  11  -9 -11   12.34    7.24
  11  -9 -12   12.31    7.87
 -11  -9  12    0.33    7.89
  11   9  12   10.78    6.50
  11  -9 -13   -0.71    1.51
  11   9  13    1.02    1.51
 -11  -9  14  -30.38   13.94
  11   9  14    1.17    0.94
 -11  -9  15  -17.93   12.67
  11   9  15   10.27    9.13
 -11  -9  16  -15.40   12.60
  11   9  16    3.35    4.85
 -11  -9  17  -25.51   13.37
  11   9  17   12.96   10.09
 -11  -9  18  -25.74   13.63
  11   9  18    4.59    8.70
 -11  -9  19  -32.30   15.51
  11   9  19    6.46    7.86
 -11  -9  20  -26.47   16.60
  11   9  20    8.21    8.96
 -11  -9  21  -34.08   16.98
  11   9  21   13.54   12.47
 -12  -9   0  303.86   38.82
 -12  -9   1    9.70    6.95
 -12  -9   1    9.36    8.69
 -12  -9  -1    9.62    8.19
 -12  -9   2  223.07   28.54
 -12  -9   2  243.34   34.05
  12  -9  -2  220.72   33.20
 -12  -9   3   11.51    6.58
  12  -9  -3    7.03    6.27
 -12  -9   4   98.53   17.98
 -12  -9   4  106.92   22.32
  12  -9  -4   91.54   20.85
 -12  -9   5    2.55    3.25
  12  -9  -5    1.73    1.84
 -12  -9   6  140.44   20.68
 -12  -9   6  144.48   27.22
  12  -9  -6  129.00   24.93
 -12  -9   7   17.80    7.29
  12   9   7   10.96    3.16
  12  -9  -7   15.35    9.16
 -12  -9   7   16.54   10.20
 -12  -9   8  182.85   22.82
  12  -9  -8  174.19   29.15
 -12  -9   8  151.04   30.15
  12   9   8  160.13   23.00
  12   9   9   -1.08    4.12
  12  -9  -9    2.37    2.76
 -12  -9   9    4.47    4.13
 -12  -9   9   -7.85    6.73
  12  -9 -10   60.81   16.77
 -12  -9  10   34.38   14.15
  12   9  10   55.95   14.75
  12  -9 -11    1.48    3.02
  12   9  11    2.99    1.83
  12  -9 -12   20.21    9.87
  12   9  12   17.08    9.44
 -12  -9  13   -6.92   10.07
  12   9  13   11.39    7.68
 -12  -9  14    2.01    2.91
  12   9  14   24.50   11.33
 -12  -9  15  -29.66   16.07
  12   9  15    9.52    8.25
 -12  -9  16  -18.91   11.63
  12   9  16   26.50   13.63
 -12  -9  17  -27.36   14.26
  12   9  17    3.12    5.39
 -12  -9  18  -24.46   13.69
  12   9  18   15.88   11.92
 -12  -9  19  -27.74   14.80
  12   9  19   -1.29    5.10
 -12  -9  20  -30.65   15.80
  12   9  20   12.31   11.17
 -13  -9   0   73.70   19.47
 -13  -9   1   11.03    7.19
 -13  -9   1    9.18   10.27
 -13  -9  -1    6.65    7.97
 -13  -9   2   25.19   10.50
 -13  -9   2   49.04   16.20
 -13  -9  -2   20.89   10.45
 -13  -9   3    4.48    4.49
 -13  -9   3   20.68   12.27
 -13  -9   4    9.83    5.32
  13   9   4    8.14    2.28
 -13  -9   4   18.32   11.75
  13  -9  -4    8.36    6.38
  13   9   5   -1.15    3.11
 -13  -9   5    2.61    2.80
  13  -9  -5    0.11    3.65
 -13  -9   6    3.31    3.61
  13  -9  -6    1.74    2.34
 -13  -9   6    8.77    8.39
  13   9   6    1.86    1.66
 -13  -9   7   13.74    6.66
  13  -9  -7    8.65    6.27
 -13  -9   7   10.70    9.03
  13   9   7    6.13    3.35
 -13  -9   8   22.04    8.19
  13  -9  -8   17.35    9.14
 -13  -9   8    8.72    6.25
  13   9   8   21.93    7.97
  13  -9  -9   11.29    7.95
 -13  -9   9    3.19    4.01
  13   9   9   10.35    5.51
  13  -9 -10   10.90    7.04
 -13  -9  10  -10.32    9.25
  13   9  10   12.81    7.25
  13  -9 -11    2.11    3.13
  13   9  11    3.76    5.40
 -13  -9  12  -19.00   11.29
  13   9  12   -0.85    0.86
 -13  -9  13   -8.06   12.80
  13   9  13    5.88    6.78
 -13  -9  14  -28.08   14.13
  13   9  14    3.41    5.98
 -13  -9  15  -13.34   13.72
 -13  -9  16   -5.81   12.43
 -13  -9  17  -34.71   16.47
 -13  -9  18  -30.03   15.55
 -14  -9   0   61.46   18.95
 -14  -9   1   24.73   12.41
 -14  -9  -1    9.49    8.66
 -14  -9   2   66.69   16.07
 -14  -9   2   76.69   21.43
 -14  -9  -2   61.37   17.67
 -14  -9   3    8.68    6.12
 -14  -9   3   40.19   17.16
 -14  -9   4   11.12    6.10
 -14  -9   4   22.42   12.65
 -14  -9   5    8.65    5.46
 -14  -9   5    7.45    7.79
 -14  -9   6   12.66    6.61
 -14  -9   6   17.22   10.51
 -14  -9   7    4.10    2.47
 -14  -9   7    1.49    4.04
 -14  -9   8   19.07    9.36
  14  -9  -8   22.97   11.18
 -14  -9   9   -5.22    7.84
  14  -9  -9    2.60    3.08
 -14  -9  10   -6.11    7.24
  14  -9 -10    4.47    4.70
 -14  -9  11   -8.11   10.34
  14  -9 -11    3.57    4.92
 -14  -9  12  -17.74   11.19
 -14  -9  13  -21.37   12.44
 -14  -9  14  -34.90   16.16
 -14  -9  15   -8.53   11.76
 -14  -9  16  -29.20   15.27
 -14  -9  17  -35.86   17.17
 -14  -9  18  -21.34   13.45
 -15  -9   0   14.34   10.50
 -15  -9   1   27.30   14.73
 -15  -9  -1    4.72    7.74
 -15  -9   2    0.24    3.51
 -15  -9  -2    4.23    3.63
 -15  -9   3   10.38    6.57
 -15  -9   3   11.83    9.79
 -15  -9   4   17.01    8.00
 -15  -9   4   34.08   15.60
 -15  -9   5   -0.50    1.66
 -15  -9   5   14.28   10.76
 -15  -9   6    0.12    2.79
 -15  -9   6    8.18    8.44
 -15  -9   7   10.06    8.47
 -15  -9   8    0.69    4.84
 -15  -9   9   -3.51    9.02
 -15  -9  10  -13.25    9.29
 -15  -9  11  -10.20   11.70
 -15  -9  12   -7.99    9.57
 -15  -9  13  -10.09   12.35
 -15  -9  14  -28.41   14.97
 -15  -9  15  -12.02   12.14
 -15  -9  16  -27.27   15.09
 -16  -9   0   54.66   17.70
 -16  -9  -1    4.60    7.17
 -16  -9   1   20.64   12.07
 -16  -9   2   61.33   19.66
 -16  -9  -2   29.38   14.32
 -16  -9   3    1.32    3.54
 -16  -9   3   10.95   10.04
 -16  -9   4   31.79   11.09
 -16  -9   4   31.85   16.00
 -16  -9   5    9.65    6.23
 -16  -9   5   12.70   10.11
 -16  -9   6   61.35   20.58
 -16  -9   7    9.62    9.26
 -16  -9   8    1.28    2.91
 -16  -9   9   -0.50    6.31
 -16  -9  10   -5.56    8.44
 -16  -9  11   -6.69    5.09
 -16  -9  12    0.16    2.95
 -16  -9  13  -14.60   12.23
 -16  -9  14  -28.69   15.45
 -16  -9  15  -19.31   15.03
 -17  -9   0   17.10   11.71
 -17  -9  -1    4.73    5.13
 -17  -9   1   30.10   15.56
 -17  -9   2   24.93   13.80
 -17  -9  -2    9.39    8.63
 -17  -9   3    4.03    5.96
 -17  -9  -3    4.57    4.66
 -17  -9   4   32.71   11.88
 -17  -9   4   35.23   16.09
 -17  -9   5   10.17   11.12
 -17  -9   6   21.74   12.78
 -17  -9   7    0.14    3.24
 -17  -9   8   -5.03    5.67
 -17  -9   9   -0.71    5.44
 -17  -9  10   -3.59    4.15
 -17  -9  11   -7.22    9.55
 -17  -9  12  -26.09   14.61
 -17  -9  13   -8.05    9.40
 -18  -9   0  124.07   28.16
 -18  -9  -1    2.87    8.39
 -18  -9   1   16.82   12.37
 -18  -9  -2   92.54   24.73
 -18  -9   2  101.95   25.52
 -18  -9   3    7.14    6.75
 -18  -9   3   22.45   14.13
 -18  -9  -3   12.66   10.47
 -18  -9   4  104.94   27.63
 -18  -9   5   20.87   13.52
 -18  -9   6   66.93   23.30
 -18  -9   7    1.60    3.26
 -18  -9   8   32.64   17.19
 -18  -9   9   -3.82    6.60
 -18  -9  10   14.79   13.09
 -18  -9  11   -1.96    6.47
 -19  -9   0   10.40   11.56
 -19  -9  -1   12.57   11.82
 -19  -9   1   40.68   17.09
 -19  -9   2   58.41   19.63
 -19  -9  -2   28.88   15.60
 -19  -9   3   35.16   18.05
 -19  -9  -3   19.41   12.92
 -19  -9   4   36.02   16.68
 -19  -9   5   19.67   14.89
 -19  -9   6    7.95    7.82
 -19  -9   7   12.85   11.22
 -19  -9   8    1.57    6.79
 -19  -9   9   -1.14    6.51
 -20  -9   0    9.22    8.84
 -20  -9  -1    4.56    8.99
 -20  -9   1   35.59   16.14
 -20  -9   2   28.11   15.61
 -20  -9  -2   11.63    8.10
 -20  -9   3   21.44   13.53
 -20  -9  -3    3.02    2.76
 -20  -9   4   19.49   12.62
 -20  -9   5   21.24   13.55
 -20  -9   6   24.97   15.67
 -20  -9   7   11.55   10.84
 -21  -9   0   17.17   11.57
 -21  -9  -1    0.51    5.38
 -21  -9   1   22.25   15.62
 -21  -9   2   35.30   17.27
 -21  -9  -2   17.73   12.38
 -21  -9   3   27.33   15.35
 -21  -9  -3    4.88    7.24
 -21  -9   4   22.46   15.31
 -22  -9   0   14.62    9.71
 -22  -9  -1    7.20   10.09
 -22  -9  -2   22.34   14.39
 -22  -9  -3    1.59    5.31
   0 -10   0 1528.39   72.18
   0 -10  -1    1.28    3.60
   0 -10   1   -0.12    0.11
   0 -10  -2  850.97   54.24
   0 -10   2  842.83   53.87
   0 -10  -3    1.60    3.68
   0 -10   3   -1.64    3.23
   0 -10  -4  220.27   27.61
   0 -10   4  210.06   27.65
   0 -10  -5   -1.89    4.07
   0 -10   5   -0.24    1.24
   0 -10  -6  232.31   29.16
   0 -10   6  222.46   29.69
   0 -10  -7    0.80    3.11
   0 -10   7    1.73    2.85
   0 -10  -8  451.18   41.63
   0 -10   8  452.47   42.70
   0 -10  -9    1.38    4.48
   0 -10   9    1.68    4.27
   0 -10 -10  315.13   36.29
   0 -10  10  323.61   37.64
   0 -10 -11    1.76    4.56
   0 -10  11   -2.51    3.30
   0 -10 -12   43.66   13.89
   0 -10 -13    2.67    3.64
   0 -10 -14   33.72   12.26
   0 -10 -15   -0.21    1.99
   0 -10 -16   22.07   10.97
   0 -10 -17    3.50    5.31
   0 -10 -18   49.12   16.36
   0 -10 -19    3.13    4.24
   0 -10 -20    2.97    4.68
   0 -10 -21   -0.06    1.77
   1 -10   0   45.39   12.57
  -1 -10   0   42.78   12.31
  -1 -10  -1    6.56    5.59
  -1 -10   1    4.42    4.37
   1 -10   1    1.50    2.06
   1 -10  -1    6.46    5.36
  -1 -10  -2    7.33    5.83
   1 -10   2    1.38    2.35
  -1 -10   2    5.59    5.05
   1 -10  -2   11.24    6.78
   1 -10  -3   -0.13    3.36
  -1 -10  -3    0.69    1.73
  -1 -10   3    0.82    1.85
   1 -10   3   -0.57    3.48
   1 -10  -4    3.37    3.89
  -1 -10  -4   -0.62    3.41
  -1 -10   4    3.34    2.55
   1 -10   4   -0.37    4.67
  -1 -10  -5    0.42    2.26
   1 -10  -5    0.63    1.48
  -1 -10   5   -1.15    3.95
   1 -10   5   -0.37    0.86
  -1 -10  -6    7.57    5.93
   1 -10  -6    6.26    3.81
  -1 -10   6    5.90    4.59
   1 -10   6   11.15    7.29
   1 -10  -7   -0.73    3.39
  -1 -10  -7    3.39    3.45
   1 -10   7    1.17    3.11
  -1 -10   7   -0.27    1.21
   1 -10  -8    2.59    3.52
  -1 -10  -8    3.76    3.88
  -1 -10   8    2.94    3.47
   1 -10   8    3.50    4.27
   1 -10  -9    4.35    4.96
  -1 -10  -9    7.29    6.29
  -1 -10   9    3.31    3.45
   1 -10   9    2.55    3.31
   1 -10 -10   17.76    8.60
  -1 -10 -10   18.04    8.86
  -1 -10  10   22.49   10.24
   1 -10  10   15.56    8.30
   1 -10 -11    1.38    3.21
  -1 -10 -11    0.96    2.04
   1 -10  11   -0.86    2.16
  -1 -10  11    0.51    2.40
   1 -10 -12   -0.76    3.02
  -1 -10 -12   -2.21    3.19
  -1 -10 -13    0.43    3.09
   1 -10 -13    0.37    3.05
  -1 -10 -14    2.81    3.79
   1 -10 -14    7.41    6.10
  -1 -10 -15    0.47    3.59
   1 -10 -15   -1.07    3.26
  -1 -10  15    1.01    1.42
  -1 -10 -16    5.19    7.41
   1 -10 -16    5.26    4.83
  -1 -10 -17    1.02    0.75
   1 -10 -17    0.37    0.46
  -1 -10 -18    2.66    4.04
   1 -10 -18    1.77    4.55
  -1 -10 -19    2.00    4.13
   1 -10 -19    0.40    2.76
  -1 -10 -20    2.82    4.08
   1 -10 -20   -0.13    3.49
  -1 -10 -21   -2.00    4.35
   1  10  21   -6.31   13.23
  -2 -10   0  353.96   34.24
   2 -10   0  334.85   34.26
  -2 -10  -1   17.44    7.25
  -2 -10   1   16.67    7.73
   2 -10   1   14.63    6.00
   2 -10  -1   15.85    7.49
  -2 -10  -2  165.65   23.90
   2 -10  -2  160.89   24.42
   2 -10   2  157.53   24.39
  -2 -10   2  171.64   23.88
  -2 -10  -3    4.61    2.73
  -2 -10   3    7.09    4.96
   2 -10   3    3.55    1.64
   2 -10  -3    6.44    4.30
  -2 -10  -4   15.77    7.59
   2 -10  -4   14.88    6.98
  -2 -10   4   14.33    6.13
   2 -10   4   15.13    7.25
   2 -10  -5    1.65    1.42
  -2 -10  -5    5.01    4.38
  -2 -10   5    2.36    0.86
   2 -10   5    2.14    1.34
   2 -10  -6   39.13   11.99
  -2 -10   6   32.73   10.44
  -2 -10  -6   37.00   12.23
   2 -10   6   35.39   12.00
   2 -10  -7    5.79    3.15
  -2 -10  -7    8.90    6.44
   2 -10   7    3.59    4.32
  -2 -10   7    4.12    1.71
   2 -10  -8  148.24   23.50
  -2 -10  -8  153.23   25.19
  -2  10  -8  143.56   18.29
   2 -10   8  154.63   26.00
  -2 -10   8  154.14   23.77
  -2 -10  -9    3.22    3.88
   2 -10  -9    1.13    1.10
   2 -10   9    4.12    4.21
  -2 -10   9    1.97    3.28
   2 -10 -10  103.00   20.40
  -2 -10 -10  102.63   21.16
  -2  10 -10   89.44   15.33
  -2 -10  10  111.10   20.91
   2 -10  10  103.24   22.22
  -2 -10 -11    1.69    0.97
   2 -10 -11    8.71    6.44
  -2 -10  11    4.60    2.20
  -2 -10  11    5.89    5.61
  -2 -10 -12    3.45    3.46
   2 -10 -12    1.06    0.89
  -2 -10  12    2.04    4.13
  -2 -10  12    3.60    3.28
   2 -10 -13    1.18    1.80
  -2 -10 -13    2.99    4.93
  -2 -10  13    1.89    3.58
   2 -10 -14   -0.93    4.19
  -2 -10 -14    3.17    5.74
  -2 -10  14    4.43    3.82
   2 -10 -15   -1.89    3.44
  -2 -10 -15    4.34    5.96
  -2 -10  15    0.42    3.14
   2 -10 -16   49.21   14.94
  -2 -10 -16   53.24   16.67
  -2 -10  16   49.91   12.88
   2 -10 -17   -1.29    2.65
  -2 -10 -17   -1.31    1.60
   2 -10 -18    4.01    4.27
  -2 -10 -18    5.33    6.05
   2 -10 -19    0.41    0.45
  -2 -10 -19    0.14    4.03
   2 -10 -20   -0.52    3.35
  -2 -10 -20    0.72    2.21
   2  10  20  -11.62   14.79
  -2 -10 -21    0.08    2.95
   2  10  21   -4.20    9.20
  -2 -10 -22    4.27    6.06
  -3 -10   0   11.22    5.39
   3 -10   0   12.55    5.32
  -3 -10  -1    1.18    1.75
  -3 -10   1    4.31    3.74
   3 -10  -1    2.62    1.79
   3 -10   1   -1.62    5.27
  -3 -10  -2   -2.61    4.62
  -3 -10   2    2.06    2.80
   3 -10  -2    1.44    1.16
   3 -10   2   -1.92    4.57
  -3 -10  -3    4.48    3.31
   3 -10   3    3.62    1.33
  -3 -10   3    5.93    4.27
   3 -10  -3    5.70    4.35
  -3 -10  -4    4.66    3.03
   3 -10   4    2.54    0.74
   3 -10  -4    3.43    3.34
  -3 -10   4    1.70    1.96
  -3 -10  -5   13.98    7.18
  -3 -10   5   13.72    6.07
   3 -10   5   16.40    8.25
   3 -10  -5   13.02    6.80
  -3 -10  -6   13.24    6.85
   3 -10  -6   10.77    5.82
  -3  10  -6   10.01    4.77
  -3 -10   6   13.47    6.14
   3 -10   6   12.21    7.03
  -3 -10  -7    2.67    4.29
   3 -10  -7    0.73    2.30
  -3  10  -7   -7.52    6.37
   3 -10   7    0.97    1.92
  -3 -10   7   -2.83    4.31
   3 -10  -8    3.50    4.79
  -3 -10  -8    3.35    2.72
   3 -10   8    2.01    1.39
  -3 -10   8    5.50    4.25
  -3 -10  -9   -1.04    3.38
   3 -10  -9    5.11    5.73
  -3 -10   9    2.60    3.87
  -3 -10   9   -0.45    2.43
   3 -10   9    0.24    3.35
   3 -10 -10   45.70   13.55
  -3 -10 -10   40.92   13.18
  -3 -10  10   37.73   11.23
  -3 -10  10   42.21   12.64
   3 -10 -11    1.38    2.61
  -3 -10 -11    3.43    2.54
  -3 -10  11    4.44    5.34
  -3 -10  11    5.22    5.05
  -3 -10 -12    1.28    4.62
   3 -10 -12    2.53    3.55
  -3 -10  12    4.61    5.18
  -3 -10  12    0.74    0.78
  -3 -10 -13   11.46    8.16
   3 -10 -13    7.03    5.08
  -3 -10  13   12.83    7.92
  -3 -10 -14   15.40    9.09
   3 -10 -14    8.83    5.82
  -3 -10  14   25.46   10.12
  -3 -10 -15    2.35    3.50
   3 -10 -15   -1.28    4.80
  -3 -10 -16    1.25    2.76
   3 -10 -16    0.46    3.18
  -3 -10 -17   -0.99    4.21
   3 -10 -17   -1.56    3.61
  -3 -10 -18   -0.06    1.76
   3 -10 -18   -0.15    0.67
  -3 -10 -19    0.44    3.17
   3 -10 -19   -3.23    5.05
   3  10  19  -12.19   14.90
  -3 -10 -20    4.73    7.36
   3  10  20   -9.65   13.09
  -3 -10 -21    6.10    7.49
   3  10  21   -9.53   11.79
  -3 -10 -22    2.61    5.00
  -4 -10   0   -2.01    3.53
   4 -10   0   -0.58    2.78
  -4 -10   1   -1.34    4.46
  -4 -10  -1    0.45    2.46
   4 -10   1   -0.17    2.87
   4 -10  -1    0.98    1.54
  -4 -10   2  177.62   24.03
   4 -10  -2  173.34   25.49
  -4 -10  -2  174.95   24.92
   4 -10   2  183.50   27.22
  -4 -10   3    6.24    4.66
  -4 -10  -3    4.98    3.89
   4 -10  -3    6.26    4.78
   4 -10   3    4.74    3.04
  -4 -10   4  292.11   30.78
   4 -10  -4  288.10   32.86
  -4 -10  -4  283.85   32.76
   4 -10   4  295.41   35.61
  -4 -10  -5    8.71    6.92
  -4  10  -5   13.21    6.75
  -4 -10   5    7.54    4.39
   4 -10   5    8.90    6.02
   4 -10  -5    8.22    5.19
   4 -10  -6   59.59   15.32
  -4 -10   6   58.68   13.58
  -4 -10  -6   63.59   15.97
  -4  10  -6   68.83   12.97
   4 -10   6   59.77   16.70
  -4 -10  -7   -0.68    1.33
  -4 -10   7   -0.68    4.42
  -4  10  -7   -1.89    1.84
  -4 -10   7    0.36    1.90
   4 -10  -7   -1.90    3.24
   4 -10   7    1.55    1.85
  -4 -10  -8    3.14    3.88
  -4 -10   8    3.46    3.83
   4 -10  -8    2.67    4.22
   4 -10   8    0.56    2.73
  -4 -10   8    1.45    1.00
  -4 -10  -9    2.99    3.83
   4 -10  -9    5.60    5.45
  -4 -10   9    9.74    5.91
  -4 -10   9    1.52    0.79
   4 -10   9    2.46    1.10
  -4 -10 -10    7.16    5.94
   4 -10 -10   11.04    7.60
  -4 -10  10   10.28    6.48
  -4 -10  10    8.30    5.30
   4 -10 -11    8.68    6.33
  -4 -10 -11   14.89    9.24
  -4 -10  11   13.25    7.93
  -4 -10  11    8.67    6.17
   4 -10 -12   66.50   16.84
  -4 -10 -12   72.06   19.14
  -4 -10  12   72.72   16.13
  -4 -10  12   56.95   14.79
  -4 -10 -13    8.99    8.09
   4 -10 -13    5.07    5.28
  -4 -10  13   16.58    8.66
  -4 -10 -14   18.34   10.04
   4 -10 -14   15.71    7.76
  -4 -10  14   36.87   11.74
  -4 -10 -15    4.45    5.61
   4 -10 -15    1.00    0.41
  -4 -10 -16    4.05    5.30
   4 -10 -16    2.37    2.60
  -4 -10  16   13.01    8.33
  -4 -10 -17    3.88    4.79
   4 -10 -17   -0.72    0.34
  -4 -10 -18   -0.51    3.13
   4 -10 -18    0.57    2.12
  -4 -10 -19    3.46    5.71
   4  10  19   -8.50   13.67
  -4 -10 -20    7.44    8.09
   4  10  20   -2.54   10.55
  -4 -10 -21   -2.14    3.13
   4  10  21   -9.00   13.35
  -4 -10 -22    6.85    7.34
  -4 -10 -23    3.56    6.86
  -5 -10   0   -0.70    2.04
   5 -10   0    2.17    2.37
  -5 -10   1   61.62   14.20
  -5 -10  -1   56.20   14.14
   5 -10  -1   58.31   14.73
   5 -10   1   61.33   16.01
  -5 -10   2   25.51    9.35
  -5 -10  -2   20.52    8.70
   5 -10   2   19.57    8.92
   5 -10  -2   18.57    8.48
   5 -10  -3   99.14   19.49
  -5 -10   3  101.30   18.44
  -5 -10  -3  104.27   19.89
   5 -10   3  100.87   20.72
  -5 -10   4    3.08    3.94
  -5 -10  -4    3.46    4.29
   5 -10  -4    2.20    2.58
   5 -10   4    4.40    5.27
   5 -10  -5   76.13   17.01
  -5 -10   5   84.69   16.49
  -5 -10  -5   81.08   17.66
  -5  10  -5   78.23   13.44
   5 -10   5   68.87   18.09
  -5 -10  -6    6.19    4.92
  -5  10  -6   23.20    8.14
  -5 -10   6   10.61    7.06
  -5 -10   6    7.59    4.66
   5 -10   6    7.46    5.94
   5 -10  -6    7.79    5.20
  -5 -10   7   30.65    9.84
  -5 -10  -7   29.81   11.38
  -5  10  -7   32.94    8.32
  -5 -10   7   32.72   11.52
   5 -10   7   31.84   12.52
   5 -10  -7   27.17    9.89
  -5 -10  -8    6.34    5.40
  -5 -10   8    3.49    4.36
  -5  10  -8   -9.38    6.14
   5 -10   8   -1.48    4.18
  -5 -10   8    1.35    2.01
   5 -10  -8    1.59    2.83
  -5 -10  -9   15.77    8.54
  -5 -10   9   18.90    9.85
   5 -10  -9   14.83    7.90
  -5 -10   9   14.33    6.51
  -5 -10 -10    4.68    5.64
  -5 -10  10   13.16    8.43
  -5 -10  10    5.55    4.17
   5 -10 -10    6.87    5.70
  -5 -10 -11   23.79   11.21
   5 -10 -11   26.17   11.02
  -5 -10  11   34.61   11.65
  -5 -10  11   21.89    8.73
   5 -10 -12    0.29    2.26
  -5 -10  12    1.71    3.73
   5 -10 -13   32.25   11.78
  -5 -10  13   36.30   12.29
  -5 -10  13   29.06   10.68
   5 -10 -14    0.14    1.04
  -5 -10  14   18.59   10.06
   5 -10 -15    8.24    6.38
  -5 -10  15   22.96   10.59
   5 -10 -16    3.94    4.92
  -5 -10  16   11.83    8.36
   5 -10 -17    1.78    4.43
  -5 -10  17   12.25    8.41
   5 -10 -18   -0.17    2.39
   5  10  18   -9.23   11.49
   5  10  19   -4.33    8.19
  -5 -10 -20    6.50    8.13
   5  10  20   -2.86    7.84
  -5 -10 -21    7.27    9.52
   5  10  21   -4.65    8.32
  -5 -10 -22    4.89    7.44
  -5 -10 -23    1.27    3.10
  -6 -10   0   81.50   17.39
   6 -10   0   79.98   18.64
  -6 -10  -1    8.17    5.23
   6 -10   1    5.18    4.71
   6 -10  -1    5.57    5.05
  -6 -10   2  149.34   22.25
  -6 -10  -2  146.43   23.65
   6 -10   2  140.57   25.13
   6 -10  -2  158.53   25.07
  -6 -10   3   -1.13    1.86
  -6 -10  -3    0.62    4.06
   6 -10   3    2.42    4.00
   6 -10  -3    0.93    2.26
  -6 -10   4  279.27   30.09
   6 -10  -4  286.08   33.33
  -6 -10  -4  275.59   33.40
   6 -10   4  267.71   35.92
  -6 -10  -5    1.68    3.90
  -6 -10   5    2.05    3.28
   6 -10  -5    0.83    0.75
  -6 -10   5    1.09    3.44
   6 -10   5    1.58    3.16
  -6 -10   6   87.81   16.93
   6 -10  -6   94.86   19.47
  -6 -10  -6   99.74   20.55
  -6 -10   6   93.80   18.92
  -6  10  -6   91.32   14.07
   6 -10   6  103.70   22.42
  -6 -10  -7    1.19    3.07
  -6 -10   7    3.77    5.37
  -6  10  -7    7.46    4.59
  -6 -10   7    0.74    1.69
   6 -10  -7    0.05    1.16
   6 -10   7   -0.16    2.02
  -6 -10  -8   32.11   12.00
  -6 -10   8   30.06    9.83
   6 -10  -8   27.49   10.51
  -6 -10   8   35.72   12.00
  -6 -10   9   -0.23    0.54
   6 -10  -9    0.53    0.58
  -6 -10  10   39.79   12.98
   6 -10 -10   22.31    9.21
  -6 -10  10   25.59    9.71
  -6 -10  11    5.79    6.08
  -6 -10  11    1.28    2.44
   6 -10 -11   -0.43    0.63
   6 -10 -12  144.05   24.71
  -6 -10  12  147.79   25.09
  -6 -10  12  147.43   23.19
   6 -10 -13    2.18    4.39
  -6 -10  13    0.42    2.35
  -6 -10  14   13.40    8.46
   6 -10 -14   16.78    9.00
  -6 -10  15   16.95   10.26
   6 -10 -15    0.21    1.58
  -6 -10  16   10.56    7.83
   6 -10 -16    1.70    3.44
   6  10  17   -6.17   10.67
  -6 -10  17   10.77    9.40
   6 -10 -17   -0.83    2.14
   6  10  18   -7.82   13.31
  -6 -10  18    8.62    7.86
   6  10  19   -8.56   11.32
   6  10  20    9.14    7.89
   6  10  21    1.97    4.95
  -7 -10   0   27.50    9.96
   7 -10   0   26.72   10.63
  -7 -10  -1   34.29   11.52
  -7 -10   1   37.60   11.31
   7 -10   1   34.23   12.96
   7 -10  -1   31.28   11.61
  -7 -10   2    0.97    1.39
  -7 -10  -2    5.36    4.80
   7 -10   2    4.89    5.56
   7 -10  -2    7.28    5.79
  -7 -10   3   91.36   17.10
  -7 -10  -3  102.41   20.10
   7 -10   3   95.32   21.29
   7 -10  -3   92.89   19.69
  -7 -10  -4    6.41    5.18
  -7 -10   4    5.76    5.06
  -7 -10   4   11.96    7.48
   7 -10  -4    3.81    3.87
   7 -10   4    4.82    4.20
   7 -10  -5   69.58   16.64
  -7 -10   5   69.78   14.83
  -7 -10  -5   68.14   17.20
  -7 -10   5   79.04   17.94
   7 -10   5   68.21   18.31
  -7 -10  -6    0.33    2.80
  -7 -10   6    7.25    6.46
  -7  10  -6    2.15    2.36
   7 -10  -6   -0.44    4.30
   7 -10   6   -1.16    4.44
  -7 -10   6    0.85    1.77
  -7 -10   7   30.76   11.91
  -7  10  -7   22.49    6.88
   7 -10  -7    6.75    4.65
  -7 -10   7    9.72    5.58
   7 -10  -8   -0.49    3.61
  -7 -10   8   -0.10    1.98
   7 -10  -9   -1.63    4.26
  -7 -10   9   -1.02    1.88
  -7 -10  10    1.77    3.13
   7 -10 -10    0.65    1.67
  -7 -10  11   28.55   12.05
  -7 -10  11   25.56    9.22
   7 -10 -11   22.35    9.50
  -7 -10  12   12.04    8.16
  -7 -10  12   11.53    6.62
   7 -10 -12   10.57    6.55
  -7 -10  13   40.13   14.50
   7 -10 -13   26.26   10.37
  -7 -10  13   31.50   10.51
  -7 -10  14   10.86    8.86
   7 -10 -14    1.10    1.68
  -7 -10  15   10.85    8.16
   7 -10 -15    3.91    4.78
  -7 -10  16   11.04    8.56
   7 -10 -16   -0.31    1.32
   7  10  17   -6.17   10.76
  -7 -10  17    4.93    5.04
   7  10  18   -4.65   10.04
  -7 -10  18   -0.59    2.39
   7  10  19   -3.74    8.41
   7  10  20    1.18    3.93
   7  10  21   -0.66    4.69
  -8 -10   0    0.27    1.43
   8 -10   0   -0.52    2.78
  -8 -10  -1    0.68    1.55
  -8 -10   1    1.01    1.64
   8 -10  -1   -0.06    2.67
   8 -10   1    1.14    0.68
  -8 -10   2   11.94    6.16
  -8 -10  -2   14.09    7.69
   8 -10   2    8.99    6.82
   8 -10  -2   11.36    6.47
  -8 -10  -3    4.21    4.50
  -8 -10   3   -2.66    4.52
  -8 -10   3    2.23    5.06
   8 -10  -3    0.26    1.19
   8 -10   3   -0.81    2.27
  -8 -10  -4   16.23    8.99
  -8 -10   4   15.70    6.46
  -8 -10   4   18.00    9.25
   8 -10   4   14.92    8.62
   8 -10  -4   16.86    8.63
  -8 -10  -5    0.24    2.54
  -8 -10   5    1.18    2.46
  -8 -10   5    3.44    6.63
   8 -10  -5    0.47    1.44
   8 -10   5    1.14    1.32
  -8 -10   6    4.80    5.23
   8 -10  -6   -0.15    2.68
  -8 -10   6    0.94    2.14
   8 -10  -7   -1.67    3.91
  -8 -10   7   -1.21    1.77
  -8 -10   8    9.33    7.70
  -8 -10   8   -2.05    3.45
   8 -10  -8   -2.17    4.89
  -8 -10   9    9.91    7.76
  -8 -10   9    0.74    0.83
   8 -10  -9    0.16    4.90
  -8 -10  10   52.14   16.21
  -8 -10  10   37.24   10.80
   8 -10 -10   34.38   11.72
  -8 -10  11    7.02    8.42
  -8 -10  11    3.71    3.46
   8 -10 -11    0.90    1.56
  -8 -10  12   11.49    9.13
  -8 -10  12    1.99    1.97
   8 -10 -12    3.10    4.49
  -8 -10  13    2.84    4.56
   8 -10 -13   -0.45    2.79
  -8 -10  14   11.19    9.06
   8 -10 -14    0.82    1.58
   8  10  15   -9.52   12.42
  -8 -10  15    3.40    5.69
   8 -10 -15    2.87    3.25
   8  10  16   -5.83   10.63
  -8 -10  16   11.38    8.70
   8  10  17   -6.03   10.64
  -8 -10  17   13.18   10.46
  -8 -10  18    1.56    2.66
   8  10  18   -1.81    4.17
  -8 -10  19   12.93    8.27
   8  10  19   -3.34    7.69
   8  10  20    4.40    6.79
   8  10  21   -1.86    6.19
  -9 -10   0   -0.99    0.88
   9 -10   0   -1.12    2.48
  -9 -10  -1   25.44   10.03
  -9 -10   1   23.71    9.32
   9 -10  -1   22.95   10.16
   9 -10   1   23.40   11.21
  -9 -10  -2    2.93    3.96
  -9 -10   2    0.84    2.08
  -9 -10   2   -5.80    5.88
   9 -10  -2   -0.64    3.09
   9 -10   2    1.29    3.45
  -9 -10  -3    3.20    4.55
  -9 -10   3   -2.02    4.15
  -9 -10   3    2.30    3.53
   9 -10   3   -0.13    1.41
   9 -10  -3   -0.85    3.73
  -9 -10   4    9.25    4.95
  -9 -10   4   17.32    9.23
   9 -10  -4    8.81    5.59
   9 -10   4   10.28    6.42
  -9 -10   5   -1.95    3.39
  -9 -10   5    6.81    7.62
   9 -10  -5    0.26    1.40
  -9 -10   6    0.81    1.76
  -9 -10   6    3.12    7.07
   9 -10  -6    0.28    1.98
  -9 -10   7   24.71   10.92
  -9 -10   7   18.19    7.25
   9 -10  -7   18.79    9.14
  -9 -10   8   13.83   11.02
   9 -10  -8    3.58    4.14
  -9 -10   8    2.05    1.29
  -9 -10   9   15.26   10.79
  -9 -10   9   13.83    6.43
   9 -10  -9   10.58    6.44
  -9 -10  10    9.07    8.47
  -9 -10  10   -3.04    4.82
   9 -10 -10   -1.94    5.22
  -9 -10  11   -0.33    0.79
   9 -10 -11   -1.78    4.68
  -9 -10  12    2.80    6.01
   9 -10 -12    0.22    1.78
  -9 -10  13    1.01    0.77
   9 -10 -13    4.51    4.66
   9  10  14   -4.45    9.28
  -9 -10  14    4.71    4.03
   9 -10 -14   -1.74    4.02
   9  10  15   -4.75    8.29
  -9 -10  15    9.35    8.64
   9 -10 -15    3.79    1.65
   9  10  16   -6.14    7.67
  -9 -10  16    5.12    7.18
  -9 -10  17   30.88   13.04
   9  10  17   12.85    6.70
  -9 -10  18   -2.05    3.64
   9  10  18   -1.59    8.15
  -9 -10  19    4.55    5.75
   9  10  19    5.50    4.26
   9  10  20   -2.11    3.76
 -10 -10   0   40.53   12.72
  10 -10   0   38.53   13.65
 -10 -10  -1   15.12    8.91
 -10 -10   1   15.43    8.07
 -10 -10   1   11.68    7.04
  10 -10   1   15.73    9.40
  10 -10  -1   12.12    8.25
 -10 -10  -2   19.30    9.92
 -10 -10   2   19.90    8.33
 -10 -10   2   21.66   10.92
  10 -10  -2   20.25   10.40
  10 -10   2   16.25    9.43
 -10 -10   3    3.99    2.59
 -10 -10   3    8.03    8.93
  10 -10  -3    8.25    5.85
  10 -10   3    4.61    4.60
 -10 -10   4   10.73    5.62
 -10 -10   4   16.99   10.79
  10 -10  -4   10.09    6.93
 -10 -10   5    0.20    3.19
  10 -10  -5    0.44    1.86
 -10 -10   6    5.94    4.27
 -10 -10   6   11.15    8.81
  10 -10  -6    5.40    4.71
 -10 -10   7    0.08    1.78
  10 -10  -7    1.29    3.80
 -10 -10   8   56.97   13.56
 -10 -10   8   72.31   20.57
  10 -10  -8   52.67   15.68
 -10 -10   9    0.15    1.36
  10 -10  -9    2.45    4.22
 -10 -10  10   11.20    9.90
 -10 -10  10    5.69    2.04
  10 -10 -10    9.15    6.77
 -10 -10  11    4.35    6.48
  10 -10 -11   -1.31    3.35
 -10 -10  12    7.50    7.30
  10 -10 -12   -0.93    2.35
  10  10  13   -3.87    8.56
 -10 -10  13    7.10    5.80
  10 -10 -13    1.50    2.83
  10  10  14    1.74    5.39
  10 -10 -14    4.76    3.64
 -10 -10  14    6.75    6.66
 -10 -10  15   -0.73    2.94
  10  10  15   -0.06    6.19
 -10 -10  16   -0.32    4.44
  10  10  16    1.96    3.40
 -10 -10  17   -1.06    3.50
  10  10  17    2.69    1.50
 -10 -10  18   -2.25    3.00
  10  10  18    6.85    8.65
 -10 -10  19    2.55    3.90
  10  10  19    1.22    3.42
 -10 -10  20   -0.93    3.43
  10  10  20    8.27    9.75
 -11 -10   0    9.15    6.86
  11 -10   0    9.82    8.57
 -11 -10  -1  178.57   27.85
 -11 -10   1  169.23   26.07
 -11 -10   1  146.22   26.98
  11 -10   1  169.71   30.38
  11 -10  -1  165.21   29.83
 -11 -10  -2    5.05    5.85
 -11 -10   2    1.17    2.73
 -11 -10   2    2.85    5.92
  11 -10  -2    5.39    6.00
 -11 -10   3   60.40   14.64
 -11 -10   3   56.96   17.92
  11 -10  -3   57.54   17.30
 -11 -10   4    0.82    1.33
  11 -10  -4    0.90    2.29
 -11 -10   5  102.93   18.56
 -11 -10   5  115.34   24.48
  11 -10  -5  102.58   23.22
 -11 -10   6    2.91    3.62
 -11 -10   6    8.80    7.65
  11 -10  -6   -0.80    2.77
 -11 -10   7   63.79   14.29
 -11 -10   7   59.50   17.54
  11 -10  -7   66.47   18.13
 -11 -10   8   17.02   11.32
  11 -10  -8    3.08    4.42
 -11 -10   8    2.86    4.35
 -11 -10   9   75.03   15.37
 -11 -10   9   84.60   22.39
  11 -10  -9   71.80   18.80
 -11 -10  10   10.41    7.20
  11 -10 -10    1.95    3.26
  11  10  11   24.79    8.95
 -11 -10  11   39.78   15.17
  11 -10 -11   32.57   13.24
  11  10  12   -2.76    5.12
 -11 -10  12   -1.75    2.30
  11 -10 -12    1.34    2.83
  11  10  13    9.55    5.55
  11 -10 -13   15.13    9.04
 -11 -10  13    5.04    5.91
 -11 -10  14   -2.19    5.10
  11  10  14   -0.53    5.65
 -11 -10  15    3.51    5.04
  11  10  15   12.02    7.23
 -11 -10  16    6.27    5.98
  11  10  16   -1.98    2.24
 -11 -10  17   -1.03    4.40
  11  10  17   17.36   11.49
 -11 -10  18   -5.00    8.52
  11  10  18    7.55   10.13
 -11 -10  19   -0.29    7.76
  11  10  19   12.96   10.61
 -11 -10  20   -0.65    1.03
  11  10  20    0.40    4.95
 -12 -10   0   59.28   16.59
 -12 -10   0   58.64   17.58
 -12 -10  -1    6.61    8.07
 -12 -10   1    7.50    6.77
 -12 -10   1    6.95    8.84
  12 -10  -1    8.29    7.80
 -12 -10   2   38.49   12.51
 -12 -10   2   47.77   16.78
  12 -10  -2   45.94   16.46
 -12 -10   3    3.39    3.66
 -12 -10   3   11.17    9.12
  12 -10  -3    5.02    5.38
 -12 -10   4    2.49    3.03
 -12 -10   4   14.34   10.65
  12 -10  -4    3.12    4.54
 -12 -10   5    3.07    3.18
  12 -10  -5    3.76    4.29
 -12 -10   6   45.81   12.45
 -12 -10   6   46.78   15.75
  12 -10  -6   39.99   14.94
 -12 -10   7    0.09    2.74
 -12 -10   7    9.26    7.64
  12 -10  -7    2.25    3.85
 -12 -10   8   32.32   15.58
 -12 -10   8   23.88    8.96
  12 -10  -8   25.94   11.80
  12  10   9   -3.79    7.14
 -12 -10   9    6.93    8.32
  12 -10  -9    0.25    3.22
 -12 -10   9    0.24    0.70
  12  10  10    2.82    1.66
 -12 -10  10    9.60    8.49
  12 -10 -10   10.73    8.05
  12  10  11    0.83    4.10
  12 -10 -11    4.91    5.15
 -12 -10  11    6.02    7.72
  12 -10 -12    3.41    4.51
 -12 -10  12   -1.31    4.97
  12  10  12    0.71    2.84
 -12 -10  13    6.01    7.18
  12  10  13   -4.01    5.79
 -12 -10  14  -16.14   10.53
  12  10  14    1.27    3.32
 -12 -10  15   -2.54    4.93
  12  10  15    2.06    3.28
 -12 -10  16   -1.20    5.81
  12  10  16    0.28    2.69
 -12 -10  17   -1.03    2.79
  12  10  17    6.22    8.16
 -12 -10  18   -7.94    7.81
 -12 -10  19   -1.50    5.61
 -12 -10  20   -3.38    7.94
 -13 -10   0    4.55    6.54
 -13 -10   0   -0.54    2.06
 -13 -10   1  142.64   24.70
 -13 -10   1  133.21   26.16
 -13 -10   2    2.86    4.76
 -13 -10   2   16.09   12.37
 -13 -10   3  106.11   20.53
 -13 -10   3  134.72   26.46
  13 -10  -3  113.44   26.19
 -13 -10   4    3.86    3.64
  13 -10  -4    1.24    3.47
 -13 -10   5   17.00    7.74
 -13 -10   5   30.74   14.99
  13 -10  -5   15.54    9.00
 -13 -10   6    1.35    2.43
  13 -10  -6   -0.30    1.21
 -13 -10   7   80.41   16.51
 -13 -10   7   80.79   22.74
  13 -10  -7   79.02   20.81
 -13 -10   8    2.37    3.71
 -13 -10   8   12.14    9.81
  13 -10  -8    2.41    4.54
 -13 -10   9   79.99   22.86
  13 -10  -9   78.39   20.83
 -13 -10  10   -8.27    5.86
  13 -10 -10    0.84    3.30
 -13 -10  11   30.96   13.84
  13 -10 -11   22.48   11.22
 -13 -10  12   -3.94    5.17
 -13 -10  13    0.33    2.01
 -13 -10  14   -4.17    4.93
 -13 -10  15   -3.31    8.35
 -13 -10  16   -0.88    2.82
 -13 -10  17   -4.43    7.07
 -13 -10  18   -6.25    6.88
 -14 -10   0    6.35    5.96
 -14 -10   0   12.14    8.66
 -14 -10   1    0.08    2.55
 -14 -10   1   11.01    9.94
 -14 -10  -1    1.22    4.14
 -14 -10   2    2.98    4.76
 -14 -10   2    6.15    7.29
 -14 -10   3    6.51    5.46
 -14 -10   3   25.16   14.48
 -14 -10   4   11.84    6.59
 -14 -10   4   31.62   14.95
 -14 -10   5   -0.42    1.43
 -14 -10   5   20.50   12.64
 -14 -10   6    2.04    2.61
  14 -10  -6   -0.33    4.80
 -14 -10   7    0.95    1.96
 -14 -10   7   11.05   10.17
  14 -10  -7    1.08    2.94
 -14 -10   8    3.47    7.36
  14 -10  -8    0.82    3.53
 -14 -10   9   11.63    9.73
  14 -10  -9    5.66    7.29
 -14 -10  10    3.11    5.76
  14 -10 -10    0.62    2.75
 -14 -10  11    1.52    5.29
  14 -10 -11    0.20    0.48
 -14 -10  12    7.95    6.97
 -14 -10  13   10.41   11.35
 -14 -10  14   -0.29    1.48
 -14 -10  15    2.40    5.73
 -14 -10  16   -1.03    5.13
 -14 -10  17    0.98    2.93
 -15 -10   0    8.91    9.29
 -15 -10   1    7.14    5.97
 -15 -10   1   14.40   11.44
 -15 -10  -1    6.05    6.46
 -15 -10   2    8.89    6.74
 -15 -10   2   14.13   10.18
 -15 -10   3   19.66    8.86
 -15 -10   3   37.00   16.44
 -15 -10   4    3.84    4.80
 -15 -10   4   16.56   11.31
 -15 -10   5    6.56    4.87
 -15 -10   5   17.13   13.32
 -15 -10   6    0.43    1.91
 -15 -10   6    8.79    9.48
 -15 -10   7   18.21   12.70
 -15 -10   8   11.96   10.34
 -15 -10   9    7.91    8.68
 -15 -10  10   12.93   10.72
 -15 -10  11    3.14    4.64
 -15 -10  12   14.93   12.45
 -15 -10  13    0.50    2.44
 -15 -10  14    0.11    2.54
 -15 -10  15   -3.05    7.64
 -16 -10   0    0.72    5.59
 -16 -10   1    0.10    0.99
 -16 -10   1   -1.97    2.90
 -16 -10  -1    3.96    4.85
 -16 -10   2    3.56    5.13
 -16 -10   2   17.14   12.37
 -16 -10   3    9.28    6.82
 -16 -10   3   27.72   14.71
 -16 -10   4    1.16    2.64
 -16 -10   4   21.08   12.98
 -16 -10   5   -0.12    1.87
 -16 -10   5   13.44   11.74
 -16 -10   6   24.39   14.37
 -16 -10   7    4.24    6.78
 -16 -10   8   14.75   12.16
 -16 -10   9   10.95    9.81
 -16 -10  10    5.89    8.33
 -16 -10  11   -0.53    4.50
 -16 -10  12    5.86    5.83
 -16 -10  13    9.26   10.65
 -17 -10   0    1.11    3.42
 -17 -10   1   46.28   15.64
 -17 -10   1   57.22   19.66
 -17 -10  -1   47.47   18.40
 -17 -10   2    5.69    5.35
 -17 -10   2   18.24   12.65
 -17 -10   3  130.08   24.75
 -17 -10   3  142.82   30.78
 -17 -10   4   10.35    7.84
 -17 -10   4   29.99   15.61
 -17 -10   5  112.29   27.73
 -17 -10   6   12.84   11.23
 -17 -10   7   48.48   20.71
 -17 -10   8   10.69   10.11
 -17 -10   9   35.25   18.80
 -17 -10  10   -0.32    3.82
 -17 -10  11   23.24   13.89
 -17 -10  12    5.75    9.40
 -18 -10   0    5.70    8.23
 -18 -10   1    5.86    6.32
 -18 -10   1    2.11    4.62
 -18 -10  -1   -1.83    3.02
 -18 -10   2    8.84    7.41
 -18 -10   2   32.05   14.76
 -18 -10   3    2.12    4.75
 -18 -10   3   17.08   12.56
 -18 -10   4   50.07   19.70
 -18 -10   5   20.59   14.49
 -18 -10   6   19.48   14.66
 -18 -10   7   22.59   15.18
 -18 -10   8   22.82   14.45
 -18 -10   9    6.05    8.09
 -18 -10  10    7.60    8.89
 -19 -10   0    5.98    5.25
 -19 -10   1   32.15   16.22
 -19 -10  -1   44.93   18.85
 -19 -10   2    3.15    4.61
 -19 -10   2   13.60   10.49
 -19 -10  -2    1.96    5.45
 -19 -10   3   45.55   19.43
 -19 -10   4   29.59   16.12
 -19 -10   5   49.71   20.96
 -19 -10   6   14.06   11.67
 -19 -10   7   21.72   14.51
 -20 -10   0   -0.17    4.75
 -20 -10   1    3.68    9.21
 -20 -10  -1    7.75    7.78
 -20 -10   2   22.23   14.48
 -20 -10  -2   -1.17    1.93
 -20 -10   3   19.90   15.19
 -20 -10   4   28.72   16.33
 -21 -10   0    9.42    8.40
 -21 -10  -1    2.59    2.32
 -21 -10  -2   -2.08    2.20
   0 -11   0    1.09    3.26
   0 -11  -1    2.13    4.97
   0 -11   1    1.61    3.92
   0 -11  -2   -0.17    1.67
   0 -11   2   -1.24    1.46
   0 -11  -3    6.83    5.17
   0 -11   3    2.53    1.78
   0 -11  -4   -0.01    2.78
   0 -11   4   -0.08    2.71
   0 -11  -5   13.67    6.64
   0 -11   5   15.56    8.42
   0 -11  -6   -1.09    3.04
   0 -11   6    1.45    2.16
   0 -11  -7   23.95   10.08
   0 -11   7   23.44   10.24
   0 -11  -8    1.35    4.21
   0 -11   8    0.95    2.40
   0 -11  -9   16.35    8.32
   0 -11   9   17.17    9.22
   0 -11 -10   -0.49    3.76
   0 -11  10    3.18    3.96
   0 -11 -11    0.35    2.04
   0 -11  11    4.84    6.07
   0 -11 -12   -1.40    3.65
   0 -11 -13   -2.71    2.91
   0 -11 -14    1.37    3.48
   0 -11 -15   28.67   12.51
   0 -11 -16   -1.53    2.67
   0 -11 -17    0.52    1.24
   0 -11 -18   -0.34    1.97
   0 -11 -19    5.42    5.44
   0 -11 -20    1.22    3.75
   0 -11 -21   -0.71    1.84
   1 -11   0    8.63    5.61
  -1 -11   0    7.42    5.36
  -1 -11   1  497.01   43.51
   1 -11   1  503.79   44.13
   1 -11  -1  492.46   44.28
  -1 -11  -1  469.46   42.85
  -1 -11  -2    4.64    4.01
   1 -11   2    3.99    1.59
   1 -11  -2    3.23    4.17
  -1 -11   2    4.58    3.61
  -1 -11  -3    9.83    5.83
   1 -11  -3   14.53    7.85
  -1 -11   3   10.14    5.89
   1 -11   3    9.40    5.70
   1 -11  -4    1.16    0.88
  -1 -11  -4   -1.77    3.67
  -1 -11   4   -0.52    2.83
   1 -11   4    0.09    3.66
   1 -11  -5    9.67    6.29
  -1 -11  -5    9.26    5.25
  -1 -11   5    7.24    5.11
   1 -11   5   11.08    7.18
  -1 -11  -6    3.40    3.39
   1 -11  -6    5.09    5.62
   1 -11   6    5.26    6.02
  -1 -11   6    3.39    3.71
  -1 -11  -7   88.56   19.27
   1 -11  -7   72.29   17.02
   1 -11   7   93.59   20.37
  -1 -11   7   75.18   17.60
  -1 -11  -8    3.68    4.78
   1 -11  -8    1.13    2.11
   1 -11   8    3.14    3.61
  -1 -11   8    2.03    3.58
   1 -11  -9  187.77   28.71
  -1 -11  -9  188.69   29.09
  -1 -11   9  198.75   29.50
   1 -11   9  194.36   30.56
   1 -11 -10    1.76    2.38
  -1 -11 -10    2.47    4.62
  -1 -11  10    4.40    4.74
   1 -11  10   -0.23    3.62
   1 -11 -11   53.77   15.63
  -1 -11 -11   49.25   14.90
   1 -11  11   45.07   15.00
  -1 -11  11   53.59   15.87
   1 -11 -12    0.78    2.16
  -1 -11 -12    0.02    2.16
  -1 -11  12    1.99    1.81
   1 -11 -13    2.27    2.73
  -1 -11 -13    3.25    3.69
   1 -11 -14    1.57    2.03
  -1 -11 -14    1.25    3.36
   1 -11 -15    8.26    6.07
  -1 -11 -15    9.64    7.44
   1 -11 -16    2.39    3.60
  -1 -11 -16    1.75    1.93
   1 -11 -17   19.71   10.33
  -1 -11 -17   24.64   11.73
   1 -11 -18   -1.38    3.36
  -1 -11 -18   -1.32    3.03
   1 -11 -19    1.41    4.47
  -1 -11 -19    3.74    4.70
   1 -11 -20   -2.15    1.90
  -1 -11 -20    0.19    4.24
  -1 -11 -21    0.76    2.57
  -2 -11   0    8.76    5.76
   2 -11   0    9.52    5.61
  -2 -11  -1    4.57    5.12
   2 -11  -1    3.56    3.88
   2 -11   1    0.97    2.60
  -2 -11   1    4.63    4.77
  -2 -11  -2   -1.19    3.99
  -2 -11   2    0.52    2.95
   2 -11   2   -0.63    3.69
   2 -11  -2   -0.03    2.11
  -2 -11  -3   -1.22    3.68
   2 -11  -3    1.89    0.42
   2 -11   3    0.21    3.41
  -2 -11   3    1.69    2.77
  -2 -11  -4    0.80    1.92
  -2 -11   4   -0.65    2.37
   2 -11   4    1.82    1.47
   2 -11  -4    1.36    1.89
  -2 -11  -5    0.03    3.15
   2 -11  -5   -0.35    1.97
   2 -11   5   -1.39    2.26
  -2 -11   5    1.14    0.89
  -2 -11  -6    0.10    1.30
   2 -11  -6    1.59    2.99
   2 -11   6    1.67    4.34
  -2 -11   6   -0.83    1.36
   2 -11  -7    7.96    6.98
  -2 -11  -7    5.63    5.13
   2 -11   7    6.26    5.86
  -2 -11   7    4.35    3.37
   2 -11  -8    5.13    6.08
  -2 -11  -8    2.10    2.46
  -2 -11   8   -1.93    3.51
   2 -11   8   -0.62    1.95
   2 -11  -9    0.67    3.84
  -2 -11  -9    0.39    3.30
  -2 -11   9    1.35    3.49
   2 -11   9   -1.71    3.60
   2 -11 -10    1.17    1.83
  -2 -11 -10   -2.80    4.26
   2 -11  10   -2.35    4.90
  -2 -11  10    0.30    0.95
  -2 -11 -11    5.09    4.90
   2 -11 -11    4.49    3.51
  -2 -11  11    3.97    4.04
  -2 -11 -12    2.36    4.27
   2 -11 -12    0.95    2.21
  -2 -11  12    0.07    2.97
  -2 -11 -13    6.69    6.29
   2 -11 -13    2.67    1.63
  -2 -11 -14    5.32    6.11
   2 -11 -14    0.52    3.38
   2 -11 -15    3.48    5.64
  -2 -11 -15    3.83    4.15
   2 -11 -16   -0.96    1.04
  -2 -11 -16   -0.65    2.60
   2 -11 -17    4.47    4.76
  -2 -11 -17    8.39    7.39
   2 -11 -18   -0.85    0.68
  -2 -11 -18    0.49    3.28
   2 -11 -19    0.99    3.56
  -2 -11 -19    3.54    5.31
  -2 -11 -20    1.57    2.72
  -2 -11 -21   -0.12    1.05
  -2 -11 -22    0.63    3.30
  -3 -11   0    8.32    5.61
   3 -11   0    5.53    4.91
  -3 -11  -1    3.54    1.29
  -3 -11   1    9.32    6.37
   3 -11  -1    5.67    4.03
   3 -11   1    3.03    1.36
  -3 -11  -2    6.57    4.91
  -3 -11   2    8.72    5.89
   3 -11  -2    6.79    5.13
   3 -11   2    4.24    3.72
  -3 -11  -3   33.41   11.26
  -3 -11   3   44.57   12.94
   3 -11  -3   36.73   12.05
   3 -11   3   37.94   12.79
  -3 -11  -4   -0.76    4.35
   3 -11   4   -0.36    1.72
  -3 -11   4    0.61    2.16
   3 -11  -4    0.77    1.97
   3 -11  -5   48.91   13.71
  -3 -11   5   53.45   14.11
  -3 -11  -5   51.74   14.81
   3 -11   5   55.78   16.14
  -3 -11  -6   -0.56    2.33
  -3 -11   6   -0.40    2.63
   3 -11   6    0.55    1.00
   3 -11  -6    1.99    3.94
   3 -11  -7    2.06    4.48
  -3 -11  -7    4.24    5.05
  -3 -11   7    1.43    2.58
   3 -11   7    0.00    1.21
   3 -11  -8   10.33    7.50
  -3 -11  -8    5.31    4.44
   3 -11   8    5.95    4.94
  -3 -11   8    4.99    3.47
   3 -11  -9   25.40   10.84
  -3 -11  -9   26.27   10.72
   3 -11   9   23.37   10.76
  -3 -11   9   25.05   10.21
  -3 -11 -10    1.70    1.85
   3 -11 -10    3.75    4.72
   3 -11  10    0.59    3.12
  -3 -11  10    0.26    0.38
  -3 -11 -11    0.88    1.08
   3 -11 -11    1.38    3.25
  -3 -11  11    1.35    3.09
   3 -11 -12    2.91    3.20
  -3 -11 -12    2.03    4.39
  -3 -11  12   -1.51    3.21
  -3 -11  12    1.70    3.51
   3 -11 -13   22.04   10.25
  -3 -11 -13   20.15   10.22
  -3 -11  13   16.28    7.31
  -3 -11  13   22.20    9.82
   3 -11 -14    0.50    2.09
  -3 -11 -14    3.45    4.07
  -3 -11  14    3.86    5.18
  -3 -11 -15    2.02    0.27
   3 -11 -15   -2.92    5.77
  -3 -11  15    2.76    3.54
  -3 -11 -16   -0.73    2.26
   3 -11 -16   -2.45    5.05
  -3 -11 -17    0.88    2.20
   3 -11 -17   -1.10    5.30
  -3 -11 -18   -1.95    3.17
   3 -11 -18    1.29    1.96
  -3 -11 -19    1.92    3.63
   3 -11 -19    3.07    3.74
   3  11  20  -10.40   15.22
  -3 -11 -20    6.98    6.23
  -3 -11 -21    1.83    3.88
  -3 -11 -22    2.38    4.10
  -4 -11   0   -1.81    4.48
   4 -11   0   -0.20    1.95
  -4 -11  -1    0.82    2.26
  -4 -11   1    6.59    5.50
   4 -11  -1    2.41    1.28
   4 -11   1    2.71    1.97
  -4 -11  -2    0.53    3.97
  -4 -11   2    7.86    5.74
   4 -11  -2    6.26    5.29
   4 -11   2    2.08    1.82
  -4 -11  -3   18.65    8.13
   4 -11   3   19.24    9.52
   4 -11  -3   15.79    8.03
  -4 -11   3   21.20    8.68
  -4 -11  -4   11.60    6.81
   4 -11   4   12.75    7.42
   4 -11  -4    9.39    5.94
  -4 -11   4   13.18    6.99
  -4 -11  -5    1.89    1.80
  -4 -11   5   -0.45    2.51
   4 -11   5    5.08    5.91
   4 -11  -5    0.72    1.62
  -4 -11  -6    3.52    3.63
  -4 -11   6    2.31    1.65
   4 -11  -6    2.63    2.90
   4 -11   6    3.72    3.97
  -4 -11  -7   -1.58    2.58
   4 -11  -7   -1.40    3.36
   4 -11   7    1.19    3.20
  -4 -11   7   -0.47    2.36
  -4 -11  -8    2.57    2.79
   4 -11   8    2.21    0.83
  -4 -11   8    1.73    1.74
   4 -11  -8    3.13    4.71
  -4 -11  -9   -0.70    3.39
   4 -11   9   -0.40    4.36
   4 -11  -9    1.34    3.50
  -4 -11   9    2.05    3.07
   4 -11 -10    1.36    3.74
  -4 -11 -10   -1.37    2.93
  -4 -11  10   -0.52    4.09
  -4 -11  10    1.81    2.66
   4 -11 -11    1.45    4.20
  -4 -11 -11    3.53    5.70
  -4 -11  11    0.04    0.74
  -4 -11  11    0.89    1.79
  -4 -11 -12   10.15    7.69
   4 -11 -12    6.78    5.64
  -4 -11  12    2.72    2.93
  -4 -11  12    6.18    4.74
  -4 -11 -13    2.26    6.40
   4 -11 -13    2.12    4.59
  -4 -11  13   11.11    7.56
  -4 -11  13    0.20    1.84
   4 -11 -14   -0.45    1.16
  -4 -11 -14    2.84    4.45
  -4 -11  14    3.63    5.69
  -4 -11 -15    0.78    1.44
   4 -11 -15    0.34    1.33
  -4 -11 -16    0.07    2.39
   4 -11 -16    2.98    4.37
  -4 -11  16    5.77    6.02
  -4 -11 -17   -0.80    2.63
   4 -11 -17    2.27    2.32
  -4 -11 -18   -0.12    3.12
   4 -11 -18    1.66    3.23
  -4 -11 -19   -1.02    1.95
  -4 -11 -20    3.09    4.46
   4  11  20   -6.32   12.34
  -4 -11 -21    1.19    2.47
  -4 -11 -22    1.44    3.89
  -5 -11   0    4.18    3.29
   5 -11   0    1.72    3.23
  -5 -11  -1   33.51   11.41
  -5 -11   1   32.80   10.81
   5 -11  -1   28.84   10.99
   5 -11   1   35.28   12.76
  -5 -11  -2   -0.61    3.15
  -5 -11   2    1.25    2.93
   5 -11   2    0.01    2.42
   5 -11  -2   -0.33    1.54
   5 -11  -3   75.72   17.81
  -5 -11   3   85.83   17.83
  -5 -11  -3   84.92   18.71
   5 -11   3   84.29   20.36
  -5 -11  -4    1.11    3.54
   5 -11  -4    1.00    0.64
   5 -11   4    1.30    2.70
  -5 -11   4    3.86    3.92
   5 -11  -5   71.04   17.37
  -5 -11   5   75.05   16.63
  -5 -11  -5   76.86   18.54
   5 -11   5   76.38   19.66
  -5 -11  -6    0.97    2.03
   5 -11  -6    1.98    3.92
  -5 -11   6    0.96    1.45
   5 -11   6   -1.53    3.44
  -5 -11  -7    5.81    4.71
  -5 -11   7    3.04    2.98
   5 -11  -7    4.15    3.54
   5 -11   7    5.46    4.49
  -5 -11  -8    2.06    2.66
  -5 -11   8    1.66    2.62
  -5 -11   8    0.07    2.02
   5 -11   8    1.54    1.56
   5 -11  -8    1.04    1.90
  -5 -11  -9    8.67    6.51
  -5 -11   9    8.10    5.29
   5 -11  -9   11.58    7.32
  -5 -11   9    8.44    6.10
  -5 -11 -10    0.38    2.38
  -5 -11  10    1.28    3.01
  -5 -11  10    0.46    0.82
   5 -11 -10    1.81    4.20
  -5 -11 -11   13.22    9.20
  -5 -11  11    9.20    7.30
   5 -11 -11   11.56    7.92
  -5 -11  11   13.78    7.81
  -5 -11 -12    2.88    5.24
  -5 -11  12   10.16    7.08
  -5 -11  12    1.11    2.73
   5 -11 -12    0.03    1.48
   5 -11 -13   31.88   12.81
  -5 -11 -13   37.07   14.29
  -5 -11  13   47.62   14.03
  -5 -11  13   30.35   11.35
  -5 -11 -14    0.19    0.96
   5 -11 -14    3.72    4.46
  -5 -11 -15    1.38    0.43
   5 -11 -15    4.73    4.24
  -5 -11 -16   -3.40    5.14
   5 -11 -16   -0.09    2.19
  -5 -11 -17   -1.43    2.90
   5 -11 -17    0.31    1.37
  -5 -11 -18    1.31    5.01
  -5 -11 -19    7.72    9.53
   5  11  19   -9.31   11.02
  -5 -11 -20    6.92    7.95
   5  11  20  -10.07   13.83
  -5 -11 -21    5.83    7.73
  -6 -11   0   -0.65    3.37
   6 -11   0    0.22    2.54
  -6 -11  -1    0.59    1.78
  -6 -11   1   -1.58    2.88
   6 -11   1    0.94    3.31
   6 -11  -1    1.12    2.56
  -6 -11   2   -3.42    4.16
  -6 -11  -2   -1.33    3.21
   6 -11   2    0.46    2.16
   6 -11  -2    0.14    1.08
  -6 -11   3    3.65    4.17
  -6 -11  -3    0.53    3.37
   6 -11  -3    2.57    0.67
   6 -11   3   -0.12    2.78
  -6 -11   4    8.65    5.89
  -6 -11  -4    8.11    6.04
   6 -11  -4    7.38    5.46
   6 -11   4   12.88    7.45
  -6 -11  -5    4.88    4.62
   6 -11  -5    4.92    4.80
   6 -11   5    3.56    3.56
  -6 -11   5    6.01    5.08
  -6 -11  -6    1.03    2.12
   6 -11  -6    0.33    1.08
   6 -11   6   -0.18    2.41
  -6 -11   6   -0.04    1.94
  -6 -11  -7    1.58    1.52
  -6 -11   7    0.20    1.05
   6 -11  -7   -0.42    3.41
   6 -11   7    0.60    1.99
  -6 -11  -8    2.31    3.95
  -6 -11   8    3.71    4.24
   6 -11  -8   -0.05    1.37
  -6 -11   8    1.85    3.18
   6 -11   8    1.72    3.66
  -6 -11  -9    1.49    3.68
  -6 -11   9    6.52    5.19
  -6 -11   9    0.39    2.52
   6 -11  -9    1.00    2.57
  -6 -11 -10    4.47    6.70
  -6 -11  10    5.68    6.56
   6 -11 -10    2.38    4.63
  -6 -11  10    2.21    2.96
  -6 -11 -11   28.84   12.98
  -6 -11  11   22.01    9.73
  -6 -11  11   26.54   10.91
   6 -11 -11   24.84   10.90
  -6 -11 -12   20.62   11.37
  -6 -11  12   37.17   13.31
   6 -11 -12   18.91    9.29
  -6 -11  12   21.60    9.50
  -6 -11 -13    1.38    4.96
   6 -11 -13    1.18    3.04
  -6 -11  13    1.04    2.75
  -6 -11 -14    1.44    1.82
   6 -11 -14    1.55    3.40
  -6 -11 -15    1.60    1.03
   6 -11 -15    2.26    4.32
  -6 -11 -16   -1.46    3.80
  -6 -11  16   12.52    8.41
   6 -11 -16    2.44    4.71
  -6 -11 -17    1.70    6.09
   6 -11 -17    0.95    2.40
  -6 -11 -18    1.99    7.25
   6  11  18   -8.79   12.05
  -6 -11 -19    4.93    8.28
   6  11  19  -11.74   13.83
  -6 -11 -20   10.88    8.90
   6  11  20   -8.13   10.88
  -6 -11 -21    2.85    6.75
  -7 -11   0   10.86    6.42
   7 -11   0   12.88    8.46
  -7 -11   1    0.54    1.07
  -7 -11  -1    5.44    4.91
   7 -11  -1    4.16    3.13
   7 -11   1    2.16    1.63
  -7 -11   2   -1.20    2.78
  -7 -11  -2   -0.50    2.23
   7 -11   2    0.46    3.17
   7 -11  -2    2.93    3.76
  -7 -11   3   25.66    9.38
  -7 -11  -3   27.45   10.79
   7 -11  -3   17.71    8.62
   7 -11   3   27.98   11.90
  -7 -11   4    0.35    1.01
  -7 -11  -4    0.33    1.89
   7 -11   4   -0.62    3.58
   7 -11  -4    0.77    1.34
  -7 -11  -5    5.62    5.04
  -7 -11   5    2.62    2.26
  -7 -11   5    7.43    5.22
   7 -11  -5    6.53    4.51
   7 -11   5    5.47    4.25
  -7 -11  -6   -0.88    2.72
  -7 -11   6   -0.06    2.51
  -7 -11   6   -0.65    2.40
   7 -11  -6   -1.71    4.82
   7 -11   6   -1.01    3.96
  -7 -11  -7    1.40    2.66
  -7 -11   7    1.66    1.57
  -7 -11   7    1.45    0.47
   7 -11  -7   -1.24    3.64
   7 -11   7   -1.27    3.76
  -7 -11  -8    6.92    5.76
  -7 -11   8   -3.12    4.34
   7 -11  -8   -3.28    4.82
  -7 -11   8    0.36    1.19
  -7 -11  -9    8.43    6.45
  -7 -11   9   17.64    9.63
   7 -11  -9    9.25    6.02
  -7 -11   9    9.28    5.93
  -7 -11 -10    6.30    6.71
  -7 -11  10   14.00    9.96
  -7 -11  10   -0.67    1.95
   7 -11 -10   -0.81    4.73
  -7 -11 -11   26.62   12.04
  -7 -11  11   39.28   14.31
   7 -11 -11   24.95   10.37
  -7 -11  11   28.56   10.70
   7 -11 -12    2.57    3.59
  -7 -11  12    3.25    3.74
  -7 -11  13   24.95   12.70
   7 -11 -13    7.40    6.70
  -7 -11  14    9.96    9.64
   7 -11 -14    2.44    3.20
  -7 -11  15   25.61   12.82
   7 -11 -15    2.04    2.18
  -7 -11  16   15.96   10.67
   7 -11 -16   -2.44    4.11
   7  11  17   -4.21   11.77
  -7 -11  17   18.51   10.88
   7  11  18   -5.86   10.03
  -7 -11  18   31.48   14.40
   7  11  19    2.70    5.42
   7  11  20    0.34    1.29
  -8 -11   0    3.29    3.75
   8 -11   0    1.92    0.83
  -8 -11   1    4.57    3.75
  -8 -11  -1    7.39    5.40
   8 -11  -1    6.01    4.23
   8 -11   1    5.71    5.26
  -8 -11   2   -0.05    3.59
  -8 -11  -2    3.34    3.46
   8 -11   2    1.73    2.78
   8 -11  -2    0.71    1.65
  -8 -11  -3    5.03    3.53
  -8 -11   3    4.79    0.74
   8 -11  -3    9.59    6.24
   8 -11   3    2.87    3.26
  -8 -11  -4   -0.26    2.29
  -8 -11   4    4.27    4.70
  -8 -11   4    0.90    4.80
   8 -11   4   -0.88    3.99
   8 -11  -4    0.45    2.67
  -8 -11   5    1.09    2.11
  -8 -11  -5   -0.49    2.07
  -8 -11   5    2.61    1.84
   8 -11   5   -0.22    3.11
   8 -11  -5   -1.97    3.50
  -8 -11  -6    4.02    4.79
  -8 -11   6    4.16    4.91
   8 -11   6    4.27    2.34
   8 -11  -6    1.43    1.87
  -8 -11   6    7.39    5.15
  -8 -11  -7    0.14    1.85
  -8 -11   7    6.58    6.76
   8 -11  -7    0.78    1.33
  -8 -11   7    0.59    1.48
  -8 -11  -8    7.24    6.32
  -8 -11   8   11.86    9.31
  -8 -11   8    6.51    4.37
   8 -11  -8    0.78    4.34
  -8 -11   9   19.42   11.60
  -8 -11   9    8.57    6.02
   8 -11  -9    3.21    3.06
  -8 -11  10   11.79   10.47
   8 -11 -10   -1.46    3.72
  -8 -11  10    1.22    3.06
  -8 -11  11   -0.34    0.75
   8 -11 -11    1.66    1.61
  -8 -11  12   16.68   12.13
   8 -11 -12    0.56    2.74
  -8 -11  13   11.62    9.58
   8 -11 -13    0.56    2.79
  -8 -11  14   11.32    9.17
   8 -11 -14    1.65    3.04
  -8 -11  15    9.88    9.05
   8 -11 -15   -0.59    2.01
   8  11  16   -9.86   12.94
  -8 -11  16   16.99   10.74
   8  11  17   -5.63   11.00
  -8 -11  17   14.49   11.17
   8  11  18   -0.02    8.81
  -8 -11  18   18.79   11.44
   8  11  19   -4.30    8.71
   8  11  20   -3.35    8.62
  -9 -11   0   -0.31    2.65
   9 -11   0   -1.86    4.52
  -9 -11  -1   14.02    7.64
  -9 -11   1    8.23    5.35
   9 -11   1    7.64    5.72
   9 -11  -1   11.75    7.51
  -9 -11   2    0.50    2.06
  -9 -11  -2    0.48    1.15
   9 -11  -2    3.20    4.36
   9 -11   2   -0.34    2.45
  -9 -11  -3    1.18    2.99
  -9 -11   3   -0.84    4.45
   9 -11   3    1.59    3.19
   9 -11  -3    3.06    3.39
  -9 -11   4    1.56    2.08
  -9 -11  -4    9.23    6.33
  -9 -11   4   12.06    6.92
   9 -11   4    9.05    7.16
   9 -11  -4    5.97    3.14
  -9 -11  -5   -0.08    2.21
  -9 -11   5    2.27    3.89
  -9 -11   5    0.92    4.25
   9 -11  -5    0.38    1.67
   9 -11   5    0.58    2.28
  -9 -11  -6    1.15    2.00
  -9 -11   6    1.42    1.30
  -9 -11   6   -0.16    4.95
   9 -11  -6   -1.53    2.88
  -9 -11   7   27.44   12.16
   9 -11  -7   28.53   12.01
  -9 -11   7   24.67    9.29
  -9 -11   8    5.38    8.47
  -9 -11   8   -1.19    3.16
   9 -11  -8   -0.02    2.16
  -9 -11   9    8.03    4.60
   9 -11  -9    7.08    5.25
  -9 -11  10   -1.97    3.99
   9 -11 -10   -1.91    4.45
   9 -11 -11    0.48    1.43
  -9 -11  11   -0.54    2.40
  -9 -11  12   23.08   12.60
   9 -11 -12    3.51    3.97
  -9 -11  13   14.82   12.05
   9 -11 -13    2.95    3.77
  -9 -11  14   16.71   11.70
   9 -11 -14   -0.04    0.91
   9  11  15    6.64    5.22
  -9 -11  15   18.47   11.48
   9 -11 -15    5.53    5.52
   9  11  16   -8.75   10.22
  -9 -11  16    7.86    9.67
   9  11  17   -8.03    8.33
  -9 -11  17   15.98   11.89
  -9 -11  18   13.04   10.40
   9  11  18   -3.63    7.41
   9  11  19   -3.52    7.68
   9  11  20    1.24    1.65
 -10 -11   0   20.38    9.06
  10 -11   0   22.54   10.88
 -10 -11  -1   -0.57    2.62
 -10 -11   1    0.08    1.51
  10 -11  -1   -1.19    4.34
  10 -11   1    0.12    0.24
 -10 -11  -2    8.82    6.46
 -10 -11   2    7.92    4.86
  10 -11   2    8.48    5.37
  10 -11  -2    9.37    7.91
 -10 -11  -3    5.31    5.86
 -10 -11   3    1.40    1.96
 -10 -11   3    1.55    3.41
  10 -11   3    0.15    4.20
  10 -11  -3    2.76    4.77
 -10 -11  -4    5.33    4.59
 -10 -11   4    2.89    2.62
 -10 -11   4    8.51    7.84
  10 -11  -4    6.34    6.06
 -10 -11  -5    2.44    3.06
 -10 -11   5    1.91    1.94
 -10 -11   5    5.46    5.66
  10 -11  -5    0.03    1.15
 -10 -11   6   -0.92    2.15
 -10 -11   6    7.28    7.92
  10 -11  -6   -0.73    1.67
 -10 -11   7   17.02   10.99
  10 -11  -7    5.44    6.04
 -10 -11   7    4.25    4.18
 -10 -11   8   29.36   10.20
 -10 -11   8   33.16   14.75
  10 -11  -8   29.09   12.49
 -10 -11   9    5.63    4.17
  10 -11  -9    5.58    5.07
 -10 -11  10   24.91   12.72
 -10 -11  10    8.57    5.02
  10 -11 -10    8.23    6.38
 -10 -11  11    8.67    9.18
  10 -11 -11   -2.07    4.45
 -10 -11  12   17.64   11.18
  10 -11 -12    0.91    3.54
 -10 -11  13   20.73   11.30
  10 -11 -13    5.04    4.54
  10  11  14   -4.59   10.31
 -10 -11  14   15.17   12.48
  10 -11 -14    1.48    2.64
  10  11  15   -2.67    7.70
 -10 -11  15   10.80    9.10
 -10 -11  16   27.65   14.89
  10  11  16   10.25    7.00
 -10 -11  17   18.45   12.13
  10  11  17   -4.93    6.92
 -10 -11  18   11.46   10.58
  10  11  18    0.90    2.70
 -10 -11  19    4.70    7.84
  10  11  19   -2.25    6.96
  10  11  20   -3.60    1.64
 -11 -11   0    4.42    3.88
  11 -11   0    8.17    7.75
 -11 -11  -1   12.90    8.04
 -11 -11   1   14.35    7.76
  11 -11   1   12.84    8.91
  11 -11  -1   14.78    9.52
 -11 -11  -2    4.41    5.26
 -11 -11   2   -0.69    2.02
 -11 -11   2    2.52    2.74
  11 -11  -2    1.20    3.19
  11 -11   2    1.93    2.87
 -11 -11   3    0.37    1.36
 -11 -11  -3    3.30    4.97
 -11 -11   3    3.44    4.73
  11 -11  -3    3.24    3.19
 -11 -11  -4    1.97    4.97
 -11 -11   4   -1.21    3.00
 -11 -11   4    3.54    7.71
  11 -11  -4   -0.35    2.29
 -11 -11   5    7.29    4.07
 -11 -11   5   12.78    7.60
  11 -11  -5    7.50    6.08
 -11 -11   6    3.73    3.88
 -11 -11   6    7.70    6.92
  11 -11  -6    3.79    5.81
  11 -11  -7   -0.18    2.54
 -11 -11   7   -0.11    2.87
  11 -11  -8    1.80    4.04
 -11 -11   8    1.64    3.41
 -11 -11   9    4.31    4.42
  11 -11  -9    1.69    1.24
 -11 -11  10   22.35   13.09
  11 -11 -10   -0.13    1.85
 -11 -11  11   12.97   10.98
  11 -11 -11   -0.36    2.35
  11  11  12   -2.67    8.12
  11 -11 -12    1.48    1.71
  11  11  13   -3.92    9.45
 -11 -11  13   16.00   11.80
  11 -11 -13    4.30    5.90
  11  11  14   -5.31    9.34
 -11 -11  14   11.10   10.72
 -11 -11  15   10.19    9.29
  11  11  15   -3.38    7.44
 -11 -11  16   16.91   10.99
  11  11  16    1.19    0.49
 -11 -11  17   25.38   14.71
  11  11  17   -6.20    8.80
 -11 -11  18   18.85   13.36
  11  11  18    3.22    6.46
 -11 -11  19   23.60   14.46
  11  11  19    5.12    7.65
 -12 -11   0  118.63   23.66
  12 -11   0  113.71   26.29
 -12 -11  -1   16.56    9.78
 -12 -11   1   13.36    7.98
  12 -11  -1   12.62    9.73
 -12 -11  -2   58.05   17.52
 -12 -11   2   53.70   15.25
 -12 -11   2   54.60   16.39
  12 -11  -2   58.69   18.63
 -12 -11  -3   21.95   10.82
 -12 -11   3   19.59    9.15
 -12 -11   3   27.05   11.65
  12 -11  -3   20.58   11.42
 -12 -11   4    0.72    0.22
 -12 -11   4   -0.77    2.43
  12 -11  -4    2.12    1.81
 -12 -11   5    1.61    2.13
 -12 -11   5   11.55    9.19
  12 -11  -5    5.05    5.77
 -12 -11   6   42.49   12.69
 -12 -11   6   49.98   17.91
  12 -11  -6   45.26   16.09
 -12 -11   7   14.41    7.45
 -12 -11   7   23.55   12.72
  12 -11  -7   16.30    9.43
 -12 -11   8   39.28   12.25
 -12 -11   8   51.02   18.72
  12 -11  -8   37.44   15.18
 -12 -11   9   13.98   10.79
  12 -11  -9    7.08    7.64
 -12 -11  10   46.27   17.92
  12 -11 -10   26.10   12.14
  12  11  11   -9.15    8.91
 -12 -11  11   11.94   11.71
  12 -11 -11    2.76    4.32
  12  11  12   -3.98    6.19
 -12 -11  12   10.26   11.01
  12 -11 -12   -0.35    1.83
 -12 -11  13   21.29   13.41
 -12 -11  14   14.83   11.77
 -12 -11  15   11.77    9.75
 -12 -11  16   14.08   11.04
 -12 -11  17    2.47    5.25
 -12 -11  18    2.94    4.63
 -12 -11  19   18.51   13.55
 -13 -11   0    0.78    3.30
 -13 -11  -1    0.45    2.72
 -13 -11   1    0.97    1.22
 -13 -11   1    0.44    1.34
 -13 -11  -2    1.14    4.97
 -13 -11   2    1.45    1.91
 -13 -11   2    4.42    7.40
  13 -11  -2    1.96    3.04
 -13 -11  -3    4.95    6.31
 -13 -11   3    1.03    2.66
 -13 -11   3    6.38    6.87
  13 -11  -3   -2.81    5.34
 -13 -11   4    2.80    3.30
 -13 -11   4    6.46    7.47
  13 -11  -4    1.73    4.57
 -13 -11   5    1.54    1.67
  13 -11  -5    0.62    0.86
 -13 -11   6    4.97    3.97
 -13 -11   6   13.37   11.32
  13 -11  -6    5.90    7.12
 -13 -11   7    4.37    4.01
  13 -11  -7    2.30    3.51
 -13 -11   8   10.93   10.13
  13 -11  -8    2.82    4.57
 -13 -11   9   25.17   13.63
  13 -11  -9    0.49    2.74
 -13 -11  10   14.98   11.30
  13 -11 -10    6.18    6.59
 -13 -11  11    9.15    9.60
  13 -11 -11    1.74    4.12
 -13 -11  12   24.14   13.93
 -13 -11  13   16.11   12.04
 -13 -11  14   19.68   12.05
 -13 -11  15   19.48   13.26
 -13 -11  16   12.73   11.53
 -13 -11  17    8.48    9.05
 -14 -11   0   64.53   18.09
 -14 -11  -1    7.04    6.62
 -14 -11   1    0.85    2.14
 -14 -11   1    3.15    5.92
 -14 -11  -2    7.64    7.66
 -14 -11   2    9.48    6.51
 -14 -11   2    8.35    8.84
 -14 -11   3   -0.44    2.00
 -14 -11   3    8.93    9.46
 -14 -11   4    8.15    5.72
 -14 -11   4   14.77    9.27
  14 -11  -4    4.91    6.61
 -14 -11   5   -1.67    4.02
  14 -11  -5   -0.86    3.54
 -14 -11   6    2.74    1.58
  14 -11  -6    3.86    6.37
 -14 -11   7   25.20   14.10
  14 -11  -7    2.45    4.61
 -14 -11   8   29.22   16.30
  14 -11  -8    3.73    4.08
 -14 -11   9   13.05   11.62
  14 -11  -9    0.73    4.32
 -14 -11  10   15.88   12.01
  14 -11 -10    9.47    7.50
 -14 -11  11    8.08   10.20
 -14 -11  12   10.61   11.11
 -14 -11  13   14.66   11.80
 -14 -11  14   10.76   12.45
 -14 -11  15   13.31   12.54
 -15 -11   0    5.16    6.29
 -15 -11  -1    2.91    3.80
 -15 -11   1   -0.12    1.40
 -15 -11   1    0.36    4.05
 -15 -11   2   -0.33    2.95
 -15 -11   2    5.87    8.16
 -15 -11   3   -2.31    4.27
 -15 -11   3    9.94    9.85
 -15 -11   4   -0.32    3.10
 -15 -11   4   12.33   12.41
 -15 -11   5    1.45    1.80
 -15 -11   5   21.79   14.40
 -15 -11   6   17.91   13.62
 -15 -11   7   19.61   14.41
 -15 -11   8   12.59    9.31
 -15 -11   9   10.87   10.44
  15 -11  -9   -0.27    1.43
 -15 -11  10   14.11   13.84
  15 -11 -10   -3.10    7.50
 -15 -11  11   14.09   11.63
 -15 -11  12    8.32   10.54
 -15 -11  13   11.58   10.54
 -15 -11  14   13.02   12.08
 -16 -11   0    0.81    2.09
 -16 -11   0    2.34    3.96
 -16 -11  -1    2.74    3.52
 -16 -11   1    4.78    4.65
 -16 -11   1   11.33    9.01
 -16 -11   2   10.10    6.86
 -16 -11   2   14.29    8.71
 -16 -11   3    1.03    3.05
 -16 -11   3    0.62    0.73
 -16 -11   4   10.62    6.95
 -16 -11   4   20.08   13.37
 -16 -11   5    9.76   11.64
 -16 -11   6   18.63   13.54
 -16 -11   7   11.00   11.11
 -16 -11   8   17.78   13.92
 -16 -11   9   10.89    9.20
 -16 -11  10   14.47   11.18
 -16 -11  11   11.83   11.69
 -16 -11  12   17.11   13.58
 -17 -11   0    3.36    5.15
 -17 -11   0   -0.79    4.71
 -17 -11  -1    4.13    5.49
 -17 -11   1    0.86    3.01
 -17 -11   1    4.65    6.96
 -17 -11   2    0.76    3.62
 -17 -11   2    8.38    8.44
 -17 -11   3    1.93    2.14
 -17 -11   3   11.73   11.16
 -17 -11   4   21.00   12.91
 -17 -11   5   16.06   13.01
 -17 -11   6   26.49   15.05
 -17 -11   7   14.09   12.16
 -17 -11   8   14.61   11.50
 -17 -11   9   11.17   13.22
 -17 -11  10   18.80   13.42
 -18 -11   0   15.42    9.58
 -18 -11   0   15.69   10.29
 -18 -11  -1    2.75    3.95
 -18 -11   1    1.07    1.05
 -18 -11   1    9.61   11.33
 -18 -11   2   11.68    8.11
 -18 -11   2    9.92    8.98
 -18 -11   3    6.07   10.17
 -18 -11   4   23.56   13.56
 -18 -11   5   24.96   15.66
 -18 -11   6   26.83   15.94
 -18 -11   7   20.21   13.59
 -19 -11   0    0.67    2.56
 -19 -11   0    7.56    9.15
 -19 -11   1    1.44    1.78
 -19 -11   1    4.47    5.43
 -19 -11   2    4.46    6.67
 -19 -11   3   11.84   11.50
 -19 -11   4   24.92   14.26
 -20 -11   0   10.07    7.24
 -20 -11   0   14.61    9.85
   0 -12   0    5.27    5.12
   0 -12   1   -1.41    3.22
   0 -12  -1    2.19    3.20
   0 -12   2    2.31    3.03
   0 -12  -2    3.41    3.91
   0 -12  -3   -0.32    1.16
   0 -12   3   -1.14    2.89
   0 -12   4  106.70   21.42
   0 -12  -4  114.88   22.21
   0 -12  -5    5.31    5.73
   0 -12   5    2.53    4.04
   0 -12  -6   30.45   12.04
   0 -12   6   36.94   13.71
   0 -12  -7   -0.95    2.25
   0 -12   7    3.80    5.75
   0 -12  -8    1.77    3.14
   0 -12   8    1.28    3.09
   0 -12  -9   -3.27    5.03
   0 -12   9   -1.29    3.42
   0 -12 -10    5.65    4.12
   0 -12  10    7.36    5.65
   0 -12 -11   -2.02    3.75
   0 -12  11   -1.64    4.29
   0 -12 -12   21.62   10.28
   0 -12  12   23.77   11.10
   0 -12 -13    0.17    3.38
   0 -12 -14    7.19    6.13
   0 -12 -15    0.37    3.09
   0 -12 -16   15.07    9.01
   0 -12 -17   -3.16    5.03
   0 -12 -18   -2.30    4.66
   0 -12 -19    1.65    2.94
   0 -12 -20    2.98    3.41
  -1 -12   0   43.79   13.98
   1 -12   0   40.12   13.24
  -1 -12  -1    0.54    2.78
   1 -12   1    0.11    1.83
  -1 -12   1    1.29    2.04
   1 -12  -1   -1.68    2.67
  -1 -12  -2   10.47    6.66
   1 -12   2    7.92    5.53
   1 -12  -2    4.68    3.67
  -1 -12   2    9.35    6.36
  -1 -12  -3    0.13    1.14
   1 -12   3    0.59    1.60
   1 -12  -3    1.59    2.99
  -1 -12   3    0.61    1.14
  -1 -12   4   32.87   12.21
  -1 -12  -4   41.63   13.38
   1 -12  -4   41.68   13.49
   1 -12   4   39.65   13.74
  -1 -12  -5    2.38    3.42
   1 -12  -5    1.32    4.93
  -1 -12   5    0.86    2.59
   1 -12   5    1.30    2.86
   1 -12  -6    4.04    5.63
  -1 -12  -6    2.55    3.65
   1 -12   6    4.41    6.83
  -1 -12   6    0.29    1.50
  -1 -12  -7    0.18    1.30
   1 -12  -7    1.66    5.44
   1 -12   7    0.39    4.02
  -1 -12   7    2.62    4.18
   1 -12  -8   14.84    8.36
  -1 -12  -8   11.25    7.00
  -1 -12   8   17.58    9.28
   1 -12   8   12.78    7.63
   1 -12  -9   -0.76    2.28
  -1 -12  -9   -1.67    2.60
   1 -12   9   -0.73    2.64
  -1 -12   9    2.10    4.01
  -1 -12 -10    0.35    4.57
   1 -12 -10    1.40    1.02
   1 -12  10    3.09    3.48
  -1 -12  10    4.49    4.96
  -1 -12 -11   -0.12    2.35
   1 -12 -11   -0.36    3.04
   1 -12  11   -0.51    1.13
  -1 -12  11   -1.56    3.82
  -1 -12 -12    5.42    3.83
   1 -12 -12    3.16    2.73
  -1 -12  12    1.44    1.65
   1 -12 -13   -0.79    3.11
  -1 -12 -13   -0.21    2.33
   1 -12 -14   -1.04    1.61
  -1 -12 -14    2.42    4.27
   1 -12 -15    1.33    2.74
  -1 -12 -15    5.50    6.59
   1 -12 -16    2.00    2.27
  -1 -12 -16    3.58    5.68
   1 -12 -17    1.06    3.37
  -1 -12 -17   -0.33    3.84
   1 -12 -18   -0.86    4.73
  -1 -12 -18   -1.75    4.27
   1 -12 -19   -0.56    3.01
  -1 -12 -19   -0.15    2.79
   1 -12 -20    2.90    4.07
  -1 -12 -20   -2.64    4.69
  -1 -12 -21   -0.69    2.67
  -2 -12   0   14.38    7.91
   2 -12   0   11.07    6.68
  -2 -12  -1   -0.78    0.35
   2 -12  -1   -0.06    1.96
   2 -12   1   -1.99    3.92
  -2 -12   1    0.95    3.05
  -2 -12  -2    1.80    4.29
   2 -12   2   -0.85    2.29
  -2 -12   2   -0.06    2.05
   2 -12  -2    0.53    1.52
  -2 -12  -3    1.12    1.60
  -2 -12   3   -1.20    3.09
   2 -12  -3   -1.76    3.43
   2 -12   3    2.92    4.18
   2 -12  -4   53.11   15.39
  -2 -12  -4   46.10   14.35
  -2 -12   4   47.69   14.18
   2 -12   4   45.89   15.59
  -2 -12  -5    2.72    4.12
   2 -12   5    5.23    5.85
  -2 -12   5    3.52    4.33
   2 -12  -5    0.50    2.81
  -2 -12  -6   17.05    8.74
   2 -12  -6   19.38    9.79
   2 -12   6   21.38   10.52
  -2 -12   6   17.28    8.47
   2 -12  -7    4.28    6.19
  -2 -12  -7   -0.28    2.51
  -2 -12   7    0.91    1.67
   2 -12   7    1.91    3.19
  -2 -12  -8    9.70    6.58
   2 -12  -8   13.50    8.21
  -2 -12   8   11.54    7.18
   2 -12   8   10.92    7.09
  -2 -12  -9   -0.12    2.71
   2 -12  -9    3.94    4.41
  -2 -12   9    0.62    2.87
   2 -12   9   -1.83    5.01
   2 -12 -10   -1.18    2.01
  -2 -12 -10   -1.44    3.59
   2 -12  10   -0.92    2.85
  -2 -12  10   -0.97    2.23
   2 -12 -11   -2.39    3.89
  -2 -12 -11   -2.46    3.52
   2 -12  11   -1.98    4.57
  -2 -12  11    1.43    3.25
   2 -12 -12    0.52    1.65
  -2 -12 -12    0.53    1.70
  -2 -12  12    2.65    3.54
   2 -12 -13   -2.10    5.02
  -2 -12 -13   -1.96    3.71
  -2 -12  13   -0.69    2.66
  -2 -12 -14    3.81    5.80
   2 -12 -14    1.44    0.44
  -2 -12 -15    1.47    3.40
   2 -12 -15   -0.81    3.21
  -2 -12 -16    2.04    4.58
   2 -12 -16   -0.86    2.51
  -2 -12 -17    1.66    3.86
   2 -12 -17    0.12    3.81
  -2 -12 -18    4.39    6.11
   2 -12 -18   -0.36    0.60
  -2 -12 -19    0.24    1.52
   2 -12 -19    1.00    1.93
  -2 -12 -20    1.16    4.40
  -2 -12 -21   -3.34    4.00
  -3 -12   0    4.55    5.32
   3 -12   0    3.60    4.27
  -3 -12   1   -0.99    2.41
  -3 -12  -1    1.58    2.50
   3 -12  -1    1.45    3.01
   3 -12   1    0.76    2.70
  -3 -12  -2   11.26    6.16
   3 -12  -2   11.27    6.83
   3 -12   2   13.40    8.14
  -3 -12   2   15.40    8.21
  -3 -12  -3   -0.62    2.60
   3 -12  -3   -1.16    3.88
   3 -12   3    1.87    3.58
  -3 -12   3   -1.29    3.87
  -3 -12  -4    7.19    5.78
  -3 -12   4    3.42    4.39
   3 -12   4    6.84    6.55
   3 -12  -4    4.92    4.53
  -3 -12  -5    1.16    0.08
   3 -12  -5    1.43    2.38
  -3 -12   5    0.38    2.27
   3 -12   5    1.78    1.79
  -3 -12  -6    5.10    5.56
  -3 -12   6    1.72    2.29
   3 -12   6    3.71    5.75
   3 -12  -6    1.16    3.03
  -3 -12  -7    0.58    1.82
  -3 -12   7   -0.90    2.64
   3 -12  -7    0.80    3.16
   3 -12   7   -1.40    4.15
   3 -12  -8    4.30    3.31
  -3 -12  -8    3.97    2.94
   3 -12   8    2.70    1.04
  -3 -12   8    3.04    4.02
   3 -12  -9    3.03    4.02
  -3 -12  -9   -0.01    2.34
  -3 -12   9    1.93    3.67
   3 -12   9   -2.45    5.31
  -3 -12 -10    0.56    2.28
   3 -12 -10    1.16    0.85
   3 -12  10    0.48    2.08
  -3 -12  10    2.17    3.32
   3 -12 -11   -0.99    1.80
  -3 -12 -11   -0.14    2.13
  -3 -12  11    0.16    2.39
   3 -12 -12    0.59    3.13
  -3 -12 -12    1.23    1.98
  -3 -12  12    0.90    2.79
  -3 -12 -13   -1.56    1.32
   3 -12 -13    2.49    3.97
  -3 -12  13    0.25    3.12
  -3 -12 -14    0.98    2.89
   3 -12 -14    2.52    3.29
   3 -12 -15    2.34    3.72
  -3 -12 -15    0.52    1.79
   3 -12 -16    7.28    7.16
  -3 -12 -16    4.46    2.90
   3 -12 -17    3.72    5.64
  -3 -12 -17   -2.03    5.84
   3 -12 -18    0.65    4.00
  -3 -12 -18    0.78    2.78
   3 -12 -19   -0.18    1.88
  -3 -12 -19    1.19    4.73
  -3 -12 -20    0.60    0.37
  -3 -12 -21    0.85    2.30
   4 -12   0  114.51   23.22
  -4 -12   0  121.11   22.45
  -4 -12  -1    1.63    3.08
  -4 -12   1   -0.10    1.52
   4 -12  -1    0.26    1.59
   4 -12   1    2.07    5.61
  -4 -12  -2   11.20    6.69
  -4 -12   2   15.37    8.10
   4 -12  -2   14.76    8.29
   4 -12   2   16.37    9.50
  -4 -12  -3    4.02    4.72
   4 -12   3    5.73    6.00
   4 -12  -3    1.99    2.61
  -4 -12   3    3.52    4.02
  -4 -12  -4    1.11    1.83
   4 -12  -4   -0.85    3.38
   4 -12   4    2.71    5.53
  -4 -12   4   -2.89    4.72
  -4 -12   5    1.75    1.66
   4 -12   5    2.47    3.79
   4 -12  -5    0.20    2.64
  -4 -12  -6   11.73    7.41
  -4 -12   6   10.80    6.47
   4 -12  -6   11.80    7.34
   4 -12   6   10.35    7.09
  -4 -12  -7   -1.54    3.84
   4 -12   7    0.62    2.33
  -4 -12   7   -0.55    2.37
   4 -12  -7    2.69    3.49
   4 -12  -8   55.54   16.79
  -4 -12  -8   52.99   16.20
   4 -12   8   53.11   17.28
  -4 -12   8   61.93   16.65
  -4 -12  -9    2.86    4.27
   4 -12   9    3.35    4.88
   4 -12  -9    1.39    1.05
  -4 -12   9    1.27    1.77
  -4 -12 -10    3.04    3.05
  -4 -12  10    3.04    4.65
   4 -12  10    0.05    2.32
   4 -12 -10    0.02    1.37
  -4 -12 -11    1.50    4.95
  -4 -12  11   -0.71    2.97
   4 -12 -11   -0.02    2.32
   4 -12 -12    1.35    4.26
  -4 -12 -12    1.37    2.60
  -4 -12  12    2.58    2.77
  -4 -12 -13   -1.49    1.88
   4 -12 -13    2.33    4.05
  -4 -12  13   -1.62    4.12
  -4 -12 -14    0.15    3.12
   4 -12 -14    3.76    4.12
  -4 -12 -15   -1.88    3.95
   4 -12 -15    0.02    2.06
  -4 -12  15    2.41    2.77
  -4 -12 -16    4.89    5.16
   4 -12 -16   10.19    8.41
  -4 -12 -17   -0.94    2.51
   4 -12 -17    2.63    3.25
  -4 -12 -18   15.00   10.52
   4 -12 -18   12.35    9.21
  -4 -12 -19    2.38    4.00
  -4 -12 -20    4.18    6.94
  -5 -12   0  137.43   24.61
   5 -12   0  153.76   27.42
  -5 -12   1   10.33    6.56
  -5 -12  -1    9.42    6.01
   5 -12  -1    9.58    6.17
   5 -12   1   14.38    9.59
  -5 -12  -2    3.50    3.15
  -5 -12   2    1.48    1.67
   5 -12   2    0.41    3.00
   5 -12  -2   -0.41    2.10
  -5 -12  -3    0.66    2.94
   5 -12   3    3.39    4.86
   5 -12  -3   -1.00    3.31
  -5 -12   3   -0.24    2.20
  -5 -12  -4   17.78    8.80
   5 -12  -4   16.63    8.52
   5 -12   4   19.47    9.92
  -5 -12   4   17.97    8.75
  -5 -12  -5    0.12    3.36
   5 -12  -5   -1.08    2.92
   5 -12   5   -0.59    2.83
  -5 -12   5   -1.72    3.23
  -5 -12  -6   14.30    8.30
   5 -12  -6   13.63    8.34
  -5 -12   6   16.67    8.53
   5 -12   6    9.79    6.79
  -5 -12  -7    9.56    6.77
   5 -12  -7    9.28    6.39
  -5 -12   7    6.37    4.66
   5 -12   7    9.86    7.26
  -5 -12  -8    0.32    2.01
   5 -12   8    1.94    2.69
  -5 -12   8   -0.88    1.01
   5 -12  -8   -0.52    2.20
  -5 -12  -9    6.38    5.74
   5 -12   9    9.33    7.85
  -5 -12   9    9.52    7.11
   5 -12  -9    6.42    6.05
  -5 -12 -10    8.81    6.46
  -5 -12  10   15.77    8.80
   5 -12 -10   13.67    9.00
  -5 -12 -11    2.19    5.65
  -5 -12  11    4.60    4.37
  -5 -12  11    1.23    1.12
   5 -12 -11    3.79    5.83
  -5 -12 -12    8.40    6.76
  -5 -12  12    3.47    3.17
  -5 -12  12    8.25    6.29
   5 -12 -12    5.58    4.75
  -5 -12 -13    2.41    4.90
  -5 -12  13    0.84    6.09
   5 -12 -13    0.15    3.11
  -5 -12  13    1.44    3.13
  -5 -12 -14    1.80    1.20
  -5 -12  14    6.75    6.01
   5 -12 -14    1.47    4.10
  -5 -12 -15   -2.05    5.81
  -5 -12  15    2.49    4.40
   5 -12 -15    1.67    1.58
  -5 -12 -16   -0.90    3.73
  -5 -12  16    3.43    4.99
   5 -12 -16    2.78    5.36
  -5 -12 -17    6.68    7.41
   5 -12 -17    6.33    6.42
  -5 -12 -18    3.51    5.19
  -5 -12 -19    5.96    8.28
   5  12  19  -12.83   13.24
  -5 -12 -20    5.30    7.03
  -6 -12   0    7.74    6.12
   6 -12   0    8.82    7.92
  -6 -12   1    5.50    5.17
  -6 -12  -1    7.44    5.74
   6 -12   1    5.57    5.62
   6 -12  -1    3.51    3.46
  -6 -12  -2   80.46   18.84
  -6 -12   2   75.96   18.00
   6 -12   2   69.72   19.73
   6 -12  -2   73.61   18.99
  -6 -12   3   10.08    6.27
  -6 -12  -3   10.64    6.81
   6 -12  -3    7.88    5.32
   6 -12   3   10.21    8.05
  -6 -12   4   27.15   11.00
  -6 -12  -4   31.82   12.23
   6 -12  -4   27.27   11.04
   6 -12   4   30.58   13.15
  -6 -12  -5    3.30    2.75
   6 -12   5    1.96    1.92
   6 -12  -5    1.88    1.64
  -6 -12   5    1.48    2.24
  -6 -12   6   32.22   11.14
  -6 -12  -6   33.26   12.59
   6 -12  -6   28.82   11.36
   6 -12   6   37.74   14.90
  -6 -12  -7    2.35    3.48
   6 -12  -7    2.79    2.67
  -6 -12   7    2.21    2.86
   6 -12   7    1.48    3.53
   6 -12  -8   36.12   12.96
  -6 -12   8   36.75   12.47
  -6 -12  -8   41.61   14.49
   6 -12   8   37.98   15.71
  -6 -12  -9    1.52    3.98
  -6 -12   9    3.44    2.28
   6 -12  -9    7.94    7.19
  -6 -12   9    4.89    5.70
  -6 -12 -10   36.27   14.45
  -6 -12  10   27.63   10.66
   6 -12 -10   28.65   11.96
  -6 -12  10   36.63   12.82
  -6 -12 -11    3.69    4.90
  -6 -12  11    5.75    6.81
  -6 -12  11    2.87    4.17
   6 -12 -11    1.16    3.94
  -6 -12 -12   -1.83    1.94
  -6 -12  12    2.14    3.60
   6 -12 -12   -1.77    0.59
  -6 -12 -13    1.52    2.89
  -6 -12  13    4.56    5.86
   6 -12 -13   -0.40    0.82
  -6 -12  13   -1.21    4.10
  -6 -12 -14    5.65    5.08
  -6 -12  14   13.38    9.78
   6 -12 -14    7.71    6.23
  -6 -12 -15    3.67    4.20
  -6 -12  15    4.43    5.93
   6 -12 -15    2.21    3.15
  -6 -12 -16   10.64    7.93
  -6 -12  16   13.67    9.19
   6 -12 -16   10.33    7.57
  -6 -12 -17    0.93    4.45
   6 -12 -17    2.77    5.75
  -6 -12 -18    7.11    7.78
  -6 -12 -19    0.62    3.27
   6  12  19   -8.22   14.81
  -7 -12   0    2.34    3.78
   7 -12   0    4.45    7.04
  -7 -12  -1   31.36   11.56
  -7 -12   1   28.45   10.87
   7 -12   1   32.32   13.07
   7 -12  -1   33.25   13.52
  -7 -12   2   10.22    6.02
  -7 -12  -2   15.10    8.22
   7 -12   2   13.29    8.88
   7 -12  -2    9.22    7.31
  -7 -12  -3    0.30    1.29
  -7 -12   3    1.12    1.22
   7 -12   3   -1.10    4.29
   7 -12  -3    0.57    1.72
  -7 -12  -4   -1.03    3.81
  -7 -12   4    3.69    4.46
   7 -12   4    0.06    1.34
   7 -12  -4    3.86    4.44
  -7 -12  -5    4.44    4.96
   7 -12  -5    0.93    1.97
  -7 -12   5    3.33    4.28
   7 -12   5    1.81    3.25
  -7 -12  -6   10.54    6.92
   7 -12   6    5.59    5.60
   7 -12  -6    7.92    5.90
  -7 -12   6    9.55    6.56
  -7 -12  -7   13.65    8.44
  -7 -12   7   15.57    7.53
   7 -12  -7    8.75    5.81
   7 -12   7   12.79    8.17
  -7 -12   8   27.94   10.83
  -7 -12  -8   19.34   10.29
  -7 -12   8   25.71   11.13
   7 -12  -8   20.74   10.39
  -7 -12  -9   21.93   11.05
  -7 -12   9   22.48   10.19
   7 -12  -9   22.30   10.93
  -7 -12   9   21.67    9.40
  -7 -12 -10    1.47    4.56
  -7 -12  10    5.00    6.27
   7 -12 -10   -0.03    2.11
  -7 -12  10    3.06    4.09
  -7 -12 -11    1.80    5.38
  -7 -12  11    8.91    7.11
   7 -12 -11    3.27    4.43
  -7 -12  11    1.77    4.82
  -7 -12 -12    4.38    4.50
  -7 -12  12   11.68    8.77
   7 -12 -12    3.45    4.54
  -7 -12  12    4.03    5.25
  -7 -12 -13    3.16    5.54
  -7 -12  13    4.02    7.98
   7 -12 -13   -0.55    2.01
  -7 -12 -14    1.89    3.31
  -7 -12  14   11.34    8.02
   7 -12 -14    1.41    2.65
  -7 -12 -15    0.42    2.87
  -7 -12  15   13.02    9.55
   7 -12 -15    6.79    5.87
  -7 -12 -16   11.10    9.49
  -7 -12  16   20.72   11.68
   7 -12 -16    6.48    4.88
  -7 -12 -17    8.31    8.54
  -7 -12  17   24.53   12.05
  -7 -12 -18    4.73    7.62
   7  12  18   -9.74   11.25
   7  12  19   -8.29   10.52
  -8 -12   0   11.68    6.72
   8 -12   0   13.44    8.86
  -8 -12   1   10.09    6.54
  -8 -12  -1    8.03    5.17
   8 -12  -1   11.60    8.27
   8 -12   1   14.60    8.71
  -8 -12  -2   -0.02    1.52
  -8 -12   2   -0.63    3.40
   8 -12   2   -0.70    1.30
   8 -12  -2    2.63    4.29
  -8 -12   3    2.70    2.19
  -8 -12  -3    0.95    1.56
   8 -12  -3   -0.38    2.49
   8 -12   3   -2.73    5.74
  -8 -12   4   19.34    8.35
  -8 -12  -4   18.38    9.36
   8 -12   4   18.50    9.52
   8 -12  -4   13.49    7.54
  -8 -12  -5    2.75    2.26
   8 -12   5    3.33    3.14
  -8 -12   5    2.93    1.30
   8 -12  -5    5.66    5.51
  -8 -12  -6   10.38    7.44
  -8 -12   6   11.45    6.36
   8 -12   6   13.53    8.84
   8 -12  -6   11.56    7.76
  -8 -12  -7    7.42    6.92
  -8 -12   7   13.10    7.70
   8 -12  -7    6.07    5.15
  -8 -12   7   11.35    6.57
  -8 -12  -8   -1.74    3.54
  -8 -12   8    0.65    0.90
  -8 -12   8    0.23    1.76
   8 -12  -8    2.48    3.08
  -8 -12  -9    0.49    1.19
  -8 -12   9    1.04    3.01
  -8 -12   9    1.16    2.74
   8 -12  -9   -0.81    2.31
  -8 -12 -10   -0.28    4.37
  -8 -12  10    3.51    7.21
   8 -12 -10    3.08    3.66
  -8 -12  10    3.05    3.56
  -8 -12 -11   -1.85    4.50
  -8 -12  11   -2.36    3.74
   8 -12 -11   -0.11    2.11
  -8 -12 -12    6.51    6.30
  -8 -12  12   11.55    9.51
   8 -12 -12    2.83    3.67
  -8 -12 -13    0.58    3.46
   8 -12 -13   -0.06    3.23
  -8 -12 -14   -0.51    4.85
   8 -12 -14   -1.25    3.75
  -8 -12 -15    0.55    2.32
   8 -12 -15   -0.39    3.55
  -8 -12 -16   -0.39    2.09
  -8 -12  16   25.69   13.84
  -8 -12 -17    2.01    4.41
   8  12  17  -11.26   11.51
  -8 -12 -18    7.50    8.48
   8  12  18   -7.82   10.16
   8  12  19   -4.61    7.18
  -9 -12   0    5.48    4.51
   9 -12   0    4.67    4.01
  -9 -12   1   15.93    8.06
  -9 -12  -1   15.20    7.88
   9 -12   1   12.32    8.05
   9 -12  -1   10.08    6.82
  -9 -12   2   -1.38    4.25
  -9 -12  -2   -1.36    4.66
   9 -12  -2    1.99    4.20
   9 -12   2   -4.34    7.09
  -9 -12  -3   -1.28    3.60
  -9 -12   3   -1.08    3.87
   9 -12  -3    0.82    4.45
   9 -12   3   -6.64    6.23
  -9 -12  -4    2.62    3.47
  -9 -12   4    0.99    1.21
   9 -12  -4    0.84    2.26
  -9 -12   5    3.68    3.30
  -9 -12  -5    2.74    3.28
   9 -12  -5    3.60    2.64
   9 -12   5   -0.83    4.69
  -9 -12  -6    2.69    3.00
  -9 -12   6    2.86    4.81
  -9 -12   6    5.40    4.32
   9 -12  -6    5.64    5.74
  -9 -12  -7   21.50   11.02
  -9 -12   7   20.10   10.31
   9 -12  -7   19.30    9.85
  -9 -12   7   17.85    8.62
  -9 -12  -8    2.11    3.11
  -9 -12   8    6.23    6.61
  -9 -12   8    0.59    2.27
   9 -12  -8    2.57    4.77
  -9 -12  -9    8.19    6.67
  -9 -12   9   12.17    9.44
  -9 -12   9   12.47    7.13
   9 -12  -9   10.77    7.63
  -9 -12 -10    3.62    4.22
  -9 -12  10    5.25    6.57
  -9 -12  10    0.94    2.88
   9 -12 -10    0.08    1.97
  -9 -12 -11    0.85    0.85
  -9 -12  11    5.15    8.99
   9 -12 -11    0.29    1.93
  -9 -12 -12    5.68    4.83
  -9 -12  12   22.98   13.22
   9 -12 -12    7.17    6.62
  -9 -12  13   19.29   12.06
   9 -12 -13    4.36    5.33
  -9 -12  14   19.97   12.44
   9 -12 -14    2.13    2.21
  -9 -12  15   20.40   12.79
   9  12  16   -9.43   11.27
  -9 -12  16   25.42   15.27
   9  12  17    0.94    6.72
  -9 -12  17   22.46   12.94
  -9 -12  18   29.50   15.49
   9  12  18   -3.01    8.53
   9  12  19    6.34    6.73
 -10 -12   0    0.25    1.82
  10 -12   0   -0.10    2.86
 -10 -12   1    1.29    2.16
 -10 -12  -1   -0.78    4.39
  10 -12  -1    2.65    1.24
  10 -12   1    1.53    2.71
 -10 -12   2   -0.31    2.76
 -10 -12  -2   -0.66    1.17
  10 -12   2   -0.03    4.39
  10 -12  -2    0.78    2.64
 -10 -12  -3    7.07    5.71
 -10 -12   3    5.04    3.44
  10 -12  -3    5.68    6.24
  10 -12   3    5.67    4.76
 -10 -12   4    0.82    1.43
 -10 -12  -4   -0.11    3.34
  10 -12  -4   -3.72    5.49
  10 -12   4    1.44    3.62
 -10 -12   5    2.47    3.47
 -10 -12  -5   -1.00    3.12
 -10 -12   5   -1.91    5.96
  10 -12  -5    3.37    4.79
 -10 -12  -6    0.37    1.28
 -10 -12   6    0.30    1.25
 -10 -12   6    0.20    2.16
  10 -12  -6    1.21    4.61
 -10 -12  -7   -0.82    3.21
 -10 -12   7    2.44    4.54
  10 -12  -7    1.10    3.50
 -10 -12   7    1.00    1.46
 -10 -12  -8    2.40    3.68
 -10 -12   8    8.23    7.26
  10 -12  -8    3.93    5.68
 -10 -12   8    2.07    3.09
 -10 -12  -9    1.20    2.78
 -10 -12   9    2.54    3.33
 -10 -12   9    1.44    1.82
  10 -12  -9    1.20    3.44
 -10 -12  10   19.00   11.90
  10 -12 -10    3.18    5.46
 -10 -12  11   11.23    9.87
  10 -12 -11    0.72    2.60
 -10 -12  12    6.99   10.56
  10 -12 -12    1.15    3.88
 -10 -12  13   23.82   13.38
  10 -12 -13    0.42    1.35
 -10 -12  14   18.47   12.57
  10 -12 -14    5.00    6.21
  10  12  15   -7.45   12.44
 -10 -12  15   26.42   16.13
  10  12  16   -6.32    9.35
 -10 -12  16   22.91   14.95
 -10 -12  17   29.61   15.66
  10  12  17   -7.49    8.28
 -10 -12  18   26.78   15.35
  10  12  18   -4.72    8.47
  10  12  19    0.51    5.20
 -11 -12   0    1.28    1.50
  11 -12   0    3.02    4.70
 -11 -12  -1   -2.55    3.81
 -11 -12   1    1.40    2.56
  11 -12   1   -1.72    2.77
  11 -12  -1    0.36    2.97
 -11 -12   2    3.67    3.95
 -11 -12  -2    0.15    2.40
  11 -12  -2    4.08    5.64
  11 -12   2    0.17    5.86
 -11 -12  -3   21.93   10.96
 -11 -12   3   19.31    8.85
  11 -12   3   13.67    8.48
  11 -12  -3   19.08   10.91
 -11 -12  -4    2.73    4.65
 -11 -12   4    3.60    3.44
 -11 -12   4    1.70    2.63
  11 -12  -4    0.25    2.92
 -11 -12  -5   15.62    9.42
 -11 -12   5   14.73    8.14
 -11 -12   5    7.70    7.12
  11 -12  -5   14.10    9.71
 -11 -12  -6    1.98    5.36
 -11 -12   6    3.25    4.45
 -11 -12   6    2.38    7.47
  11 -12  -6   -1.13    1.48
 -11 -12  -7    0.78    2.50
 -11 -12   7    1.74    5.00
  11 -12  -7    2.68    4.70
 -11 -12   7    1.31    2.16
 -11 -12  -8    3.40    6.03
 -11 -12   8    5.13    5.95
  11 -12  -8   -0.45    3.44
 -11 -12   8    0.74    2.60
 -11 -12   9    0.36    1.61
  11 -12  -9    0.74    1.53
 -11 -12  10   12.62   11.38
  11 -12 -10    0.22    1.45
 -11 -12  11   17.68   12.70
  11 -12 -11    4.44    6.37
 -11 -12  12   25.75   13.83
  11 -12 -12    9.68    8.03
  11  12  13   -9.12   11.49
  11 -12 -13    1.79    2.79
  11  12  14   -6.62   11.44
 -11 -12  14   25.27   14.86
  11  12  15   -7.46   10.12
 -11 -12  15   20.92   14.54
 -11 -12  16   30.54   17.35
 -11 -12  17   25.12   14.67
 -11 -12  18   28.94   15.84
 -12 -12   0    4.08    4.09
  12 -12   0    4.81    5.20
 -12 -12  -1    1.69    4.15
 -12 -12   1   -0.99    3.11
  12 -12  -1    0.73    1.44
  12 -12   1   -2.15    4.51
 -12 -12   2    2.33    3.23
 -12 -12  -2    0.34    3.47
  12 -12  -2    1.70    3.10
 -12 -12   3    2.04    2.93
 -12 -12  -3    1.06    2.50
  12 -12  -3    0.20    3.08
 -12 -12  -4    7.17    6.52
 -12 -12   4    0.84    3.35
 -12 -12   4    9.15    8.55
  12 -12  -4    2.40    1.74
 -12 -12  -5    7.02    6.30
 -12 -12   5   15.51    8.21
 -12 -12   5    9.31    8.62
  12 -12  -5   18.30   11.34
 -12 -12  -6    0.25    2.98
 -12 -12   6    2.49    3.85
 -12 -12   6    2.09    4.38
  12 -12  -6    1.57    4.49
 -12 -12   7    6.53    8.94
 -12 -12   7   -1.10    2.78
  12 -12  -7    1.39    2.80
 -12 -12   8    7.60    9.44
  12 -12  -8    1.35    2.69
 -12 -12   8    1.29    3.21
 -12 -12   9   20.27   13.03
  12 -12  -9   -0.90    3.92
 -12 -12  10   12.77   11.59
  12 -12 -10    0.37    0.92
 -12 -12  11   30.36   14.70
  12 -12 -11    6.83    6.47
 -12 -12  12   20.01   13.35
  12 -12 -12    2.26    3.77
 -12 -12  13    9.05   11.17
 -12 -12  14   21.32   14.25
 -12 -12  15   23.47   14.75
 -12 -12  16   30.22   16.79
 -12 -12  17   28.92   15.90
 -13 -12   0    1.18    2.49
 -13 -12  -1    0.87    2.51
 -13 -12   1    0.10    1.34
  13 -12  -1    2.73    2.65
 -13 -12  -2    0.53    2.33
 -13 -12   2    0.65    1.75
  13 -12  -2    1.83    4.73
 -13 -12   3   12.77    7.91
 -13 -12  -3   14.57    9.48
 -13 -12   3   15.90   11.37
  13 -12  -3   10.84    7.57
 -13 -12  -4    3.37    5.16
 -13 -12   4    0.29    3.47
 -13 -12   4    2.12    4.82
  13 -12  -4   -1.19    5.51
 -13 -12   5   46.31   14.12
 -13 -12  -5   42.42   16.05
 -13 -12   5   42.24   16.30
  13 -12  -5   39.84   16.34
 -13 -12   6    1.16    3.09
 -13 -12   6    8.08    9.11
  13 -12  -6   -3.04    4.75
 -13 -12   7    7.24    6.03
 -13 -12   7   13.90    9.85
  13 -12  -7    4.15    5.49
 -13 -12   8   14.43   11.11
  13 -12  -8    6.08    7.62
 -13 -12   9   16.39   11.85
  13 -12  -9    3.12    5.49
 -13 -12  10   25.38   14.29
  13 -12 -10    3.06    4.69
 -13 -12  11   24.21   14.35
  13 -12 -11    3.24    6.71
 -13 -12  12   24.95   15.16
 -13 -12  13   28.75   15.38
 -13 -12  14   20.26   15.54
 -13 -12  15   27.85   16.28
 -13 -12  16   38.89   19.86
 -14 -12   0   -0.20    3.02
 -14 -12  -1    1.41    0.79
 -14 -12   1   -2.77    4.56
 -14 -12  -2   -0.32    1.93
 -14 -12   2    1.93    3.07
 -14 -12   3   -0.94    2.41
 -14 -12  -3    2.30    5.32
 -14 -12   3    3.12    5.82
  14 -12  -3   -1.20    5.51
 -14 -12  -4    0.33    2.05
 -14 -12   4    2.11    1.75
 -14 -12   4    2.03    5.47
  14 -12  -4   -1.73    4.73
 -14 -12  -5   -2.35    3.14
 -14 -12   5   -3.48    5.01
 -14 -12   5    4.29    5.54
  14 -12  -5    0.30    2.53
 -14 -12   6    2.57    4.21
 -14 -12   6    3.25    6.01
  14 -12  -6    3.43    4.67
 -14 -12   7   10.96   10.01
  14 -12  -7    6.09    7.51
 -14 -12   8   28.47   15.58
  14 -12  -8    2.29    4.01
 -14 -12   9   24.25   15.62
  14 -12  -9   -2.01    3.89
 -14 -12  10   22.76   15.14
  14 -12 -10   -0.27    2.27
 -14 -12  11   22.98   14.93
 -14 -12  12   29.10   15.97
 -14 -12  13   18.39   14.08
 -14 -12  14   27.04   15.86
 -15 -12   0    4.78    4.75
 -15 -12  -1   -4.07    5.36
 -15 -12   1   -0.25    1.80
 -15 -12  -2    0.98    3.41
 -15 -12   2   -1.71    3.91
 -15 -12   2   -6.32    8.80
 -15 -12  -3    2.14    5.23
 -15 -12   3    3.74    3.76
 -15 -12   3    7.74    8.92
 -15 -12  -4   -2.53    4.85
 -15 -12   4   -0.19    0.98
 -15 -12   4    6.13    6.91
 -15 -12   5   29.66   11.00
 -15 -12   5   35.51   17.62
 -15 -12   6    1.39    4.36
 -15 -12   7   20.00   13.03
  15 -12  -7   -0.98    2.86
 -15 -12   8   19.08   12.65
  15 -12  -8   -0.48    3.40
 -15 -12   9   15.03   11.74
  15 -12  -9    0.27    2.48
 -15 -12  10   17.42   12.62
 -15 -12  11   22.13   15.26
 -15 -12  12   20.86   16.14
 -16 -12   0   -1.90    4.79
 -16 -12  -1    0.18    3.89
 -16 -12   1   -0.12    1.51
 -16 -12  -2    0.95    2.55
 -16 -12   2    1.78    1.67
 -16 -12   2    0.51    7.55
 -16 -12  -3    5.79    5.65
 -16 -12   3    1.05    0.90
 -16 -12   3   -4.31    6.15
 -16 -12  -4    4.50    5.50
 -16 -12   4   -1.93    4.55
 -16 -12   4    1.35    7.69
 -16 -12   5    7.89    8.95
 -16 -12   6    2.69    8.22
 -16 -12   7    8.66   10.21
 -16 -12   8   24.75   14.74
 -16 -12   9   19.91   14.09
 -16 -12  10   29.59   16.73
 -17 -12   0    1.24    3.14
 -17 -12  -1   10.67    7.83
 -17 -12   1   11.12    8.11
 -17 -12  -2    4.50    6.69
 -17 -12   2    1.77    2.95
 -17 -12   2    6.34    6.75
 -17 -12  -3    4.34    6.55
 -17 -12   3    7.65    6.22
 -17 -12   3    3.99    6.76
 -17 -12   4    8.77    7.90
 -17 -12   5    5.90    9.18
 -17 -12   6    7.30   11.01
 -17 -12   7   31.00   17.39
 -18 -12   0    1.88    4.52
 -18 -12  -1    2.11    5.67
 -18 -12   1    3.12    5.79
 -18 -12  -2    1.29    4.81
 -18 -12   2   -2.36    4.52
 -18 -12   2    8.45    8.39
 -18 -12  -3    5.81    6.00
 -18 -12   3   10.48   10.63
 -18 -12   4    7.20    8.49
 -19 -12   0    0.32    1.66
 -19 -12  -1    8.18    7.77
 -19 -12   1    6.26    5.83
 -19 -12  -2   -0.04    1.99
 -19 -12  -3   18.78   11.72
 -20 -12   0    1.80    3.57
 -20 -12  -1    2.91    3.53
 -20 -12  -2   -2.41    5.38
 -20 -12  -3   -0.06    2.76
 -21 -12  -2   -0.15    6.05
   0 -13   0    2.07    2.95
   0 -13   1   98.28   22.03
   0 -13  -1  105.54   22.81
   0 -13   2   -0.74    3.03
   0 -13  -2    2.54    3.36
   0 -13   3  170.30   28.64
   0 -13  -3  167.02   28.24
   0 -13  -4    3.12    5.20
   0 -13   4    3.04    4.99
   0 -13  -5  178.45   29.67
   0 -13   5  176.61   30.61
   0 -13  -6    4.03    5.74
   0 -13   6    1.45    6.76
   0 -13  -7   47.06   15.73
   0 -13   7   48.01   16.19
   0 -13  -8   -0.97    3.10
   0 -13   8   -2.48    1.53
   0 -13  -9   35.76   13.45
   0 -13   9   39.79   15.03
   0 -13 -10   -2.53    4.61
   0 -13  10   -0.52    1.80
   0 -13 -11   25.14   11.24
   0 -13  11   32.81   14.03
   0 -13 -12    4.42    5.72
   0 -13  12    1.64    3.89
   0 -13 -13   12.41    8.75
   0 -13 -14    3.20    4.97
   0 -13 -15    0.47    0.25
   0 -13 -16   -0.61    4.93
   0 -13 -17    1.79    0.50
   0 -13 -18    0.46    3.60
   0 -13 -19   -0.20    3.89
   0 -13 -20   -0.89    2.46
   1 -13   0   -1.36    3.81
  -1 -13   0    1.19    2.51
  -1 -13   1   31.67   12.26
   1 -13  -1   33.86   12.65
   1 -13   1   29.22   11.75
  -1 -13  -1   26.92   11.44
  -1 -13   2    5.74    5.15
   1 -13   2    7.82    5.85
  -1 -13  -2    8.03    6.32
   1 -13  -2    4.83    5.00
   1 -13  -3  102.41   22.52
  -1 -13   3   98.88   22.09
  -1 -13  -3  100.41   22.07
   1 -13   3  102.77   22.55
  -1 -13  -4    6.71    6.69
  -1 -13   4    7.28    5.31
   1 -13   4   10.79    7.44
   1 -13  -4   12.92    8.31
  -1 -13   5  168.58   28.50
  -1 -13  -5  170.96   28.67
   1 -13  -5  167.00   28.66
   1 -13   5  174.15   30.09
  -1 -13  -6    6.27    6.95
   1 -13  -6    8.22    8.20
   1 -13   6    6.65    7.57
  -1 -13   6    6.93    6.34
  -1 -13  -7   57.10   16.57
   1 -13  -7   57.79   17.05
   1 -13   7   55.98   18.10
  -1 -13   7   62.35   17.74
   1 -13  -8   -1.11    2.67
  -1 -13  -8   -1.21    3.61
  -1 -13   8   -0.92    1.93
   1 -13   8    0.06    1.52
  -1 -13  -9    3.78    3.24
   1 -13  -9    3.04    3.45
   1 -13   9    2.75    2.33
  -1 -13   9    2.70    4.55
   1 -13 -10   -1.91    4.31
  -1 -13 -10    0.56    3.28
   1 -13  10   -1.20    3.43
  -1 -13  10   -0.01    1.58
   1 -13 -11   16.92    9.30
  -1 -13 -11   15.21    9.13
   1 -13  11   16.43   10.39
  -1 -13  11   17.23    9.92
   1 -13 -12   -3.18    5.70
  -1 -13 -12    0.22    0.48
  -1 -13  12    0.28    2.76
   1 -13  12   -1.49    2.29
  -1 -13 -13   43.06   15.83
   1 -13 -13   46.66   16.54
  -1 -13  13   41.89   16.58
  -1 -13 -14    0.38    3.46
   1 -13 -14   -1.49    4.19
  -1 -13 -15   21.45   11.76
   1 -13 -15   19.45   10.69
  -1 -13 -16   -2.12    4.55
   1 -13 -16   -0.60    1.80
  -1 -13 -17   -0.92    3.23
   1 -13 -17   -0.18    3.25
  -1 -13 -18    2.32    3.92
   1 -13 -18   -0.98    3.08
  -1 -13 -19   -3.09    3.38
   1 -13 -19   -0.78    2.02
  -1 -13 -20   -2.93    3.36
   1 -13 -20    3.77    5.60
   2 -13   0    0.92    3.72
  -2 -13   0   -0.56    3.45
  -2 -13  -1    9.66    6.90
   2 -13  -1   10.24    6.33
   2 -13   1    6.67    4.89
  -2 -13   1    8.82    6.25
  -2 -13  -2   -0.03    0.39
   2 -13  -2   -2.32    5.79
   2 -13   2   -0.70    3.54
  -2 -13   2   -0.22    1.96
  -2 -13  -3   20.71   10.52
   2 -13  -3   19.49    9.39
  -2 -13   3   23.59    9.94
   2 -13   3   23.04   11.11
  -2 -13  -4    3.38    5.30
  -2 -13   4   -1.26    2.72
   2 -13   4    1.39    4.25
   2 -13  -4   -1.37    2.11
   2 -13  -5   53.29   16.24
  -2 -13  -5   52.28   16.11
  -2 -13   5   56.13   16.19
   2 -13   5   55.72   17.83
  -2 -13  -6    0.77    3.12
   2 -13   6    1.53    2.12
  -2 -13   6   -0.68    3.21
   2 -13  -6    1.74    4.14
  -2 -13  -7    5.09    5.21
   2 -13   7    4.75    5.14
   2 -13  -7    7.09    6.97
  -2 -13   7    6.41    6.14
  -2 -13  -8   -0.54    3.26
   2 -13  -8    4.67    5.00
  -2 -13   8    2.65    3.99
   2 -13   8   -0.50    3.14
  -2 -13  -9   -1.25    4.55
   2 -13  -9   -1.19    0.28
   2 -13   9    1.51    3.52
  -2 -13   9    2.14    3.40
  -2 -13 -10   -0.48    3.39
   2 -13 -10   -1.31    3.39
   2 -13  10   -1.72    5.33
  -2 -13  10   -1.33    3.85
  -2 -13 -11   32.28   12.82
   2 -13 -11   26.55   12.10
  -2 -13  11   20.03   10.04
   2 -13  11   24.73   12.00
  -2 -13 -12    5.77    6.32
   2 -13 -12    2.34    4.55
  -2 -13  12    0.16    1.64
  -2 -13 -13   11.94    8.65
   2 -13 -13    9.44    7.80
  -2 -13  13   10.78    8.82
   2 -13 -14    4.28    5.82
  -2 -13 -14    1.67    3.82
   2 -13 -15   10.61    8.36
  -2 -13 -15    8.43    7.75
   2 -13 -16    1.06    2.79
  -2 -13 -16    2.17    2.69
   2 -13 -17    4.45    5.84
  -2 -13 -17    4.51    5.52
   2 -13 -18    2.89    5.03
  -2 -13 -18   -2.26    3.82
   2 -13 -19    8.46    7.56
  -2 -13 -19    7.87    7.15
  -2 -13 -20   -0.77    2.76
  -3 -13   0   -0.51    1.73
   3 -13   0   -0.32    2.63
  -3 -13  -1    0.75    2.90
   3 -13  -1   -1.99    4.68
   3 -13   1   -1.17    3.63
  -3 -13   1   -0.79    1.91
  -3 -13  -2    0.05    2.64
   3 -13  -2   -2.70    6.03
  -3 -13   2   -1.11    3.29
   3 -13   2    2.07    4.30
  -3 -13  -3    7.31    5.48
   3 -13  -3    6.28    4.19
   3 -13   3    8.94    8.19
  -3 -13   3    4.80    3.70
  -3 -13  -4    4.96    5.17
   3 -13   4    2.43    4.98
  -3 -13   4    1.29    1.78
   3 -13  -4    2.18    3.12
  -3 -13  -5    5.26    5.92
  -3 -13   5    5.47    3.26
   3 -13   5    5.44    6.57
   3 -13  -5    4.36    4.65
  -3 -13  -6    1.24    1.38
  -3 -13   6    1.88    3.61
   3 -13   6    0.05    1.14
   3 -13  -6    0.02    2.58
  -3 -13  -7    1.11    2.07
   3 -13   7   -3.48    5.06
  -3 -13   7    0.71    3.46
   3 -13  -7    0.48    3.47
  -3 -13  -8    0.57    1.71
   3 -13   8    0.93    3.60
   3 -13  -8    2.31    4.54
  -3 -13   8    2.42    3.52
  -3 -13  -9    4.83    4.77
  -3 -13   9    5.21    5.66
   3 -13  -9    7.41    7.02
   3 -13   9    8.98    7.23
   3 -13 -10   -2.41    4.49
  -3 -13 -10   -1.53    2.07
  -3 -13  10    1.27    2.83
   3 -13  10   -1.73    2.07
   3 -13 -11    1.10    2.99
  -3 -13 -11    1.86    2.26
   3 -13  11    6.96    8.07
  -3 -13  11    0.03    2.89
   3 -13 -12   -1.45    4.25
  -3 -13 -12   -1.90    4.22
  -3 -13  12   -0.89    3.38
   3 -13 -13   17.06   10.07
  -3 -13 -13   15.33    9.24
  -3 -13  13   17.08    9.58
   3 -13 -14    0.27    2.08
  -3 -13 -14   -0.57    1.32
   3 -13 -15    3.84    5.50
  -3 -13 -15   -0.20    0.92
   3 -13 -16    2.77    4.64
  -3 -13 -16    1.16    2.95
   3 -13 -17    0.44    4.92
  -3 -13 -17   -0.25    3.18
   3 -13 -18    0.65    2.25
  -3 -13 -18    2.64    4.16
  -3 -13 -19    2.41    3.87
  -3 -13 -20    1.45    3.41
  -4 -13   0    9.27    6.69
   4 -13   0    8.41    5.19
  -4 -13  -1   42.15   14.10
  -4 -13   1   39.96   13.40
   4 -13  -1   36.79   13.25
   4 -13   1   45.69   15.78
  -4 -13  -2   12.47    7.71
   4 -13  -2    6.58    5.28
  -4 -13   2   11.94    7.22
   4 -13   2   14.20    9.08
  -4 -13  -3    2.34    3.72
   4 -13   3    3.87    5.16
   4 -13  -3   -3.75    7.18
  -4 -13   3    0.99    2.15
  -4 -13  -4    1.74    2.86
   4 -13  -4    0.35    5.25
   4 -13   4    1.72    2.42
  -4 -13   4    2.18    2.74
  -4 -13  -5    5.25    5.46
   4 -13  -5    0.45    1.89
  -4 -13   5    2.20    3.05
   4 -13   5    3.85    4.19
  -4 -13  -6    6.48    5.54
   4 -13   6    7.41    6.28
  -4 -13   6    5.30    4.47
   4 -13  -6    3.42    3.52
  -4 -13  -7   61.19   18.16
   4 -13  -7   65.75   18.35
  -4 -13   7   66.57   17.38
   4 -13   7   73.41   20.98
  -4 -13  -8   10.41    7.64
   4 -13   8    6.82    5.97
  -4 -13   8   14.99    9.09
   4 -13  -8   10.14    7.05
  -4 -13  -9   23.68   11.77
   4 -13   9   25.47   12.76
   4 -13  -9   26.46   12.38
  -4 -13   9   23.14   11.17
  -4 -13 -10    2.12    3.31
  -4 -13  10    2.67    4.07
   4 -13 -10    1.37    3.46
   4 -13  10    6.41    6.97
  -4 -13 -11    0.25    1.98
   4 -13 -11   -0.08    0.81
  -4 -13  11    4.20    5.15
  -4 -13 -12    0.23    1.55
  -4 -13  12    2.68    2.86
   4 -13 -12    0.48    0.50
  -4 -13 -13    0.20    0.25
  -4 -13  13   -0.93    1.70
   4 -13 -13   -0.53    2.91
   4 -13 -14    2.03    4.89
  -4 -13 -14    0.76    0.77
  -4 -13  14    1.33    3.44
  -4 -13 -15    4.02    4.59
   4 -13 -15    6.07    6.10
   4 -13 -16    4.53    6.74
  -4 -13 -16    8.62    7.33
   4 -13 -17    2.40    3.58
  -4 -13 -17    6.45    7.82
   4 -13 -18    1.50    2.07
  -4 -13 -18    5.98    6.99
  -4 -13 -19    0.82    2.90
  -5 -13   0   44.70   14.54
   5 -13   0   43.15   15.64
  -5 -13  -1   77.97   19.38
  -5 -13   1   77.39   19.10
   5 -13  -1   77.61   20.57
   5 -13   1   70.89   20.36
  -5 -13   2   17.42    8.56
  -5 -13  -2   16.15    8.82
   5 -13   2   17.67   10.92
   5 -13  -2   15.89    8.46
  -5 -13  -3   15.19    8.61
   5 -13   3   16.29    9.89
   5 -13  -3   11.80    7.11
  -5 -13   3   12.93    7.90
  -5 -13  -4   12.64    8.15
   5 -13  -4   15.58    7.75
   5 -13   4   13.22    8.31
  -5 -13   4   11.75    7.26
  -5 -13  -5    9.47    6.40
  -5 -13   5    6.46    4.23
   5 -13  -5    6.46    5.33
   5 -13   5   10.16    7.72
  -5 -13  -6    9.16    6.48
   5 -13   6   10.76    8.37
   5 -13  -6    8.24    5.62
  -5 -13   6   11.84    6.67
   5 -13  -7   38.36   14.19
  -5 -13   7   39.48   13.44
  -5 -13  -7   40.31   14.61
   5 -13   7   35.84   15.00
  -5 -13  -8   13.84    9.07
   5 -13  -8   10.56    7.32
   5 -13   8   13.86    8.94
  -5 -13   8   11.31    7.33
   5 -13  -9   53.99   16.97
  -5 -13  -9   56.86   18.01
   5 -13   9   52.52   18.88
  -5 -13   9   57.17   16.65
  -5 -13 -10   11.07    8.64
  -5 -13  10   12.19    8.58
   5 -13 -10   12.32    8.56
  -5 -13 -11   11.17    8.85
  -5 -13  11    6.06    5.35
   5 -13 -11    9.25    7.25
  -5 -13 -12    2.65    4.87
   5 -13 -12   -0.14    4.35
  -5 -13  12    2.30    3.31
  -5 -13 -13   -0.06    0.41
  -5 -13  13    1.96    1.76
   5 -13 -13    1.48    1.71
  -5 -13 -14    0.62    2.84
   5 -13 -14    3.24    5.13
  -5 -13 -15    1.56    0.43
   5 -13 -15    5.85    5.83
  -5 -13 -16    2.90    5.87
   5 -13 -16    6.11    6.48
  -5 -13 -17    6.76    6.87
   5 -13 -17   10.44    9.28
  -5 -13 -18    1.31    4.39
  -6 -13   0   47.01   15.08
   6 -13   0   43.48   16.31
  -6 -13  -1   58.41   16.83
  -6 -13   1   64.79   17.03
   6 -13   1   67.39   20.45
   6 -13  -1   62.15   19.07
  -6 -13  -2   33.18   12.91
  -6 -13   2   36.25   12.98
   6 -13   2   35.13   14.68
   6 -13  -2   36.94   14.85
  -6 -13  -3   73.67   18.95
  -6 -13   3   67.55   17.63
   6 -13   3   74.92   20.96
   6 -13  -3   74.18   19.49
  -6 -13  -4   25.88   11.68
  -6 -13   4   26.96   11.01
   6 -13  -4   21.14   10.16
   6 -13   4   24.04   12.09
  -6 -13  -5   26.84   11.20
   6 -13   5   28.97   13.54
   6 -13  -5   25.80   11.74
  -6 -13   5   24.69   10.57
  -6 -13  -6   27.76   12.03
  -6 -13   6   24.46   10.97
   6 -13  -6   24.31   11.60
   6 -13   6   25.70   12.76
  -6 -13  -7   31.20   12.99
  -6 -13   7   34.16   12.41
   6 -13   7   33.86   15.28
   6 -13  -7   32.49   13.30
  -6 -13  -8   22.33   11.45
   6 -13   8   32.48   15.69
   6 -13  -8   32.73   13.07
  -6 -13   8   24.00   10.80
  -6 -13  -9   30.98   13.61
   6 -13  -9   27.79   12.83
   6 -13   9   33.46   15.36
  -6 -13   9   34.70   12.89
  -6 -13 -10   19.51   11.40
  -6 -13  10   19.16    9.72
   6 -13 -10   20.74   10.88
  -6 -13 -11    4.25    6.08
   6 -13 -11    2.84    4.05
  -6 -13  11    6.01    5.52
  -6 -13 -12    2.17    4.32
  -6 -13  12    0.41    1.07
   6 -13 -12    0.23    2.87
  -6 -13 -13    2.94    1.87
   6 -13 -13    1.43    2.27
  -6 -13 -14    3.60    4.53
  -6 -13  14    4.53    2.71
   6 -13 -14    3.59    4.98
  -6 -13 -15   10.80    9.16
  -6 -13  15    7.88    6.81
   6 -13 -15   10.41    8.50
  -6 -13 -16    9.17   10.41
   6 -13 -16    4.20    5.79
  -6 -13 -17    5.47    6.34
  -6 -13 -18    5.67    6.94
  -7 -13   0   38.13   13.78
   7 -13   0   48.82   17.12
  -7 -13  -1  102.66   22.04
  -7 -13   1  100.54   21.49
   7 -13   1  111.87   25.61
   7 -13  -1  103.38   24.67
  -7 -13  -2   36.02   13.42
  -7 -13   2   32.64   12.16
   7 -13   2   34.03   14.30
   7 -13  -2   28.80   13.19
  -7 -13  -3   21.34   10.07
  -7 -13   3   21.72   10.04
   7 -13   3   21.16   10.91
   7 -13  -3   23.61   11.71
  -7 -13  -4    7.00    6.13
   7 -13   4    3.78    3.33
  -7 -13   4    8.03    5.52
   7 -13  -4    8.21    5.67
  -7 -13  -5   16.81    9.47
   7 -13   5   14.98    9.39
   7 -13  -5   14.06    8.09
  -7 -13   5   19.69    9.46
  -7 -13  -6   21.47   11.25
   7 -13   6   21.66   12.52
   7 -13  -6   20.43   10.20
  -7 -13   6   23.57   10.29
  -7 -13   7   36.00   12.44
  -7 -13  -7   39.71   14.87
   7 -13   7   32.41   14.65
   7 -13  -7   31.23   13.23
  -7 -13   8   36.72   12.80
  -7 -13  -8   38.89   15.60
   7 -13  -8   32.33   13.16
   7 -13   8   37.53   16.32
  -7 -13  -9   23.54   12.15
   7 -13  -9   20.78   11.30
  -7 -13   9   20.99    9.93
  -7 -13 -10    8.85    7.49
   7 -13 -10   11.93    8.06
  -7 -13  10   16.81    9.62
  -7 -13 -11    0.59    2.44
   7 -13 -11    4.47    4.90
  -7 -13  11    2.82    5.58
  -7 -13 -12    2.76    2.90
  -7 -13  12   -1.92    5.69
   7 -13 -12    8.40    7.62
  -7 -13 -13    3.53    3.92
  -7 -13  13    0.39    4.63
   7 -13 -13    2.49    4.53
  -7 -13 -14   -1.48    3.05
  -7 -13  14    8.30    6.76
   7 -13 -14    3.94    4.35
  -7 -13 -15    6.36    7.00
  -7 -13  15   10.81    9.66
   7 -13 -15    6.78    5.96
  -7 -13 -16   10.69    8.75
  -7 -13  16   15.84    9.90
   7 -13 -16    6.37    6.66
  -7 -13 -17    9.49    9.07
   7  13  18   -9.10   12.75
  -8 -13   0    8.36    6.55
   8 -13   0   10.30    8.32
  -8 -13  -1    9.50    6.99
  -8 -13   1   12.43    7.07
   8 -13  -1    9.64    8.25
   8 -13   1   15.04    9.34
  -8 -13  -2    1.87    2.09
  -8 -13   2    8.54    6.51
   8 -13  -2    6.29    6.60
   8 -13   2    6.19    5.79
  -8 -13   3    2.20    2.87
  -8 -13  -3    1.29    1.69
   8 -13  -3    3.59    4.53
   8 -13   3    1.33    2.01
  -8 -13   4    3.35    1.61
  -8 -13  -4    3.61    3.95
   8 -13   4    1.83    2.52
   8 -13  -4    3.52    5.78
  -8 -13  -5    7.01    5.63
  -8 -13   5    9.65    6.21
   8 -13   5    9.65    8.00
   8 -13  -5   10.66    8.07
  -8 -13  -6    5.12    5.07
   8 -13   6    5.45    5.68
   8 -13  -6    2.57    3.70
  -8 -13   6    0.14    2.71
  -8 -13  -7    6.54    6.95
  -8 -13   7    5.33    4.83
   8 -13  -7    4.26    5.37
   8 -13   7    6.59    7.21
  -8 -13  -8   11.80    8.10
  -8 -13   8   14.17    7.81
   8 -13  -8   10.39    7.91
  -8 -13  -9    1.34    1.19
  -8 -13   9    0.03    2.27
   8 -13  -9    1.68    1.96
  -8 -13 -10    9.14    8.41
  -8 -13  10   11.52    7.38
   8 -13 -10    8.42    7.14
  -8 -13  10    7.26    6.57
  -8 -13 -11    0.26    2.84
  -8 -13  11    1.87    5.18
  -8 -13  11    1.56    3.50
   8 -13 -11   -1.27    4.40
  -8 -13 -12   -0.69    4.24
  -8 -13  12    3.73    5.10
   8 -13 -12   -1.12    2.93
  -8 -13 -13    3.38    6.24
  -8 -13  13    7.22    6.92
   8 -13 -13   -1.65    4.26
  -8 -13 -14    2.50    5.24
  -8 -13  14    3.86    7.59
   8 -13 -14   -1.62    2.86
  -8 -13 -15    5.78    7.45
  -8 -13  15   15.69   10.37
   8 -13 -15   -1.97    6.70
  -8 -13 -16    6.72    8.36
  -8 -13  16    9.48    8.35
   8  13  18   -9.52   12.64
  -9 -13   0    7.52    5.95
   9 -13   0    8.49    6.70
  -9 -13  -1    4.25    4.02
  -9 -13   1    3.60    3.29
   9 -13   1   -1.31    4.68
   9 -13  -1    3.47    4.90
  -9 -13  -2    0.49    2.97
  -9 -13   2    1.73    1.63
   9 -13   2    2.52    0.98
   9 -13  -2    3.47    4.68
  -9 -13   3   -0.69    1.93
  -9 -13  -3   -2.30    5.11
   9 -13  -3    2.84    3.51
   9 -13   3   -2.92    6.58
  -9 -13   4   -0.60    3.14
  -9 -13  -4    0.56    2.25
   9 -13  -4   -0.04    1.62
   9 -13   4   -6.59    7.83
  -9 -13  -5    3.04    4.40
   9 -13  -5   -0.14    0.53
   9 -13   5   -1.26    3.80
  -9 -13   5    0.17    1.39
  -9 -13  -6   -0.91    1.11
   9 -13   6   -2.47    5.60
  -9 -13   6    0.42    1.24
   9 -13  -6    1.39    4.59
  -9 -13  -7    5.52    4.69
   9 -13  -7    7.09    6.81
  -9 -13   7    5.22    3.85
  -9 -13  -8    1.51    4.49
  -9 -13   8    1.26    4.08
  -9 -13   8    0.61    2.26
   9 -13  -8   -0.15    2.19
  -9 -13  -9    2.21    2.97
  -9 -13   9    8.40    6.84
  -9 -13   9    3.27    2.02
   9 -13  -9    4.58    5.61
  -9 -13 -10    0.31    3.29
  -9 -13  10    9.77    8.92
  -9 -13  10    1.71    1.32
   9 -13 -10    0.64    2.74
  -9 -13 -11    0.44    2.24
  -9 -13  11    4.86    5.46
   9 -13 -11   -1.67    2.82
  -9 -13 -12    4.47    4.84
  -9 -13  12    5.51    8.31
   9 -13 -12    1.28    1.96
  -9 -13 -13    3.80    5.97
  -9 -13  13   -0.20    1.92
   9 -13 -13   -0.97    5.55
  -9 -13 -14    3.78    7.85
  -9 -13  14    7.16    9.35
   9 -13 -14    3.57    5.64
  -9 -13 -15    7.79    8.85
  -9 -13  15    9.58    8.41
  -9 -13  16   10.25   10.37
   9  13  17   -3.82    9.82
  -9 -13  17    7.68    9.48
   9  13  18   -3.21    4.89
 -10 -13   0    4.26    5.46
  10 -13   0    3.17    4.99
 -10 -13   1   19.82    9.44
 -10 -13  -1   13.24    8.36
  10 -13  -1   18.16   10.55
  10 -13   1   15.98   10.05
 -10 -13   2    8.58    6.26
 -10 -13  -2    7.59    5.96
  10 -13   2   10.14    7.87
  10 -13  -2    7.02    6.27
 -10 -13   3   12.88    6.69
 -10 -13  -3   14.58    8.81
  10 -13   3    8.18    6.01
  10 -13  -3   14.45    9.21
 -10 -13  -4   12.61    8.03
 -10 -13   4   16.35    8.35
  10 -13  -4   10.91    8.27
  10 -13   4   13.32    9.85
 -10 -13  -5    8.15    7.37
 -10 -13   5    7.41    6.10
  10 -13  -5    4.05    5.92
 -10 -13  -6   12.20    9.18
  10 -13  -6   10.55    7.98
 -10 -13   6   12.10    7.32
 -10 -13  -7    8.69    7.73
 -10 -13   7    7.64    6.82
  10 -13  -7    7.59    6.30
 -10 -13   7    6.19    4.70
 -10 -13  -8    6.85    6.25
 -10 -13   8    9.93    7.51
 -10 -13   8    7.98    5.55
  10 -13  -8    7.31    6.84
 -10 -13  -9    1.23    2.79
 -10 -13   9    5.32    4.72
 -10 -13   9   -2.95    5.91
  10 -13  -9   -0.76    1.22
 -10 -13 -10    4.68    6.69
 -10 -13  10    8.70    7.72
  10 -13 -10    5.97    5.27
 -10 -13 -11    0.69    4.50
 -10 -13  11   -0.09    2.57
  10 -13 -11   -0.50    3.27
 -10 -13 -12   11.53    8.90
 -10 -13  12   15.58   12.07
  10 -13 -12    8.09    8.32
 -10 -13 -13    7.83    9.56
 -10 -13  13    4.66    5.98
  10 -13 -13    2.90    3.47
 -10 -13 -14   10.28   10.14
 -10 -13  14   10.46    8.33
  10 -13 -14    7.66    8.43
  10  13  15  -15.50   13.31
 -10 -13  15   11.08   11.14
  10  13  16  -11.72   10.97
 -10 -13  16   20.34   14.74
  10  13  17   -4.94    5.67
 -10 -13  17    7.50   10.46
 -11 -13   0   29.05   12.01
  11 -13   0   26.38   13.40
 -11 -13   1    6.64    6.28
 -11 -13  -1    7.31    5.86
  11 -13   1   10.38    8.38
  11 -13  -1    9.30    7.27
 -11 -13   2   16.95    8.89
 -11 -13  -2   24.11   11.01
  11 -13  -2   20.47   11.83
  11 -13   2   17.44   11.65
 -11 -13  -3   11.18    8.52
 -11 -13   3   13.56    8.22
  11 -13  -3   12.45    9.68
  11 -13   3   13.72    9.65
 -11 -13   4   42.55   14.36
 -11 -13  -4   47.33   16.96
  11 -13  -4   46.28   17.37
 -11 -13  -5   15.47    9.86
 -11 -13   5   18.04    9.66
  11 -13  -5   17.13   11.72
 -11 -13  -6   31.18   14.55
 -11 -13   6   33.57   12.39
 -11 -13   6   20.94   11.20
  11 -13  -6   27.77   13.87
 -11 -13  -7    3.41    5.78
 -11 -13   7   10.67    8.63
  11 -13  -7   -0.92    1.39
 -11 -13   7    3.23    5.36
 -11 -13  -8   12.85    8.84
 -11 -13   8   16.12    9.74
 -11 -13   8   16.80    8.73
  11 -13  -8   12.56    9.70
 -11 -13  -9    2.65    5.03
 -11 -13   9    7.66    8.02
  11 -13  -9    3.95    5.57
 -11 -13 -10   16.64   10.71
 -11 -13  10   19.47   11.08
  11 -13 -10   19.22   10.49
 -11 -13 -11    7.36    7.73
 -11 -13  11   19.74   11.63
  11 -13 -11    4.55    7.55
 -11 -13 -12    4.24    7.54
 -11 -13  12    3.72    8.23
  11 -13 -12    2.82    4.32
 -11 -13 -13    6.58    7.83
 -11 -13  13   12.92   12.27
  11 -13 -13    3.11    5.73
 -11 -13  14   22.69   14.93
 -11 -13  15   16.40   12.20
 -11 -13  16   29.42   17.25
 -11 -13  17   18.98   13.23
 -12 -13   0   34.05   13.54
  12 -13   0   33.36   15.36
 -12 -13   1   -0.10    3.21
 -12 -13  -1   -0.43    2.08
  12 -13  -1    2.34    4.78
  12 -13   1    2.45    1.00
 -12 -13   2   32.39   12.43
 -12 -13  -2   36.31   14.71
  12 -13   2   37.88   16.55
  12 -13  -2   35.28   16.27
 -12 -13  -3   10.04    7.60
 -12 -13   3   15.23    9.12
  12 -13  -3   11.41    8.88
 -12 -13   4   60.67   16.96
 -12 -13  -4   61.42   19.25
  12 -13  -4   56.71   19.50
 -12 -13  -5    8.33    8.10
 -12 -13   5    7.49    7.21
  12 -13  -5    5.72    6.75
 -12 -13   6   42.01   13.98
 -12 -13  -6   44.57   17.29
 -12 -13   6   43.73   17.31
  12 -13  -6   42.58   17.23
 -12 -13  -7    4.80    7.12
 -12 -13   7    9.60    9.53
 -12 -13   7    2.44    4.19
  12 -13  -7   -0.41    1.79
 -12 -13  -8   22.06   12.34
 -12 -13   8   19.60   11.78
  12 -13  -8   13.14    9.68
 -12 -13  -9    3.67    5.49
 -12 -13   9    9.35   10.09
  12 -13  -9    1.76    1.86
 -12 -13 -10    6.29    7.20
 -12 -13  10   18.69   11.98
  12 -13 -10    6.87    7.48
 -12 -13 -11    4.56    7.23
 -12 -13  11    0.40    5.29
  12 -13 -11    3.72    5.86
 -12 -13 -12   23.72   14.31
 -12 -13  12   39.56   18.16
  12 -13 -12   17.13   10.88
 -12 -13  13   26.38   14.03
 -12 -13  14   25.02   16.60
 -12 -13  15   24.77   14.96
 -12 -13  16   33.97   18.25
 -13 -13   0   42.83   15.26
  13 -13   0   41.79   17.32
 -13 -13  -1   10.69    8.34
 -13 -13   1    6.60    5.65
  13 -13  -1   11.62    9.61
 -13 -13   2   39.69   14.58
 -13 -13  -2   41.87   15.78
  13 -13  -2   33.11   15.71
 -13 -13  -3   21.61   11.29
 -13 -13   3   17.75    9.62
  13 -13  -3   11.73    8.38
 -13 -13   4   37.62   13.63
 -13 -13  -4   35.46   14.71
  13 -13  -4   32.19   15.40
 -13 -13  -5    4.80    6.13
 -13 -13   5    7.99    6.49
 -13 -13   5    6.46    5.93
  13 -13  -5    8.86    8.50
 -13 -13  -6   39.62   16.35
 -13 -13   6   45.23   14.60
 -13 -13   6   38.22   16.79
  13 -13  -6   42.37   17.25
 -13 -13  -7   11.58    9.02
 -13 -13   7   16.52   12.87
  13 -13  -7   17.41   11.34
 -13 -13  -8    2.59    4.39
 -13 -13   8    4.10    5.76
  13 -13  -8    5.29    4.28
 -13 -13  -9    9.33    8.99
 -13 -13   9   19.64   13.08
  13 -13  -9    6.97    6.80
 -13 -13 -10    8.93    8.90
 -13 -13  10   14.65    9.36
  13 -13 -10    7.25    7.43
 -13 -13  11   11.32   10.98
  13 -13 -11    3.15    3.45
 -13 -13  12   27.41   14.64
 -13 -13  13   41.95   18.81
 -13 -13  14   35.76   18.12
 -14 -13   0    4.08    4.01
 -14 -13  -1   -0.97    2.31
 -14 -13   1   -0.66    4.04
 -14 -13   2    6.24    6.01
 -14 -13  -2   11.05    8.43
  14 -13  -2    8.77    7.97
 -14 -13   3    1.20    1.80
 -14 -13  -3   -1.77    2.42
  14 -13  -3   -1.97    7.09
 -14 -13  -4   13.86    8.60
 -14 -13   4   14.58    8.29
  14 -13  -4   17.83   10.93
 -14 -13  -5    3.45    5.45
 -14 -13   5    1.64    2.77
 -14 -13   5    3.57    3.27
  14 -13  -5    2.72    6.54
 -14 -13  -6    4.75    3.38
 -14 -13   6   12.95    8.46
  14 -13  -6   11.16    9.42
 -14 -13  -7   -1.28    3.76
  14 -13  -7   -0.54    0.95
 -14 -13  -8    0.67    3.13
 -14 -13   8    7.36    9.19
  14 -13  -8    0.44    4.19
 -14 -13  -9    7.80    9.18
 -14 -13   9    6.79    9.76
  14 -13  -9   -0.30    1.71
 -14 -13  10    6.45    8.72
  14 -13 -10   -0.56    2.96
 -14 -13  11   25.17   14.14
 -14 -13  12   15.27   12.35
 -15 -13   0   -0.54    4.27
 -15 -13  -1    1.20    3.32
 -15 -13   1    2.07    1.46
 -15 -13  -2   -1.23    4.34
 -15 -13   2    0.53    3.47
 -15 -13   3    2.69    3.06
 -15 -13  -3   -1.43    1.97
 -15 -13  -4    0.07    2.76
 -15 -13   4    0.90    3.22
 -15 -13   4   -2.22    4.23
 -15 -13   5    2.22    2.69
 -15 -13  -5    6.21    6.76
 -15 -13   5    7.68    8.16
 -15 -13  -6    1.08    1.92
 -15 -13   6    5.59    8.41
  15 -13  -6    0.90    1.38
 -15 -13  -7    2.23    5.79
 -15 -13   7    4.90    7.94
  15 -13  -7   -4.42    8.45
 -15 -13  -8    6.63    8.43
 -15 -13   8   10.53    9.88
  15 -13  -8    0.29    4.41
 -15 -13   9    0.67    5.97
  15 -13  -9   -3.61    7.60
 -15 -13  10   12.35   11.14
 -16 -13   0   24.15   12.00
 -16 -13  -1    0.28    3.29
 -16 -13   1   -2.36    4.16
 -16 -13  -2    8.59    7.87
 -16 -13   2    7.40    6.62
 -16 -13   3    2.77    8.00
 -16 -13  -3    1.25    3.26
 -16 -13  -4    6.69    7.37
 -16 -13   4    6.36    6.48
 -16 -13   4    5.79    8.27
 -16 -13  -5   -0.34    0.40
 -16 -13   5   -3.37    2.30
 -16 -13  -6   14.98   10.65
 -16 -13   6   18.41   11.80
 -16 -13  -7    5.82    7.92
 -16 -13   7    3.92    4.72
 -17 -13   0   30.42   14.10
 -17 -13  -1    6.60    7.59
 -17 -13   1    3.02    6.12
 -17 -13  -2   26.93   13.89
 -17 -13   2   28.05   12.41
 -17 -13  -3    8.06    8.35
 -17 -13  -4   14.70   10.73
 -17 -13  -5    2.61    7.63
 -17 -13  -6   15.65   12.11
 -18 -13   0   37.28   15.77
 -18 -13  -1    3.57    5.38
 -18 -13   1   10.56    9.78
 -18 -13  -2   34.85   15.91
 -18 -13  -3    7.18    7.34
 -18 -13  -4    9.19   10.14
 -18 -13  -5    6.01    7.14
 -19 -13   0   13.65    9.65
 -19 -13  -1   -2.02    1.19
 -19 -13  -2   18.48   12.69
 -19 -13  -3    1.11    4.45
 -20 -13  -1    2.38    4.77
 -20 -13  -2    1.95    3.52
   0 -14   0   20.39   10.17
   0 -14   1    0.10    1.69
   0 -14  -1   -0.02    1.84
   0 -14  -2   54.05   17.76
   0 -14   2   50.12   16.59
   0 -14   3    0.43    1.99
   0 -14  -3   -0.21    0.15
   0 -14  -4  108.40   24.16
   0 -14   4   96.89   23.11
   0 -14  -5    0.91    2.97
   0 -14   5    3.68    6.03
   0 -14  -6   10.22    7.87
   0 -14   6   15.31   10.21
   0 -14  -7    1.74    4.78
   0 -14   7    2.16    1.70
   0 -14  -8   12.12    8.06
   0 -14   8   11.56    8.66
   0 -14  -9    0.64    4.15
   0 -14   9   -2.68    3.60
   0 -14 -10    1.03    1.93
   0 -14  10    2.96    4.40
   0 -14 -11    0.94    4.17
   0 -14  11    1.50    4.96
   0 -14 -12   26.41   13.35
   0 -14  12   26.69   13.11
   0 -14 -13    4.21    6.28
   0 -14 -14   21.97   12.59
   0 -14 -15    1.11    3.32
   0 -14 -16   -2.90    4.84
   0 -14 -17   -3.61    4.84
   0 -14 -18    3.57    3.02
   0 -14 -19   -0.80    2.47
   1 -14   0   67.08   18.60
  -1 -14   0   61.98   17.82
  -1 -14   1    0.23    1.67
   1 -14  -1   -0.74    1.73
   1 -14   1    0.54    2.58
  -1 -14  -1    2.30    4.75
  -1 -14   2  159.44   29.35
   1 -14   2  161.83   29.37
   1 -14  -2  159.37   28.67
  -1 -14  -2  151.26   28.35
  -1 -14   3   -0.77    1.47
   1 -14   3    2.17    5.65
  -1 -14  -3    1.10    4.77
   1 -14  -3    2.70    4.20
   1 -14  -4  188.26   31.77
  -1 -14  -4  187.17   31.60
  -1 -14   4  182.50   31.08
   1 -14   4  187.79   32.61
  -1 -14  -5   -0.95    1.17
  -1 -14   5   -3.63    3.79
   1 -14  -5    2.16    4.47
   1 -14   5    2.04    5.37
  -1 -14  -6  118.69   25.38
   1 -14  -6  125.34   25.88
  -1 -14   6  124.44   26.29
   1 -14   6  121.73   26.32
   1 -14  -7    0.13    3.33
  -1 -14  -7    1.58    5.18
   1 -14   7    0.25    4.12
  -1 -14   7    1.11    4.18
   1 -14  -8   21.65   11.29
  -1 -14  -8   23.37   11.16
  -1 -14   8   23.48   11.56
   1 -14   8   17.14    9.77
   1 -14  -9   -1.53    2.52
  -1 -14  -9   -0.10    2.48
  -1 -14   9    3.56    4.86
   1 -14   9    0.65    2.06
   1 -14 -10   19.53   10.70
  -1 -14 -10   19.34   11.03
   1 -14  10   17.28   10.31
  -1 -14  10   13.97    8.62
   1 -14 -11    1.40    3.38
  -1 -14 -11    4.66    6.80
   1 -14  11    5.50    5.86
  -1 -14  11    3.78    5.63
  -1 -14 -12   60.28   19.03
   1 -14 -12   63.05   19.81
   1 -14  12   57.31   19.79
  -1 -14  12   60.59   19.99
   1 -14 -13    5.28    6.57
  -1 -14 -13    2.14    7.34
  -1 -14  13    4.05    6.00
   1 -14 -14   33.56   14.58
  -1 -14 -14   37.58   15.30
   1 -14 -15    2.35    4.67
  -1 -14 -15   -0.96    1.64
   1 -14 -16   -1.85    2.79
  -1 -14 -16    0.49    0.43
   1 -14 -17   -1.60    5.78
  -1 -14 -17   -2.74    6.51
   1 -14 -18    1.64    3.94
  -1 -14 -18   -0.30    4.04
   1 -14 -19   -0.62    1.90
  -1 -14 -19    3.58    5.20
   2 -14   0   -0.45    3.97
  -2 -14   0    3.47    2.38
   2 -14  -1   -1.08    5.69
   2 -14   1   -0.05    3.01
  -2 -14  -1    0.72    0.39
  -2 -14   1   -1.38    5.02
  -2 -14  -2   25.87   12.48
  -2 -14   2   28.22   11.42
   2 -14  -2   28.78   11.96
   2 -14   2   22.79   10.71
  -2 -14  -3    2.48    3.14
  -2 -14   3    4.05    4.73
   2 -14   3    5.36    6.12
   2 -14  -3    1.27    2.47
  -2 -14  -4   33.11   13.45
  -2 -14   4   38.04   13.45
   2 -14   4   35.46   14.53
   2 -14  -4   32.67   13.11
  -2 -14  -5    1.44    3.54
   2 -14   5    3.01    4.05
   2 -14  -5    2.29    2.19
  -2 -14   5    3.20    3.73
  -2 -14  -6   15.73    9.47
   2 -14  -6    7.92    6.95
   2 -14   6   14.15    9.27
  -2 -14   6   10.37    7.81
  -2 -14  -7   -2.33    5.25
   2 -14   7    0.85    2.38
   2 -14  -7    0.13    1.99
  -2 -14   7    0.75    3.68
  -2 -14  -8   -1.10    3.83
  -2 -14   8    0.34    4.16
   2 -14  -8   -3.80    5.21
   2 -14   8    1.16    3.75
  -2 -14  -9   -0.07    0.94
   2 -14  -9   -1.73    3.11
   2 -14   9    0.11    2.27
  -2 -14   9    0.25    1.53
  -2 -14 -10    1.68    3.87
   2 -14 -10    7.39    7.15
  -2 -14  10    1.45    0.91
   2 -14  10    6.22    7.20
  -2 -14 -11    3.39    6.18
   2 -14 -11    1.54    3.52
  -2 -14  11    1.40    3.36
   2 -14  11   -1.66    4.91
  -2 -14 -12   10.67    9.07
   2 -14 -12    7.73    7.61
  -2 -14  12    5.17    3.49
  -2 -14 -13    0.73    4.39
   2 -14 -13    0.14    4.30
  -2 -14  13    2.19    4.01
   2 -14 -14    1.38    5.09
  -2 -14 -14    2.53    5.40
  -2 -14 -15    3.13    4.50
   2 -14 -15    2.13    5.36
  -2 -14 -16   -4.14    5.52
   2 -14 -16    2.54    4.62
  -2 -14 -17   -2.34    5.05
   2 -14 -17    4.17    6.54
  -2 -14 -18    0.03    0.72
   2 -14 -18    1.78    4.58
   2 -14 -19    4.36    5.61
   3 -14   0    3.81    2.93
  -3 -14   0    7.75    5.53
  -3 -14  -1    8.56    6.35
   3 -14  -1    2.60    1.39
   3 -14   1    7.82    6.04
  -3 -14   1    5.22    1.74
  -3 -14  -2    1.31    3.70
   3 -14  -2   -2.51    5.48
   3 -14   2    5.62    7.10
  -3 -14   2   -2.03    4.53
  -3 -14  -3    5.11    4.93
  -3 -14   3    0.40    4.21
   3 -14  -3    1.26    3.96
   3 -14   3    4.96    5.42
  -3 -14  -4    9.66    7.54
   3 -14  -4    3.46    2.85
   3 -14   4    9.38    7.48
  -3 -14   4    1.31    1.62
  -3 -14  -5    3.70    4.77
   3 -14   5    1.67    2.76
  -3 -14   5    2.48    2.71
   3 -14  -5    1.12    2.85
  -3 -14  -6   -1.75    4.80
  -3 -14   6    0.19    2.95
   3 -14   6    0.29    3.81
   3 -14  -6    0.64    1.39
  -3 -14  -7   -0.53    3.94
  -3 -14   7    6.39    6.05
   3 -14   7    4.43    4.28
   3 -14  -7    6.80    4.88
  -3 -14  -8   -1.00    3.03
   3 -14   8   -1.61    4.53
   3 -14  -8   -2.05    4.64
  -3 -14   8    0.70    4.15
  -3 -14  -9    2.57    4.69
  -3 -14   9    3.08    3.21
   3 -14   9   11.08    9.29
   3 -14  -9    1.72    3.47
  -3 -14 -10    6.62    6.50
   3 -14  10   11.75    9.65
  -3 -14  10    6.84    6.14
   3 -14 -10    6.22    4.76
  -3 -14 -11    3.38    5.84
   3 -14  11    6.85    7.68
   3 -14 -11    2.03    3.61
  -3 -14  11    0.94    1.69
  -3 -14 -12   -0.25    0.70
  -3 -14  12    0.83    0.27
   3 -14 -12    3.24    3.67
  -3 -14 -13    2.73    5.44
   3 -14 -13    2.05    3.71
  -3 -14  13    0.03    2.88
  -3 -14 -14   -1.89    3.15
   3 -14 -14    1.56    4.47
  -3 -14  14   -1.79    3.49
  -3 -14 -15    0.73    3.62
   3 -14 -15   -1.87    3.65
   3 -14 -16    2.68    3.76
  -3 -14 -16    0.45    2.15
   3 -14 -17    2.19    5.60
  -3 -14 -17   -0.16    2.24
   3 -14 -18    5.58    4.63
  -3 -14 -18    6.62    6.40
  -4 -14   0   16.95    9.58
   4 -14   0   12.62    8.63
  -4 -14  -1   12.58    8.60
   4 -14  -1    5.94    3.84
   4 -14   1   11.18    8.98
  -4 -14   1    8.17    5.90
  -4 -14  -2   12.99    8.67
   4 -14  -2   13.25    6.95
  -4 -14   2   12.55    7.48
   4 -14   2   15.10   10.09
  -4 -14  -3   -0.18    1.79
   4 -14   3    1.80    2.61
   4 -14  -3   -2.33    6.08
  -4 -14   3   -1.65    5.26
  -4 -14  -4    3.71    4.73
  -4 -14   4    1.11    0.69
   4 -14  -4    1.88    1.10
   4 -14   4    2.92    4.30
  -4 -14  -5   -2.95    6.33
   4 -14  -5    1.51    2.58
  -4 -14   5   -1.56    3.74
   4 -14   5    2.02    4.26
  -4 -14  -6   -1.68    4.66
   4 -14  -6    4.95    6.43
  -4 -14   6   -0.18    1.34
   4 -14   6    0.57    2.86
  -4 -14  -7    3.61    4.58
   4 -14   7    5.92    6.55
  -4 -14   7    7.88    5.89
   4 -14  -7    6.06    6.63
  -4 -14  -8    2.93    4.60
   4 -14   8    1.84    5.09
  -4 -14   8    2.51    2.50
   4 -14  -8   -0.45    1.58
  -4 -14  -9    9.49    7.45
  -4 -14   9    4.19    5.21
   4 -14   9    9.38    8.50
   4 -14  -9    8.49    5.48
  -4 -14 -10    5.87    6.22
  -4 -14  10    0.68    1.51
   4 -14  10    8.46    8.81
   4 -14 -10    6.15    5.89
  -4 -14 -11   -0.34    2.78
  -4 -14  11   -2.01    5.11
   4 -14 -11   -0.12    1.55
  -4 -14 -12    2.07    4.90
  -4 -14  12    0.98    2.97
   4 -14 -12    4.41    4.73
  -4 -14 -13    0.02    1.78
   4 -14 -13    1.15    3.14
  -4 -14  13    3.91    5.22
  -4 -14 -14    0.50    3.76
   4 -14 -14    0.66    3.48
  -4 -14 -15   -1.77    3.51
   4 -14 -15    3.40    5.59
  -4 -14 -16    2.98    5.05
   4 -14 -16    7.11    7.00
  -4 -14 -17    1.29    2.00
   4 -14 -17    5.53    6.87
   4 -14 -18    2.18    4.77
  -5 -14   0  163.04   29.11
   5 -14   0  160.59   30.79
  -5 -14   1   13.62    8.78
  -5 -14  -1   17.63    9.54
   5 -14  -1   22.55   11.54
   5 -14   1   23.27   12.79
  -5 -14  -2  102.79   23.45
  -5 -14   2  113.04   23.80
   5 -14  -2   99.38   23.89
   5 -14   2  103.35   25.12
  -5 -14  -3    9.38    7.01
   5 -14   3    9.38    8.41
   5 -14  -3   10.29    7.43
  -5 -14   3    7.85    5.69
  -5 -14  -4   82.67   21.05
   5 -14  -4   76.00   20.95
  -5 -14   4   73.17   18.92
   5 -14   4   82.91   22.63
  -5 -14  -5    3.76    3.69
  -5 -14   5    3.97    3.49
   5 -14  -5    5.58    5.81
   5 -14   5    1.90    3.22
  -5 -14  -6   50.34   16.94
   5 -14  -6   55.23   18.18
  -5 -14   6   46.00   14.98
   5 -14   6   51.34   18.91
  -5 -14  -7    7.52    7.69
   5 -14  -7    8.94    6.71
  -5 -14   7   13.16    8.32
   5 -14   7   11.83    8.83
  -5 -14  -8   89.84   22.85
   5 -14  -8   81.30   22.26
  -5 -14   8   88.28   21.21
   5 -14   8   83.20   24.00
  -5 -14  -9   17.33   10.60
   5 -14  -9   18.66   10.24
   5 -14   9   19.03   13.21
  -5 -14   9   14.87    9.38
  -5 -14 -10   24.66   12.18
  -5 -14  10   18.88    9.80
   5 -14  10   27.66   14.47
   5 -14 -10   18.71   10.42
  -5 -14 -11    3.32    4.41
  -5 -14  11    0.47    3.46
   5 -14 -11    1.05    3.31
  -5 -14 -12    9.76    7.57
   5 -14 -12   11.20    7.95
  -5 -14  12    8.58    7.42
  -5 -14 -13    4.24    3.28
  -5 -14  13    1.37    1.84
   5 -14 -13    2.36    3.62
  -5 -14 -14    6.31    6.31
   5 -14 -14    3.37    4.77
  -5 -14 -15    5.53    7.79
   5 -14 -15    4.27    4.57
  -5 -14 -16    6.61    7.50
   5 -14 -16    5.59    7.35
   5 -14 -17    3.07    5.50
  -6 -14   0   38.50   14.42
   6 -14   0   45.51   17.66
  -6 -14  -1   63.17   18.00
  -6 -14   1   56.14   17.22
   6 -14   1   58.99   19.90
   6 -14  -1   66.70   20.13
  -6 -14   2   17.81   10.25
  -6 -14  -2   17.00   10.19
   6 -14   2   18.38   11.86
   6 -14  -2   15.49   10.12
  -6 -14   3   39.88   14.44
  -6 -14  -3   39.20   14.27
   6 -14   3   35.17   15.11
   6 -14  -3   38.90   15.54
  -6 -14  -4    7.06    6.13
   6 -14  -4    7.03    6.05
   6 -14   4    8.97    9.14
  -6 -14   4   14.48    8.98
  -6 -14  -5   19.51   10.23
   6 -14   5   27.38   13.67
   6 -14  -5   23.99   11.76
  -6 -14   5   22.29   10.47
  -6 -14  -6   27.17   12.78
  -6 -14   6   32.34   12.65
   6 -14  -6   29.08   13.16
   6 -14   6   29.06   14.86
  -6 -14  -7   30.81   13.51
   6 -14   7   37.90   16.93
   6 -14  -7   28.39   13.54
  -6 -14   7   31.39   12.50
  -6 -14  -8   20.54   11.96
   6 -14  -8   14.05    9.61
  -6 -14   8   12.88    7.73
   6 -14   8   21.25   12.98
  -6 -14  -9   17.64   11.01
   6 -14  -9   16.85   10.42
  -6 -14   9   19.18   10.08
   6 -14   9   21.33   13.94
  -6 -14 -10   14.05    9.84
  -6 -14  10   11.06    7.67
   6 -14 -10   13.76    8.86
  -6 -14 -11   10.75    8.63
   6 -14 -11    8.70    7.11
  -6 -14  11    8.66    6.98
  -6 -14 -12   14.63   10.31
   6 -14 -12   10.04    7.72
  -6 -14  12   10.91    8.18
  -6 -14 -13    1.20    1.15
   6 -14 -13    1.83    4.02
  -6 -14 -14    5.13    7.18
   6 -14 -14   -0.08    0.97
  -6 -14 -15   10.19    8.46
   6 -14 -15    6.40    7.17
  -6 -14 -16    3.49    7.05
   6 -14 -16    1.39    4.07
  -7 -14   0   97.46   22.72
   7 -14   0  115.44   27.05
  -7 -14  -1   24.86   12.12
  -7 -14   1   17.82   10.02
   7 -14  -1   16.61   10.35
   7 -14   1   20.59   11.71
  -7 -14  -2   46.89   16.20
  -7 -14   2   50.98   16.18
   7 -14   2   43.99   16.97
   7 -14  -2   53.10   18.14
  -7 -14  -3    3.07    4.32
  -7 -14   3    3.87    5.00
   7 -14  -3    5.50    6.41
   7 -14   3    0.24    2.89
  -7 -14  -4   15.62    9.16
   7 -14   4   14.20   10.13
   7 -14  -4   17.31   10.35
  -7 -14   4   13.57    8.40
  -7 -14  -5    0.94    3.40
   7 -14   5    0.36    2.68
   7 -14  -5    0.32    2.10
  -7 -14   5   -1.34    3.66
  -7 -14  -6   27.79   12.92
   7 -14   6   36.40   16.18
  -7 -14   6   31.94   12.58
   7 -14  -6   28.52   12.54
  -7 -14  -7   10.09    9.42
  -7 -14   7    7.13    5.82
   7 -14  -7    3.58    3.49
   7 -14   7   12.09   10.24
  -7 -14   8   68.29   18.46
   7 -14  -8   68.29   21.09
  -7 -14  -8   73.03   21.08
   7 -14   8   72.10   23.79
  -7 -14  -9    3.90    5.13
   7 -14  -9    0.41    1.54
  -7 -14   9    1.99    3.11
  -7 -14 -10   38.15   16.11
   7 -14 -10   24.14   12.56
  -7 -14  10   29.29   12.81
  -7 -14 -11    0.91    3.50
  -7 -14  11    1.49    2.79
   7 -14 -11    1.15    2.43
  -7 -14 -12    3.31    4.42
   7 -14 -12    3.22    4.33
  -7 -14 -13    2.20    5.62
   7 -14 -13   -0.87    2.71
  -7 -14 -14   15.19   10.94
   7 -14 -14   10.48    7.32
  -7 -14 -15   10.17    8.99
   7 -14 -15    1.94    3.88
   7 -14 -16   13.06    9.34
  -8 -14   0    5.44    5.12
   8 -14   0    5.55    6.17
  -8 -14   1   19.00   10.00
  -8 -14  -1   20.75   10.83
   8 -14  -1   19.05   11.71
   8 -14   1   15.25    9.17
  -8 -14   2   16.40    9.27
  -8 -14  -2    8.33    7.11
   8 -14  -2   19.08   12.00
   8 -14   2    9.97    9.21
  -8 -14  -3    6.07    4.05
  -8 -14   3   12.95    8.15
   8 -14  -3    9.32    7.88
   8 -14   3    7.90    6.09
  -8 -14  -4    9.70    6.11
  -8 -14   4   11.01    7.48
   8 -14   4    5.57    4.96
   8 -14  -4   12.39    9.15
  -8 -14  -5   10.38    7.08
   8 -14   5    9.33    8.28
  -8 -14   5    8.66    5.87
   8 -14  -5    6.64    7.04
  -8 -14  -6    3.40    4.71
   8 -14  -6   -1.11    4.24
   8 -14   6    2.04    5.40
  -8 -14   6    2.67    3.61
  -8 -14  -7    6.68    6.66
  -8 -14   7    2.61    2.09
   8 -14   7    7.10    7.43
   8 -14  -7    3.71    3.74
  -8 -14  -8   13.75    9.25
  -8 -14   8   12.80    7.12
   8 -14  -8   11.14    8.59
  -8 -14  -9    8.36    7.33
  -8 -14   9    1.87    1.19
   8 -14  -9    4.92    5.41
  -8 -14 -10   17.04   10.52
   8 -14 -10   14.24    8.67
  -8 -14  10   17.33   10.34
  -8 -14 -11    5.93    7.20
   8 -14 -11    2.28    3.95
  -8 -14 -12    0.88    4.51
   8 -14 -12    1.03    1.54
  -8 -14 -13    1.49    5.12
   8 -14 -13    3.22    3.30
  -8 -14 -14    6.16    7.60
   8 -14 -14    0.04    4.10
   8 -14 -15    2.00    2.57
  -9 -14   0    6.35    4.06
   9 -14   0    5.74    5.35
  -9 -14  -1   -2.22    4.89
  -9 -14   1    0.97    1.16
   9 -14   1   -0.66    4.25
   9 -14  -1   -2.75    4.34
  -9 -14  -2   -2.04    4.71
  -9 -14   2   -0.08    1.27
   9 -14   2   -0.58    3.41
   9 -14  -2   -2.29    4.67
  -9 -14  -3   13.45    9.02
  -9 -14   3    9.57    7.06
   9 -14  -3   13.51    9.46
   9 -14   3   11.74    8.40
  -9 -14   4    7.21    5.70
  -9 -14  -4    8.42    5.92
   9 -14   4    8.22    7.74
   9 -14  -4    5.38    4.94
  -9 -14  -5    4.20    4.46
   9 -14  -5    1.72    3.32
  -9 -14   5    3.57    3.69
   9 -14   5    1.48    2.96
  -9 -14  -6    2.68    4.65
   9 -14   6    1.46    4.67
  -9 -14   6   -3.11    4.57
   9 -14  -6   -2.43    3.88
  -9 -14  -7    3.74    5.91
  -9 -14   7   -0.54    3.52
   9 -14  -7   -1.61    3.66
  -9 -14  -8    2.13    5.74
  -9 -14   8    0.81    4.06
   9 -14  -8   -0.35    3.60
  -9 -14  -9   -0.09    1.57
  -9 -14   9   -0.11    4.72
   9 -14  -9   -2.08    5.69
  -9 -14 -10    0.15    2.11
   9 -14 -10   -2.78    4.35
  -9 -14 -11    0.98    1.31
   9 -14 -11    1.06    2.47
  -9 -14 -12    7.72    7.94
   9 -14 -12    2.65    5.19
  -9 -14 -13    9.26    9.22
  -9 -14  13    4.09    3.56
   9 -14 -13    1.46    1.33
  -9 -14  14   -0.36    2.85
   9 -14 -14   -0.20    1.20
  -9 -14  15    9.38    8.40
  -9 -14  16    7.18    6.50
   9  14  17  -11.86   14.59
 -10 -14   0    0.60    3.11
  10 -14   0    0.61    3.05
 -10 -14  -1   27.80   12.32
 -10 -14   1   23.94   11.35
  10 -14   1   26.65   14.14
  10 -14  -1   30.19   15.01
 -10 -14  -2    2.15    3.64
 -10 -14   2   -0.80    3.75
  10 -14  -2    0.23    1.03
  10 -14   2    1.55    2.55
 -10 -14   3   27.23   11.59
 -10 -14  -3   22.11   10.19
  10 -14   3   21.92   13.06
  10 -14  -3   33.23   14.92
 -10 -14   4    1.63    4.02
 -10 -14  -4    3.41    5.38
  10 -14   4    5.48    8.05
  10 -14  -4    0.21    1.66
 -10 -14  -5   37.66   15.19
 -10 -14   5   44.14   15.20
  10 -14  -5   50.15   18.29
  10 -14   5   49.72   20.23
 -10 -14  -6    0.62    3.02
  10 -14  -6   -0.92    0.33
 -10 -14   6   -0.24    2.58
 -10 -14  -7   13.43    9.41
  10 -14  -7   17.15   10.60
 -10 -14   7   10.55    6.39
 -10 -14  -8    0.72    5.06
  10 -14  -8   -0.37    2.46
 -10 -14   8   -0.59    0.97
 -10 -14  -9    5.76    6.67
  10 -14  -9    4.54    5.97
 -10 -14   9    0.98    2.55
 -10 -14 -10    3.65    5.53
  10 -14 -10    4.71    5.98
 -10 -14 -11    5.94    8.02
 -10 -14  11    6.09    5.82
  10 -14 -11    3.83    6.58
 -10 -14 -12    6.16    7.44
 -10 -14  12   -1.40    3.69
  10 -14 -12    2.35    4.10
 -10 -14  13   17.45   11.67
  10 -14 -13    7.92    9.22
 -10 -14  14    5.22    6.97
 -10 -14  15    2.93    3.61
 -10 -14  16   -0.07    6.94
 -11 -14   0   17.26    9.42
  11 -14   0   25.23   13.98
 -11 -14  -1   21.04   10.33
 -11 -14   1   21.24   10.82
  11 -14   1   21.35   12.87
  11 -14  -1   21.36   12.93
 -11 -14   2   15.98    9.03
 -11 -14  -2   17.89    9.92
  11 -14  -2   12.21   10.07
  11 -14   2   14.68   10.94
 -11 -14   3   27.32   12.81
 -11 -14  -3   20.48   12.13
  11 -14   3   24.31   14.04
  11 -14  -3   27.90   13.99
 -11 -14   4   21.12   11.03
 -11 -14  -4   26.87   12.50
  11 -14  -4   18.27   11.18
  11 -14   4   25.35   15.24
 -11 -14   5   46.77   15.54
 -11 -14  -5   45.50   17.19
  11 -14  -5   41.81   17.40
 -11 -14  -6   14.93   10.83
  11 -14  -6   16.24   10.69
 -11 -14   6   13.44    7.94
 -11 -14  -7    9.54    9.37
  11 -14  -7    8.93    8.36
 -11 -14   7    9.07    6.99
 -11 -14  -8    4.90    6.97
 -11 -14   8    2.30    3.86
  11 -14  -8    4.15    4.42
 -11 -14  -9    3.17    6.52
  11 -14  -9   -0.07    2.25
 -11 -14 -10   10.11    9.73
 -11 -14  10   14.11    9.28
  11 -14 -10   10.18    8.59
 -11 -14 -11   10.36    8.78
 -11 -14  11    6.81    7.62
  11 -14 -11    6.56    7.23
 -11 -14 -12    8.72    8.70
 -11 -14  12   12.51   11.14
  11 -14 -12    3.18    6.51
 -11 -14  13   20.67   13.67
 -11 -14  14   15.64   11.08
 -11 -14  15   16.89   10.69
 -11 -14  16    9.47   10.76
 -12 -14   0    6.77    6.39
  12 -14   0   12.25    9.78
 -12 -14   1   55.22   17.37
 -12 -14  -1   59.60   18.77
  12 -14   1   64.03   22.30
  12 -14  -1   61.58   21.89
 -12 -14   2    4.37    5.77
 -12 -14  -2    5.45    5.71
  12 -14  -2    6.30    7.94
  12 -14   2    7.67   10.50
 -12 -14   3  130.37   26.08
 -12 -14  -3  129.99   28.41
  12 -14  -3  127.70   30.89
 -12 -14  -4    8.45    9.24
 -12 -14   4    2.29    5.87
  12 -14  -4    3.55    6.45
 -12 -14   5   75.08   19.54
 -12 -14  -5   65.44   21.21
  12 -14  -5   63.52   22.64
 -12 -14  -6    9.01    9.15
 -12 -14   6    5.45    5.83
  12 -14  -6    6.58    8.13
 -12 -14   7   54.50   17.28
 -12 -14  -7   48.43   19.01
  12 -14  -7   44.16   17.92
 -12 -14  -8    3.53    6.71
  12 -14  -8    3.34    4.46
 -12 -14  -9   30.59   15.20
 -12 -14   9   26.70   13.75
  12 -14  -9   36.53   16.89
 -12 -14 -10    1.62    4.23
 -12 -14  10   -1.50    5.81
  12 -14 -10    2.52    4.95
 -12 -14 -11   29.49   15.77
 -12 -14  11   38.36   16.42
  12 -14 -11   28.38   15.14
 -12 -14  12    6.52    7.18
  12 -14 -12    3.44    4.88
 -12 -14  13   25.12   13.69
 -12 -14  14    5.28    6.73
 -13 -14   0    3.15    2.54
  13 -14   0    6.03    7.80
 -13 -14   1    2.58    3.66
 -13 -14  -1    1.69    3.48
  13 -14  -1    3.28    5.28
 -13 -14   2    6.07    5.93
 -13 -14  -2    5.48    7.67
  13 -14  -2    7.61    7.66
 -13 -14  -3   35.57   15.21
 -13 -14   3   30.02   12.82
  13 -14  -3   32.21   15.54
 -13 -14   4    6.05    6.36
 -13 -14  -4    5.65    7.65
  13 -14  -4    2.34    1.80
 -13 -14   5   10.27    7.83
 -13 -14  -5    7.15    8.26
  13 -14  -5    9.58   10.06
 -13 -14  -6    9.62    8.15
  13 -14  -6    7.12    7.93
 -13 -14   6    7.95    6.77
 -13 -14  -7    5.96    7.26
  13 -14  -7   13.63    9.95
 -13 -14  -8    0.73    5.87
 -13 -14   8    1.76    3.18
  13 -14  -8   -3.60    6.22
 -13 -14  -9    5.06    6.41
 -13 -14   9    3.33    5.67
  13 -14  -9    2.78    7.59
 -13 -14  10    9.68    9.77
  13 -14 -10   -2.16    5.77
 -13 -14  11   16.84   12.12
  13 -14 -11    2.23    0.30
 -13 -14  12    1.57    6.22
 -14 -14   0    7.74    6.29
 -14 -14   1   11.42    8.22
 -14 -14  -1   13.29    9.57
 -14 -14   2    5.45    5.43
 -14 -14  -2    1.97    1.87
  14 -14  -2    6.78    7.23
 -14 -14  -3   16.24   10.19
 -14 -14   3   14.42    8.63
  14 -14  -3   12.02    9.98
 -14 -14   4    3.75    5.84
 -14 -14  -4    5.78    7.44
  14 -14  -4    1.36    4.05
 -14 -14   5   15.16    8.91
 -14 -14  -5   13.45   10.23
  14 -14  -5   10.22   10.06
 -14 -14  -6    1.60    5.28
  14 -14  -6   -0.09    1.32
 -14 -14  -7    7.04    7.81
 -14 -14   7    4.96    5.81
  14 -14  -7    6.63    7.75
 -14 -14  -8    4.32    7.54
 -14 -14   8   -1.61    6.21
  14 -14  -8   -0.46    3.09
 -14 -14   9    5.35    7.09
  14 -14  -9    1.96    2.39
  14 -14 -10   -0.10    5.61
 -15 -14   0    1.33    1.35
 -15 -14   1    1.81    1.64
 -15 -14  -1    0.35    2.19
 -15 -14   2    0.11    1.63
 -15 -14  -2    1.58    3.92
 -15 -14  -3    0.74    4.47
 -15 -14   3    1.23    1.94
 -15 -14   4    1.02    1.92
 -15 -14  -4    1.57    2.68
  15 -14  -5   -1.23    3.84
 -15 -14  -5   -0.04    1.27
  15 -14  -6   -2.48    4.57
 -15 -14  -6    4.69    6.42
  15 -14  -7   -0.20    3.03
 -15 -14  -7    2.14    5.22
  15 -14  -8   -2.69    8.22
  15 -14  -9   -1.24    5.69
 -16 -14   0    3.65    5.25
 -16 -14   1   21.75   11.25
 -16 -14  -1   22.55   12.58
 -16 -14   2   -0.37    1.98
 -16 -14  -2    4.04    7.16
 -16 -14  -3   22.62   12.50
 -16 -14   3   21.04   10.74
 -16 -14  -4    2.78    5.84
 -16 -14  -5   26.32   14.50
 -16 -14  -6    2.16    4.95
 -17 -14   0    2.08    6.67
 -17 -14  -1    9.32    8.61
 -17 -14   1   10.63    7.72
 -17 -14   2    0.60    0.97
 -17 -14  -2    2.99    6.01
 -17 -14  -3   10.25   11.22
 -17 -14  -4    4.28    7.40
 -18 -14   0    1.49    4.46
 -18 -14  -1   33.79   15.66
 -18 -14   1   33.25   14.93
 -18 -14  -2    3.97    5.57
 -19 -14   0    0.45    4.02
 -19 -14  -1    5.78    5.93
   0 -15   0    2.76    3.69
   0 -15   1   89.27   23.19
   0 -15  -1   87.73   22.28
   0 -15   2   -0.19    2.06
   0 -15  -2    1.93    4.55
   0 -15  -3  151.43   30.07
   0 -15   3  153.42   29.94
   0 -15   4    1.18    2.80
   0 -15  -4    0.92    2.02
   0 -15   5  101.81   24.93
   0 -15  -5  106.86   24.86
   0 -15  -6    3.00    5.51
   0 -15   6    1.15    0.69
   0 -15   7   20.41   11.43
   0 -15  -7   27.08   13.02
   0 -15   8   -1.49    1.35
   0 -15  -8    2.76    5.25
   0 -15   9   44.77   16.42
   0 -15  -9   50.51   17.88
   0 -15  10    2.78    5.40
   0 -15 -10    2.93    5.01
   0 -15  11   42.75   16.98
   0 -15 -11   38.91   16.69
   0 -15  12    3.95    6.03
   0 -15 -12    5.45    7.63
   0 -15  13   28.33   14.37
   0 -15 -13   27.85   13.22
   0 -15 -14   -0.07    1.77
   0 -15 -15    2.72    4.34
   0 -15 -16   -1.53    4.21
   0 -15 -17   -0.45    5.32
   1 -15   0   -0.39    2.52
  -1 -15   0   -0.51    4.01
  -1 -15   1    3.20    4.44
   1 -15  -1    3.29    5.05
   1 -15   1    1.33    2.91
  -1 -15  -1    5.64    5.90
   1 -15  -2    0.09    3.13
  -1 -15   2   -0.19    3.76
   1 -15   2   -0.35    4.01
  -1 -15  -2    1.33    2.58
  -1 -15   3    0.42    1.49
   1 -15   3    0.96    3.98
  -1 -15  -3    2.26    5.37
   1 -15  -3   -0.99    2.37
  -1 -15   4   -0.79    3.94
  -1 -15  -4    1.86    4.94
   1 -15   4    0.86    3.18
   1 -15  -4   -0.89    3.06
  -1 -15   5    2.83    4.51
   1 -15  -5    5.65    6.40
   1 -15   5    2.43    2.55
  -1 -15  -5    6.28    7.46
   1 -15   6    0.40    3.85
   1 -15  -6   -0.28    3.69
  -1 -15   6    1.43    3.41
  -1 -15  -6    3.44    5.31
  -1 -15   7    7.92    6.30
   1 -15   7    4.19    6.13
   1 -15  -7    2.87    3.68
  -1 -15  -7    6.38    6.92
  -1 -15   8   -2.50    3.80
   1 -15   8    1.32    0.82
   1 -15  -8    0.04    3.53
  -1 -15  -8    4.78    6.84
  -1 -15   9    1.31    3.31
   1 -15   9    5.55    5.94
   1 -15  -9    2.73    6.26
  -1 -15  -9    5.23    7.03
   1 -15  10    0.85    4.03
  -1 -15  10    0.27    3.92
   1 -15 -10    0.49    4.28
  -1 -15 -10    3.07    5.67
   1 -15  11    1.09    4.79
  -1 -15  11    4.02    6.55
  -1 -15 -11    5.58    6.66
   1 -15 -11    7.38    7.30
  -1 -15  12    1.04    4.73
   1 -15  12    3.06    3.70
  -1 -15 -12   -0.07    1.42
   1 -15 -12    2.02    4.72
  -1 -15  13    0.58    4.65
   1 -15 -13    4.87    7.15
  -1 -15 -13   -2.91    4.54
  -1 -15 -14   -1.75    3.08
   1 -15 -14    4.23    7.56
  -1 -15 -15   -4.06    6.62
   1 -15 -15    2.41    4.50
  -1 -15 -16   -3.49    7.37
   1 -15 -16    1.63    5.08
   1 -15 -17   -1.52    2.45
  -1 -15 -17   -0.80    4.22
   2 -15   0   -0.28    3.97
  -2 -15   0    1.29    0.31
   2 -15  -1    8.80    7.80
   2 -15   1    8.57    5.96
  -2 -15  -1    9.15    6.84
  -2 -15   1    4.98    4.15
  -2 -15   2    0.37    2.46
   2 -15  -2    5.93    6.18
   2 -15   2    1.34    2.45
  -2 -15  -2    1.97    3.27
   2 -15   3   50.14   17.96
   2 -15  -3   45.42   16.04
  -2 -15   3   43.41   15.93
  -2 -15  -3   51.16   16.90
  -2 -15   4    0.29    1.40
   2 -15   4   -0.19    2.71
   2 -15  -4    2.96    4.63
  -2 -15  -4    1.86    4.55
   2 -15   5   10.37    7.31
  -2 -15   5   10.48    6.52
   2 -15  -5   18.86   10.55
  -2 -15  -5   17.48   10.02
   2 -15   6   -0.45    2.99
  -2 -15   6    0.73    2.29
   2 -15  -6    0.14    1.86
  -2 -15  -6    3.95    5.02
   2 -15   7    3.89    4.89
   2 -15  -7    8.12    7.13
  -2 -15   7    5.30    6.76
  -2 -15  -7    5.69    6.21
  -2 -15   8    1.61    2.32
   2 -15  -8    2.11    4.16
   2 -15   8    1.64    2.83
  -2 -15  -8    2.52    7.14
   2 -15   9    7.71    7.25
  -2 -15   9    1.52    2.68
   2 -15  -9    3.71    4.85
  -2 -15  -9    4.83    1.76
  -2 -15  10    3.37    3.35
   2 -15 -10    0.55    0.60
   2 -15  10    2.96    6.52
  -2 -15 -10    0.94    1.86
  -2 -15  11   24.91   12.89
   2 -15 -11   25.03   12.80
   2 -15  11   29.05   14.45
  -2 -15 -11   26.77   12.84
  -2 -15  12    4.52    5.48
   2 -15  12    5.56    7.48
   2 -15 -12    5.23    7.34
  -2 -15 -12   -0.87    0.78
  -2 -15  13   14.73    9.68
  -2 -15 -13   12.70    9.33
   2 -15 -13   17.63   11.25
   2 -15 -14    1.23    5.81
  -2 -15 -14   -1.29    3.91
   2 -15 -15   -0.39    4.20
  -2 -15 -15   -0.50    6.10
  -2 -15 -16   -1.60    3.92
   2 -15 -16    0.32    3.01
   2 -15 -17    2.18    1.55
   2 -15 -18    1.38    3.77
   3 -15   0   -2.17    4.94
  -3 -15   0   -0.73    2.53
   3 -15  -1   -3.30    5.73
   3 -15   1    0.20    2.15
  -3 -15  -1    2.01    3.96
  -3 -15   1   -1.20    4.96
   3 -15  -2   -0.45    4.04
   3 -15   2   -1.65    4.50
  -3 -15   2   -3.34    6.87
  -3 -15  -2    0.12    0.76
  -3 -15   3   -0.87    3.16
   3 -15  -3   -0.80    4.05
   3 -15   3   -0.99    4.03
  -3 -15  -3    4.33    6.49
   3 -15  -4    0.51    2.91
   3 -15   4   -1.51    5.22
  -3 -15   4   -2.15    3.96
  -3 -15  -4    0.51    2.75
   3 -15  -5    0.87    3.19
   3 -15   5   -1.05    4.54
  -3 -15   5    0.90    3.41
  -3 -15  -5    4.51    6.24
  -3 -15   6   -0.64    2.58
   3 -15   6   -0.11    4.02
   3 -15  -6   -0.49    1.79
  -3 -15  -6   -1.22    3.43
  -3 -15   7    4.57    4.99
   3 -15   7    9.55    8.37
   3 -15  -7    8.24    7.18
  -3 -15  -7    6.88    5.53
   3 -15   8    3.35    5.22
   3 -15  -8   -0.04    4.37
  -3 -15   8   -0.75    2.36
  -3 -15  -8   -1.21    5.03
  -3 -15   9   -1.73    4.42
   3 -15   9    4.76    6.61
   3 -15  -9    1.49    4.49
  -3 -15  -9   -2.42    5.52
   3 -15  10    0.17    0.81
  -3 -15  10    0.27    3.34
   3 -15 -10    0.90    3.26
  -3 -15 -10   -0.37    3.01
   3 -15  11   -1.21    4.37
   3 -15 -11    0.35    3.26
  -3 -15  11    1.17    4.93
  -3 -15 -11    2.73    5.14
  -3 -15  12    2.41    3.47
   3 -15 -12   -2.62    6.52
  -3 -15 -12    0.74    2.90
  -3 -15  13    2.52    5.49
   3 -15 -13   -0.41    1.01
  -3 -15 -13    0.77    3.65
   3 -15 -14    2.28    5.35
  -3 -15 -14   -0.26    2.97
   3 -15 -15    6.37    5.63
  -3 -15 -15    2.10    1.20
   3 -15 -16   -0.35    2.20
  -3 -15 -16   -3.42    5.37
   3 -15 -17    1.41    5.54
   3 -15 -18   -0.31    4.56
   4 -15   0    8.05    7.43
  -4 -15   0    8.70    7.05
   4 -15  -1   29.93   13.81
   4 -15   1   31.73   14.30
  -4 -15   1   35.99   14.50
  -4 -15  -1   31.03   14.22
   4 -15  -2    1.88    0.84
   4 -15   2    4.22    5.09
  -4 -15  -2    4.54    4.61
  -4 -15   3    7.66    5.87
   4 -15   3    8.35    7.12
   4 -15  -3    7.53    6.55
  -4 -15  -3   11.11    8.42
  -4 -15   4   -0.95    4.24
   4 -15  -4   -3.67    6.59
   4 -15   4    0.17    2.04
  -4 -15  -4    1.10    3.07
   4 -15  -5   10.72    8.41
  -4 -15   5    3.72    4.07
   4 -15   5    5.58    6.15
  -4 -15  -5    4.77    3.26
   4 -15  -6   -0.25    2.15
  -4 -15   6    0.83    2.31
   4 -15   6    0.01    3.84
  -4 -15  -6   -0.13    3.47
   4 -15  -7   22.78   12.11
   4 -15   7   17.61   11.04
  -4 -15   7   18.02   10.30
  -4 -15  -7   17.95    9.34
   4 -15  -8    3.13    4.97
   4 -15   8    1.78    4.16
  -4 -15   8    2.04    3.12
  -4 -15  -8    1.05    1.64
  -4 -15   9   17.82    9.72
   4 -15   9   29.49   14.90
   4 -15  -9   22.40   11.76
  -4 -15  -9   18.99   10.41
   4 -15  10    2.18    5.38
  -4 -15  10    4.07    5.66
   4 -15 -10    3.92    4.75
  -4 -15 -10    0.64    1.43
  -4 -15  11   -0.35    2.40
   4 -15 -11    0.01    2.25
  -4 -15 -11    3.38    4.35
  -4 -15  12   -0.32    2.33
   4 -15 -12   -0.54    2.78
  -4 -15 -12   -1.46    4.77
   4 -15 -13    1.64    2.02
  -4 -15  13    2.60    4.39
  -4 -15 -13   -0.31    3.12
   4 -15 -14    5.44    7.55
  -4 -15 -14   -1.69    4.78
   4 -15 -15    7.16    8.67
  -4 -15 -15    6.45    6.43
   4 -15 -16    3.97    6.60
   4 -15 -17    5.08    6.34
   5 -15   0   30.31   14.04
  -5 -15   0   23.93   11.95
   5 -15  -1    4.80    6.43
  -5 -15   1    2.80    6.18
   5 -15   1    2.55    5.41
  -5 -15  -1    3.55    6.30
   5 -15   2   13.76    9.58
   5 -15  -2   14.44    9.39
  -5 -15   2   15.99    9.51
  -5 -15  -2   20.80   11.63
   5 -15   3   -0.41    3.82
   5 -15  -3    1.69    3.17
  -5 -15   3    0.82    3.60
  -5 -15  -3    0.80    3.23
  -5 -15   4    2.29    3.12
   5 -15  -4    3.78    3.97
   5 -15   4    2.41    0.51
  -5 -15  -4   -1.73    5.40
  -5 -15   5   -0.54    2.48
   5 -15  -5    3.56    6.57
   5 -15   5   -1.53    3.71
  -5 -15  -5   -1.27    3.89
   5 -15   6    6.94    7.53
   5 -15  -6    7.55    6.48
  -5 -15   6    4.99    4.75
  -5 -15  -6    5.00    4.62
   5 -15  -7   -1.42    1.50
   5 -15   7   -0.60    2.03
  -5 -15   7    0.09    0.67
  -5 -15  -7   -1.31    1.81
   5 -15  -8   17.47   10.16
  -5 -15   8   14.94    9.61
   5 -15   8   23.21   13.31
  -5 -15  -8   15.77   10.41
   5 -15  -9    9.26    7.96
   5 -15   9    9.46    9.09
  -5 -15   9    8.80    6.88
  -5 -15  -9   11.49    8.71
   5 -15 -10    1.72    0.99
  -5 -15  10    2.41    1.05
   5 -15  10    8.21    8.48
  -5 -15 -10    3.06    4.10
   5 -15 -11    1.70    3.25
  -5 -15  11    1.73    0.97
  -5 -15 -11    1.01    6.05
  -5 -15  12    1.89    1.18
   5 -15 -12    0.86    2.01
  -5 -15 -12    3.31    4.56
   5 -15 -13    1.31    1.53
  -5 -15 -13    3.21    3.74
   5 -15 -14   -0.69    2.04
  -5 -15 -14   -3.03    5.48
   5 -15 -15    3.91    4.60
   5 -15 -16   -0.03    1.97
   5 -15 -17    1.57    1.62
   6 -15   0    7.59    8.49
  -6 -15   0    7.23    8.60
   6 -15   1   94.36   25.05
   6 -15  -1   73.29   22.16
  -6 -15  -1   86.75   22.21
  -6 -15   1   86.96   22.30
   6 -15   2    2.36    5.51
  -6 -15   2    8.06    7.85
   6 -15  -2    5.42    6.42
  -6 -15  -2    0.99    2.01
   6 -15   3   41.77   16.96
   6 -15  -3   36.59   15.57
  -6 -15   3   37.03   14.42
  -6 -15  -3   37.68   14.58
   6 -15  -4    1.22    2.76
   6 -15   4   -0.24    4.28
  -6 -15   4    1.89    4.00
  -6 -15  -4   -2.26    4.33
   6 -15   5   42.70   18.13
  -6 -15   5   42.89   15.85
  -6 -15  -5   42.78   16.09
   6 -15  -5   50.15   17.61
  -6 -15   6    0.21    2.25
   6 -15  -6    0.48    2.50
   6 -15   6    1.60    5.16
  -6 -15  -6    1.63    4.42
   6 -15  -7   34.90   14.60
  -6 -15   7   35.64   13.81
   6 -15   7   35.84   16.67
  -6 -15  -7   33.99   14.47
   6 -15  -8   -0.94    1.00
  -6 -15   8   -0.54    1.42
  -6 -15  -8   -0.25    1.86
   6 -15  -9   20.44   11.13
   6 -15   9   23.86   14.38
  -6 -15   9   21.78   11.33
  -6 -15  -9   21.16   11.89
  -6 -15  10   -0.76    1.27
   6 -15 -10    0.76    3.07
  -6 -15 -10    0.00    1.92
   6 -15 -11   24.23   12.34
  -6 -15  11   26.09   12.69
  -6 -15 -11   31.52   14.49
   6 -15 -12   -0.45    2.86
  -6 -15 -12    0.35    1.82
   6 -15 -13    4.59    4.48
  -6 -15 -13   -1.13    4.08
   6 -15 -14   -1.27    5.46
  -6 -15 -14   -0.23    3.23
   6 -15 -15    8.39    6.38
   6 -15 -16   -0.29    3.81
   7 -15   0   52.42   19.32
  -7 -15   0   69.68   20.02
   7 -15  -1    3.81    5.43
   7 -15   1    7.09    7.46
  -7 -15  -1    6.44    5.65
  -7 -15   1    8.16    7.68
   7 -15   2   27.45   13.81
  -7 -15   2   22.60   11.81
   7 -15  -2   27.50   13.69
  -7 -15  -2   22.84   10.64
  -7 -15   3   11.26    8.24
   7 -15   3   13.60   10.01
   7 -15  -3    7.46    7.78
  -7 -15  -3    5.60    4.88
   7 -15   4    7.58    8.15
   7 -15  -4    3.02    3.63
  -7 -15   4    6.42    5.32
  -7 -15  -4    5.11    5.04
   7 -15   5   -0.43    1.58
   7 -15  -5   -0.04    1.88
  -7 -15   5   -0.12    1.60
  -7 -15  -5    0.64    2.31
  -7 -15   6    8.32    5.86
   7 -15  -6    5.87    5.16
   7 -15   6    6.33    9.09
  -7 -15  -6    7.59    7.40
  -7 -15   7   -2.74    5.60
   7 -15  -7   -2.47    5.90
   7 -15   7    4.54    8.76
  -7 -15  -7   -0.74    1.89
   7 -15  -8   25.56   12.42
  -7 -15   8   29.23   12.32
   7 -15   8   26.53   14.09
  -7 -15  -8   36.87   15.58
   7 -15  -9    0.23    2.32
  -7 -15   9    4.73    5.56
  -7 -15  -9    5.65    7.13
   7 -15 -10   12.84   10.15
  -7 -15  10   13.82    8.59
  -7 -15 -10   13.36    9.82
   7 -15 -11    3.11    5.12
  -7 -15 -11    1.22    1.04
   7 -15 -12    0.79    3.50
  -7 -15 -12    1.23    2.33
   7 -15 -13    1.29    2.47
  -7 -15 -13   -1.72    5.90
   7 -15 -14    0.23    4.69
   7 -15 -15   -1.25    4.19
   8 -15   0    3.45    6.84
  -8 -15   0    0.94    5.15
   8 -15  -1    1.12    1.77
   8 -15   1    0.91    3.43
  -8 -15  -1    1.25    3.80
  -8 -15   1    7.07    7.25
   8 -15  -2   -2.48    5.48
   8 -15   2    0.80    3.36
  -8 -15   2    2.48    4.93
  -8 -15  -2   -2.53    4.32
   8 -15  -3   12.37    8.76
   8 -15   3   11.05    9.51
  -8 -15   3   15.65    9.43
  -8 -15  -3    9.05    6.70
   8 -15   4   -1.17    4.99
  -8 -15   4    1.68    2.64
   8 -15  -4    0.94    2.10
  -8 -15  -4   -1.25    3.00
   8 -15  -5    2.73    5.35
  -8 -15   5    1.32    3.53
   8 -15   5    8.05    8.17
  -8 -15  -5   -0.51    1.12
  -8 -15   6    0.36    3.59
   8 -15   6    8.60    8.79
   8 -15  -6    4.30    3.16
  -8 -15  -6    4.27    1.78
  -8 -15   7   -0.34    3.70
   8 -15  -7   -3.24    6.00
   8 -15   7   -0.61    3.75
  -8 -15  -7   -1.09    3.93
  -8 -15   8    1.32    1.45
   8 -15  -8    5.15    6.14
  -8 -15  -8    0.41    3.93
   8 -15  -9    1.56    2.88
  -8 -15   9    2.71    4.27
  -8 -15  -9    4.51    6.37
   8 -15 -10   -1.16    3.97
  -8 -15  10    0.47    1.82
  -8 -15 -10    0.80    2.89
   8 -15 -11    1.32    2.65
  -8 -15 -11    1.51    4.64
   8 -15 -12    0.16    1.40
  -8 -15 -12    1.68    4.08
   8 -15 -13   -3.61    6.72
   8 -15 -14   -2.28    4.44
   8 -15 -15   -1.36    4.82
   9 -15   0   11.92    9.34
  -9 -15   0    2.15    2.95
   9 -15   1   -1.90    5.47
   9 -15  -1    1.18    5.08
  -9 -15   1    5.70    6.64
  -9 -15  -1   -4.38    5.96
   9 -15   2   -2.65    5.18
   9 -15  -2   -1.88    4.82
  -9 -15   2    3.16    5.07
  -9 -15  -2   -2.76    6.76
   9 -15  -3   -0.96    5.06
   9 -15   3    2.87    5.45
  -9 -15  -3    0.96    3.17
  -9 -15   3    1.38    4.21
   9 -15   4   14.09   10.87
   9 -15  -4    9.82    6.67
  -9 -15   4   11.27    7.58
  -9 -15  -4    7.30    5.98
   9 -15  -5    6.90    6.21
   9 -15   5    9.81    8.81
  -9 -15   5   10.30    7.13
  -9 -15  -5    5.61    5.96
   9 -15  -6   -0.45    3.36
   9 -15   6    3.62    5.74
  -9 -15   6   -1.18    4.39
  -9 -15  -6    1.14    4.48
  -9 -15   7   -2.09    3.07
   9 -15  -7    0.30    3.42
  -9 -15  -7    0.71    1.84
  -9 -15   8    0.49    0.96
   9 -15  -8   -2.91    5.28
  -9 -15  -8   -1.70    2.37
  -9 -15   9   -2.71    6.14
   9 -15  -9    0.26    2.92
  -9 -15  -9    1.27    3.79
   9 -15 -10   -1.13    3.81
  -9 -15 -10   -1.46    3.78
   9 -15 -11    3.68    4.65
  -9 -15 -11    0.41    2.46
   9 -15 -12    1.67    4.00
   9 -15 -13    0.63    3.82
   9 -15 -14   -0.48    5.10
  10 -15   0    2.34    4.49
 -10 -15   0    0.08    3.00
  10 -15   1   26.39   14.39
  10 -15  -1   23.73   13.18
 -10 -15   1   19.00   11.02
 -10 -15  -1   20.17   10.75
  10 -15  -2   -1.77    1.53
  10 -15   2    1.80    3.39
 -10 -15  -2    0.48    1.95
 -10 -15   2    3.23    5.34
  10 -15   3   14.43   10.90
  10 -15  -3   10.02    8.72
 -10 -15  -3   10.80    7.53
 -10 -15   3   12.25    9.02
  10 -15   4    7.14    8.27
  10 -15  -4    5.29    6.46
 -10 -15   4    7.94    7.12
 -10 -15  -4    4.84    5.34
  10 -15  -5   14.22    9.88
  10 -15   5   19.26   13.32
 -10 -15   5   18.54   10.07
 -10 -15  -5   17.93   10.94
  10 -15  -6   -2.56    5.86
 -10 -15   6   -1.15    4.05
 -10 -15  -6    3.03    6.91
 -10 -15   7    7.90    7.13
  10 -15  -7    1.98    3.93
 -10 -15  -7    7.27    6.88
  10 -15  -8    2.58    5.63
 -10 -15   8    1.26    2.66
 -10 -15  -8    3.89    3.70
  10 -15  -9    6.63    8.07
 -10 -15  -9    5.27    5.61
  10 -15 -10    2.65    5.50
 -10 -15 -10    1.05    2.59
  10 -15 -11    4.07    7.60
  10 -15 -12    2.13    5.90
  10 -15 -13    0.20    1.34
  11 -15   0   27.42   14.32
 -11 -15   0   25.35   12.36
  11 -15   1   -0.84    3.35
  11 -15  -1    0.95    3.14
 -11 -15  -1   -1.68    1.52
 -11 -15   1    0.31    1.76
  11 -15  -2   45.93   18.74
  11 -15   2   54.51   21.53
 -11 -15  -2   46.21   16.84
 -11 -15   2   56.22   17.72
  11 -15   3    3.90    6.57
  11 -15  -3    3.83    6.38
 -11 -15  -3    3.38    5.57
 -11 -15   3    3.67    5.52
  11 -15  -4   53.51   20.27
  11 -15   4   65.05   23.57
 -11 -15   4   51.34   17.18
 -11 -15  -4   56.89   19.41
  11 -15  -5    1.92    5.01
 -11 -15   5    2.31    3.94
 -11 -15  -5    1.34    3.48
  11 -15  -6   39.00   17.13
 -11 -15   6   37.55   14.18
 -11 -15  -6   35.22   15.81
 -11 -15   7    2.37    4.20
  11 -15  -7    1.07    1.58
 -11 -15  -7    2.20    5.30
  11 -15  -8    9.49    8.76
 -11 -15  -8    6.88    7.14
  11 -15  -9   -0.05    4.36
 -11 -15  -9    1.62    4.89
  11 -15 -10   14.55   11.45
  11 -15 -11    1.30    5.30
  11 -15 -12   12.23   10.42
  12 -15   0    7.42    8.65
 -12 -15   0    2.04    3.52
  12 -15  -1    9.17    9.35
  12 -15   1    5.64    8.20
 -12 -15  -1   13.23    8.62
 -12 -15   1   12.15    8.21
  12 -15   2    5.30    6.47
  12 -15  -2   -1.16    3.68
 -12 -15  -2    1.60    4.80
 -12 -15   2    4.47    5.91
  12 -15  -3    8.82    9.63
 -12 -15   3   11.64    8.51
 -12 -15  -3    8.95    7.96
  12 -15  -4    3.60    5.96
 -12 -15  -4    2.56    3.88
 -12 -15   4    5.99    7.16
  12 -15  -5    3.49    4.88
 -12 -15   5    8.19    7.32
 -12 -15  -5    5.39    6.50
 -12 -15   6    3.30    4.35
  12 -15  -6    1.89    6.49
 -12 -15  -6    0.75    0.65
  12 -15  -7    2.36    3.08
 -12 -15  -7    7.19    8.06
  12 -15  -8    0.96    5.30
 -12 -15  -8   -0.17    3.03
  12 -15  -9    3.86    4.39
  12 -15 -10   -3.33    4.91
  12 -15 -11    3.46    6.72
  13 -15   0   11.36   10.14
 -13 -15   0   11.41    8.06
  13 -15  -1   -0.57    1.94
  13 -15   1   -0.73    2.60
 -13 -15  -1    2.65    4.10
 -13 -15   1    0.60    1.94
  13 -15  -2   25.80   15.09
 -13 -15  -2   25.26   13.12
 -13 -15   2   22.81   11.14
  13 -15  -3    0.35    1.12
 -13 -15   3    0.05    2.97
 -13 -15  -3    0.39    4.16
  13 -15  -4   23.47   14.99
 -13 -15   4   24.87   11.73
 -13 -15  -4   25.55   13.64
  13 -15  -5   -0.15    2.30
 -13 -15  -5    0.65    2.87
 -13 -15   5    0.13    3.05
  13 -15  -6   12.01   11.13
 -13 -15  -6   22.86   13.49
  13 -15  -7   -1.65    5.94
 -13 -15  -7    5.85    7.59
  13 -15  -8   -2.53    5.54
  13 -15  -9    4.03    7.14
  13 -15 -10    3.68    6.02
 -14 -15   0   -0.60    3.93
  14 -15  -1   -0.42    4.28
 -14 -15  -1   -0.48    1.10
 -14 -15   1   -0.66    3.75
  14 -15  -2    2.04    4.80
 -14 -15   2   -2.85    6.89
 -14 -15  -2    0.92    3.50
  14 -15  -3    1.42    6.83
 -14 -15   3   -0.28    1.02
 -14 -15  -3   -1.76    5.49
  14 -15  -4   -1.80    3.69
 -14 -15  -4    1.19    3.26
 -14 -15   4    2.16    4.37
  14 -15  -5   -0.44    3.35
 -14 -15  -5   -0.38    3.75
  14 -15  -6    2.67    6.73
 -14 -15  -6   -1.08    4.50
  14 -15  -7   -0.06    2.71
  14 -15  -8   -3.24    6.10
  14 -15  -9    1.09    3.42
  14 -15 -10    2.09    0.69
 -15 -15   0    6.24    5.99
 -15 -15  -1    3.28    2.19
 -15 -15   1    0.22    3.37
 -15 -15   2   12.59    8.40
 -15 -15  -2   11.61    8.45
 -15 -15   3    0.25    2.53
 -15 -15  -3   -2.58    5.38
  15 -15  -4    0.56    5.75
 -15 -15  -4   -1.12    4.20
  15 -15  -5    0.47    4.64
  15 -15  -6    5.05    4.96
  15 -15  -7   -2.15    6.79
  15 -15  -8    1.96    2.97
  15 -15  -9    4.14    6.31
 -16 -15   0    2.96    4.89
 -16 -15   1   -1.74    3.42
 -16 -15  -1   -1.52    3.55
 -16 -15   2    2.18    2.44
 -16 -15  -2    1.09    1.62
 -16 -15  -3    0.52    4.84
 -17 -15   0   30.36   14.87
 -17 -15   1    1.80    4.54
 -17 -15  -1    0.07    3.57
   0 -16   0    8.61    7.80
   0 -16  -1   -0.31    3.21
   0 -16   1    1.90    2.54
   0 -16  -2    4.12    5.78
   0 -16   2   -1.37    4.81
   0 -16   3   -0.88    3.58
   0 -16  -3    0.43    2.06
   0 -16   4   -2.46    6.35
   0 -16  -4   -0.43    4.48
   0 -16  -5    0.90    1.91
   0 -16   5   -3.04    6.66
   0 -16   6   -3.14    5.75
   0 -16  -6   -2.29    4.21
   0 -16   7    2.57    4.26
   0 -16  -7    1.32    3.66
   0 -16   8    2.58    4.15
   0 -16  -8    4.75    6.95
   0 -16   9    0.68    2.23
   0 -16  -9    2.16    4.92
   0 -16  10    7.73    7.86
   0 -16 -10   11.29    9.15
   0 -16  11    0.63    3.43
   0 -16 -11    2.25    5.67
   0 -16  12    2.43    2.40
   0 -16 -12    2.04    4.67
   0 -16  13    3.33    2.81
   0 -16 -13    1.15    4.44
   0 -16 -14    4.39    6.06
  -1 -16   0    0.62    3.51
   1 -16   0    0.82    3.56
  -1 -16   1    2.01    3.46
   1 -16  -1    0.97    3.16
   1 -16   1    1.25    1.19
  -1 -16  -1   -0.71    2.22
   1 -16  -2    8.34    8.23
  -1 -16   2    7.31    6.80
   1 -16   2    6.58    6.76
  -1 -16  -2    5.05    6.58
   1 -16  -3    0.66    2.26
  -1 -16   3   -1.11    4.60
   1 -16   3   -1.13    5.27
  -1 -16  -3    1.72    3.78
  -1 -16   4   -0.83    5.41
  -1 -16  -4    1.66    5.10
   1 -16   4   -2.03    3.77
   1 -16  -4   -2.46    3.11
  -1 -16   5    0.77    1.80
  -1 -16  -5    0.50    1.67
   1 -16  -5   -0.30    1.48
   1 -16   5    0.75    3.27
   1 -16   6   -3.96    6.20
  -1 -16  -6    1.17    4.74
   1 -16  -6   -1.36    5.02
  -1 -16   6   -4.20    7.21
  -1 -16   7   -0.53    3.07
   1 -16   7    2.15    2.68
   1 -16  -7    0.94    2.04
  -1 -16  -7    1.52    2.57
  -1 -16   8   10.54    8.54
   1 -16   8   13.30   10.29
   1 -16  -8   13.12    9.50
  -1 -16  -8   17.77   11.22
   1 -16   9    2.57    3.53
  -1 -16   9    0.42    3.83
   1 -16  -9    4.18    5.98
  -1 -16  -9    3.56    5.59
   1 -16  10   -0.33    3.62
   1 -16 -10   -2.16    4.79
  -1 -16  10    6.79    7.59
  -1 -16 -10    1.04    3.20
   1 -16  11    0.79    2.16
  -1 -16  11    2.82    3.78
  -1 -16 -11    2.89    5.55
   1 -16 -11    2.32    4.40
  -1 -16  12    0.10    3.75
   1 -16  12    4.07    6.77
   1 -16 -12    0.55    3.87
  -1 -16 -12   -3.43    5.03
  -1 -16  13    2.84    3.60
  -1 -16 -13    0.43    0.78
   1 -16 -13   -0.98    1.85
   1 -16 -14    2.04    6.83
  -1 -16 -14   -0.57    4.66
   1 -16 -15   -0.91    0.44
   2 -16   0    2.07    3.74
  -2 -16   0    0.77    1.67
  -2 -16   1   -1.51    2.95
   2 -16  -1   -4.04    6.20
   2 -16   1   -0.75    0.18
  -2 -16  -1    0.82    2.62
  -2 -16   2    0.56    1.27
   2 -16  -2    1.38    3.68
   2 -16   2    0.79    3.43
  -2 -16  -2    1.16    2.05
   2 -16  -3    0.26    0.92
  -2 -16   3   -1.30    2.70
  -2 -16  -3    2.44    3.36
   2 -16   3    0.30    3.45
   2 -16  -4    2.11    3.59
  -2 -16   4   -3.20    7.09
  -2 -16  -4    0.25    3.49
   2 -16   4    0.34    2.81
   2 -16  -5    2.96    5.10
   2 -16   5    0.32    2.03
  -2 -16   5   -3.68    6.58
  -2 -16  -5    0.78    4.69
   2 -16   6    0.94    0.76
  -2 -16   6   -1.19    0.84
   2 -16  -6   -0.13    0.79
  -2 -16  -6    0.05    3.71
   2 -16   7    0.88    2.35
   2 -16  -7   -2.99    6.13
  -2 -16   7   -2.02    3.22
  -2 -16  -7    4.26    6.29
  -2 -16   8   -1.38    1.11
   2 -16  -8   -2.19    5.62
   2 -16   8   -0.32    1.97
  -2 -16  -8    5.13    7.06
   2 -16   9    2.23    3.41
  -2 -16   9    2.28    4.37
   2 -16  -9    1.96    4.75
  -2 -16  -9    5.58    7.52
  -2 -16  10    1.49    2.57
   2 -16 -10    2.29    5.26
   2 -16  10   -1.84    2.20
  -2 -16 -10    1.28    4.16
  -2 -16  11   -2.27    4.11
   2 -16  11    5.61    7.01
   2 -16 -11    0.32    3.69
  -2 -16 -11   -0.28    4.33
  -2 -16  12    1.34    3.75
   2 -16  12   -2.10    4.50
   2 -16 -12    0.94    3.75
  -2 -16 -12   -3.73    6.26
  -2 -16  13    1.69    3.47
   2 -16 -13    2.92    4.76
  -2 -16 -13   -0.53    3.72
   2 -16 -14    0.56    4.02
  -2 -16 -14   -4.11    6.14
   2 -16 -15    3.62    4.69
   3 -16   0    0.91    1.24
  -3 -16   0    3.09    4.97
   3 -16  -1   -0.06    2.87
   3 -16   1    2.08    4.76
  -3 -16  -1    1.16    4.04
  -3 -16   1   -0.80    1.17
  -3 -16   2   -0.90    4.08
   3 -16  -2   -0.84    3.81
  -3 -16  -2    1.09    4.76
   3 -16   2   -1.77    5.92
  -3 -16   3    1.65    1.98
   3 -16  -3    1.67    3.71
  -3 -16  -3   -0.26    2.22
   3 -16   3    0.12    3.85
   3 -16   4    5.48    4.44
   3 -16  -4    1.16    4.13
  -3 -16   4    1.25    3.21
  -3 -16  -4    2.78    5.05
   3 -16  -5   -1.00    4.11
   3 -16   5   -2.00    5.22
  -3 -16   5   -0.67    3.36
  -3 -16  -5    0.33    1.89
   3 -16  -6    1.10    2.34
   3 -16   6    2.67    3.98
  -3 -16   6   -0.93    3.10
  -3 -16  -6   -2.05    5.07
   3 -16  -7   -2.04    4.69
  -3 -16   7   -0.04    1.86
   3 -16   7   -0.94    3.81
  -3 -16  -7    2.41    5.48
  -3 -16   8    0.64    2.68
   3 -16   8    3.90    5.36
   3 -16  -8    2.15    1.19
  -3 -16  -8    1.98    2.70
  -3 -16   9    2.10    4.04
   3 -16   9   -0.64    2.24
   3 -16  -9   -1.43    3.30
  -3 -16  -9    0.14    4.28
   3 -16  10    6.19    6.96
  -3 -16  10    4.12    5.53
   3 -16 -10    5.94    5.84
  -3 -16 -10    5.40    4.61
   3 -16  11    0.56    1.16
   3 -16 -11    3.19    6.42
  -3 -16  11   -0.08    3.04
  -3 -16 -11    1.32    0.74
  -3 -16  12    2.12    4.74
   3 -16 -12    0.62    3.89
  -3 -16 -12   -0.62    4.63
  -3 -16  13    1.90    3.50
   3 -16 -13   -0.26    4.84
  -3 -16 -13   -1.33    4.40
   3 -16 -14   -1.46    5.64
   3 -16 -15   -0.14    2.31
   4 -16   0    2.48    2.20
  -4 -16   0    0.47    2.56
   4 -16  -1    3.72    5.01
  -4 -16  -1   -0.53    1.07
   4 -16   1   -0.76    3.20
  -4 -16   1    0.09    1.67
   4 -16   2    0.29    2.01
   4 -16  -2   -1.31    2.68
  -4 -16   2   -1.98    6.46
  -4 -16  -2    0.69    2.08
  -4 -16   3    0.27    4.22
   4 -16   3   -0.07    2.63
   4 -16  -3    3.12    5.39
  -4 -16  -3    1.99    5.23
  -4 -16   4   -1.20    1.35
   4 -16  -4    1.40    4.57
   4 -16   4    0.55    2.30
  -4 -16  -4    0.70    2.87
   4 -16  -5    0.02    2.26
  -4 -16   5   -0.10    1.98
   4 -16   5   -0.64    3.57
  -4 -16  -5    3.82    5.65
   4 -16  -6    6.49    6.25
  -4 -16   6    1.36    1.14
   4 -16   6    1.98    5.02
  -4 -16  -6    6.64    5.57
   4 -16   7    0.31    2.92
   4 -16  -7   -0.10    0.55
  -4 -16   7    0.10    4.82
  -4 -16  -7   -1.58    6.02
   4 -16  -8    8.96    8.24
   4 -16   8    6.03    7.11
  -4 -16   8    6.52    6.24
  -4 -16  -8    3.91    4.01
   4 -16  -9   -2.14    6.54
   4 -16   9    1.78    1.31
  -4 -16   9   -0.20    1.98
  -4 -16  -9    1.29    2.54
   4 -16  10   -0.60    4.54
  -4 -16  10   -0.19    2.65
   4 -16 -10    1.07    2.02
  -4 -16 -10   -3.62    5.60
  -4 -16  11   -1.55    3.26
   4 -16  11    1.34    3.86
   4 -16 -11   -0.23    2.94
  -4 -16 -11   -3.78    5.63
  -4 -16  12    2.09    4.12
   4 -16 -12    2.79    5.08
  -4 -16 -12    3.19    4.58
   4 -16 -13    4.75    6.72
   4 -16 -14    2.74    5.11
   4 -16 -15    0.52    3.46
   4 -16 -16    0.16    0.97
  -5 -16   0    6.43    5.73
   5 -16   0    3.37    3.45
   5 -16   1    0.30    3.35
   5 -16  -1    0.08    3.77
  -5 -16   1    3.40    5.16
  -5 -16  -1    2.65    4.14
   5 -16   2   11.34    9.36
   5 -16  -2   10.62    8.20
  -5 -16   2   14.34    8.92
  -5 -16  -2   17.05   10.75
  -5 -16   3   -3.74    5.20
   5 -16   3   -2.86    6.11
   5 -16  -3    2.67    4.46
  -5 -16  -3   -0.54    1.60
  -5 -16   4   -1.01    3.56
   5 -16  -4    1.34    1.83
   5 -16   4    3.55    4.27
  -5 -16  -4    2.96    4.67
  -5 -16   5    0.44    1.03
   5 -16  -5   -2.71    5.98
   5 -16   5    1.16    3.34
  -5 -16  -5   -3.91    4.95
   5 -16   6   -0.66    2.56
   5 -16  -6    1.68    4.23
  -5 -16   6   -1.95    2.84
  -5 -16  -6   -0.93    4.48
   5 -16  -7   -3.21    5.46
   5 -16   7    3.29    5.84
  -5 -16   7   -3.52    4.97
  -5 -16  -7   -1.94    5.84
   5 -16  -8    8.13    7.49
  -5 -16   8    6.08    5.55
   5 -16   8    7.13    7.44
  -5 -16  -8   10.00    7.72
   5 -16  -9    0.53    2.44
   5 -16   9   -2.17    5.17
  -5 -16   9    2.96    3.25
  -5 -16  -9    1.50    3.85
   5 -16 -10   -2.12    6.64
  -5 -16  10   -0.76    2.55
   5 -16  10   -1.37    6.07
  -5 -16 -10   -1.34    4.31
   5 -16 -11    0.88    1.85
  -5 -16  11    2.54    3.91
  -5 -16 -11   -1.53    6.10
   5 -16 -12   -2.40    4.93
  -5 -16 -12   -1.57    3.81
   5 -16 -13    2.42    4.88
   5 -16 -14    1.31    3.81
   5 -16 -15   -0.31    2.22
   5 -16 -16    0.60    0.89
   6 -16   0    3.90    7.36
  -6 -16   0    3.50    5.90
   6 -16   1    8.50    7.53
  -6 -16   1   13.50    9.12
   6 -16  -1    7.51    6.73
  -6 -16  -1   10.12    9.39
   6 -16   2    6.99    7.57
  -6 -16   2    7.79    7.31
   6 -16  -2    6.18    4.73
  -6 -16  -2   10.62    8.77
   6 -16   3   -1.59    4.22
   6 -16  -3   -2.13    4.42
  -6 -16   3   -1.51    2.83
  -6 -16  -3    1.58    3.02
  -6 -16   4    1.86    2.48
   6 -16  -4   -1.65    4.85
   6 -16   4    0.54    1.18
  -6 -16  -4    2.33    3.72
   6 -16   5   -0.27    2.89
  -6 -16   5    0.00    0.98
   6 -16  -5   -2.25    5.03
  -6 -16  -5   -2.75    5.07
  -6 -16   6    1.82    1.14
   6 -16   6    0.63    1.60
   6 -16  -6    1.35    3.34
  -6 -16  -6   -2.66    4.89
   6 -16  -7    3.80    3.91
  -6 -16   7    0.95    1.33
   6 -16   7    1.48    4.41
  -6 -16  -7    3.69    6.23
   6 -16  -8   -1.54    5.71
   6 -16   8    0.70    2.48
  -6 -16   8    1.21    3.06
  -6 -16  -8    1.79    5.29
   6 -16  -9   -1.72    4.45
  -6 -16   9   -0.32    3.18
   6 -16   9    1.69    2.77
  -6 -16  -9   -0.72    2.44
  -6 -16  10   -0.79    2.27
   6 -16 -10   -3.62    5.50
  -6 -16 -10    1.91    3.92
   6 -16 -11    0.45    2.28
  -6 -16  11    2.27    4.62
  -6 -16 -11    0.36    1.30
   6 -16 -12   -0.39    1.44
   6 -16 -13    1.61    5.99
   6 -16 -14   -1.40    3.22
   6 -16 -15    2.30    1.57
   7 -16   0   39.36   17.36
  -7 -16   0   33.40   15.08
   7 -16  -1    1.08    0.49
   7 -16   1    2.23    4.32
  -7 -16   1    2.63    3.67
  -7 -16  -1   -0.86    1.49
   7 -16  -2    1.57    3.90
   7 -16   2   -0.36    5.12
  -7 -16   2    2.07    1.16
  -7 -16  -2    5.75    6.73
  -7 -16   3    0.22    2.00
   7 -16   3    3.15    7.12
   7 -16  -3    1.67    2.30
  -7 -16  -3   -0.51    4.36
   7 -16   4    1.03    4.04
   7 -16  -4   -0.23    1.59
  -7 -16   4    0.89    1.32
  -7 -16  -4   -2.45    4.32
  -7 -16   5   -0.95    3.78
   7 -16   5   -0.01    2.63
   7 -16  -5   -0.06    3.59
  -7 -16  -5   -0.55    2.92
  -7 -16   6   -0.62    3.27
   7 -16  -6    0.59    4.25
   7 -16   6    0.35    2.69
  -7 -16  -6    0.07    2.11
  -7 -16   7   -3.50    4.88
   7 -16   7   -0.93    4.44
   7 -16  -7   -0.64    4.60
  -7 -16  -7    2.36    3.63
   7 -16  -8    5.32    6.31
  -7 -16   8    5.37    5.18
   7 -16   8    3.83    5.07
  -7 -16  -8    4.25    5.48
   7 -16  -9    0.40    4.07
  -7 -16   9    2.00    4.05
  -7 -16  -9   -0.97    2.22
  -7 -16  10    4.33    5.10
   7 -16 -10    3.57    1.07
  -7 -16 -10    0.65    2.50
   7 -16 -11   -1.66    3.01
   7 -16 -12   -0.95    2.82
   7 -16 -13   -2.38    5.43
   7 -16 -14   -0.68    4.19
   7 -16 -15   -0.65    2.68
   8 -16   0   -2.59    5.26
  -8 -16   0    2.12    5.96
   8 -16  -1   -1.32    5.40
   8 -16   1    5.98    7.76
  -8 -16  -1    3.83    5.27
  -8 -16   1   -0.35    1.38
   8 -16  -2    1.55    7.23
  -8 -16   2    1.73    4.08
   8 -16   2   -0.61    4.61
  -8 -16  -2    0.32    3.46
   8 -16  -3    0.70    3.41
   8 -16   3    3.10    6.57
  -8 -16   3    1.04    3.51
  -8 -16  -3   -0.34    3.11
   8 -16  -4   -1.76    3.69
   8 -16   4    0.02    3.36
  -8 -16   4    1.99    3.36
  -8 -16  -4   -0.76    4.02
  -8 -16   5   -2.73    5.44
   8 -16  -5    0.75    2.83
   8 -16   5    1.44    3.35
  -8 -16  -5    1.39    3.77
  -8 -16   6   -3.16    5.73
   8 -16   6    1.63    6.09
   8 -16  -6   -2.02    4.25
  -8 -16  -6    1.01    3.59
  -8 -16   7   -3.03    6.12
   8 -16   7    0.80    3.05
   8 -16  -7    1.41    3.97
  -8 -16  -7    3.31    5.54
  -8 -16   8    5.18    4.22
   8 -16  -8    5.19    6.69
  -8 -16  -8    4.63    4.71
   8 -16  -9    5.60    7.32
  -8 -16   9   -0.18    3.47
  -8 -16  -9    0.65    3.39
   8 -16 -10    1.11    0.72
  -8 -16 -10   -1.24    3.21
   8 -16 -11   -0.44    2.80
   8 -16 -12   -1.22    6.69
   8 -16 -13   -1.87    5.24
   8 -16 -14    2.22    4.32
   9 -16   0   -2.48    3.22
  -9 -16   0    2.33    3.80
   9 -16   1    1.19    5.19
   9 -16  -1    2.37    3.97
  -9 -16  -1    1.32    3.60
  -9 -16   1    1.06    3.41
   9 -16   2    3.58    6.51
   9 -16  -2   -1.79    5.15
  -9 -16   2    1.92    5.47
  -9 -16  -2    0.93    3.19
   9 -16  -3    1.60    0.29
   9 -16   3    4.04    7.18
  -9 -16   3    3.01    5.25
  -9 -16  -3   -1.24    3.63
   9 -16   4    7.89    8.33
   9 -16  -4    4.29    5.95
  -9 -16   4    2.36    3.80
  -9 -16  -4    1.44    1.09
   9 -16  -5   -2.21    3.30
   9 -16   5   -1.18    5.14
  -9 -16   5   -2.58    3.97
  -9 -16  -5   -2.30    3.54
  -9 -16   6    2.79    1.78
   9 -16  -6    3.02    6.44
   9 -16   6   -0.93    1.29
  -9 -16  -6   -1.33    5.94
  -9 -16   7    2.83    3.10
   9 -16  -7    1.22    3.20
  -9 -16  -7    1.94    2.25
  -9 -16   8    0.88    3.62
   9 -16  -8    1.85    4.03
  -9 -16  -8   -0.05    2.80
   9 -16  -9    1.86    3.81
  -9 -16  -9   -2.23    4.00
   9 -16 -10    1.07    4.57
   9 -16 -11    2.15    4.76
   9 -16 -12    3.40    6.62
   9 -16 -13    2.10    4.52
   9 -16 -14   -0.49    1.22
  10 -16   0    3.58    4.25
 -10 -16   0    5.75    4.75
  10 -16  -1   -2.05    4.96
  10 -16   1    1.64    5.18
 -10 -16  -1   -0.92    5.27
 -10 -16   1    2.01    3.50
  10 -16  -2    6.44    8.24
  10 -16   2   -0.79    1.68
 -10 -16   2    3.49    3.66
 -10 -16  -2   -1.67    3.66
  10 -16   3    4.09    5.05
  10 -16  -3    2.25    3.70
 -10 -16   3    3.29    3.95
 -10 -16  -3    3.74    5.03
  10 -16  -4    1.87    5.94
 -10 -16   4    1.70    3.21
  10 -16   4    0.02    4.14
 -10 -16  -4   -2.11    3.80
  10 -16   5   11.45    9.67
  10 -16  -5   10.11    9.81
 -10 -16   5   13.59    9.06
 -10 -16  -5   14.65   10.05
 -10 -16   6    0.38    3.15
  10 -16  -6   -2.64    3.78
 -10 -16  -6   -3.64    7.38
 -10 -16   7    0.35    1.01
  10 -16  -7    1.37    2.68
 -10 -16  -7   -1.06    6.09
  10 -16  -8   -1.08    3.36
 -10 -16  -8    0.67    2.29
  10 -16  -9    4.21    6.89
  10 -16 -10    2.55    5.89
  10 -16 -11    3.54    6.02
  10 -16 -12    1.60    5.94
  10 -16 -13   -1.85    2.96
  11 -16   0    2.03    5.92
 -11 -16   0   -0.17    2.77
  11 -16   1    1.81    4.05
  11 -16  -1    0.59    3.58
 -11 -16   1    2.07    3.74
 -11 -16  -1   -0.60    2.64
  11 -16  -2    0.70    2.95
  11 -16   2    1.43    1.33
 -11 -16   2    0.99    2.18
 -11 -16  -2    1.90    2.33
  11 -16  -3    1.25    4.57
  11 -16   3   -3.81    5.80
 -11 -16  -3   -2.19    3.11
 -11 -16   3    2.34    4.56
  11 -16   4   -2.33    5.86
 -11 -16   4    0.50    1.51
  11 -16  -4    0.14    2.01
 -11 -16  -4    0.62    2.05
  11 -16  -5   -1.35    1.92
 -11 -16   5   -0.02    2.51
 -11 -16  -5    1.23    2.97
  11 -16  -6    3.88    7.38
 -11 -16   6   -0.63    3.35
 -11 -16  -6    1.16    1.69
 -11 -16   7    0.31    1.13
  11 -16  -7    1.25    4.07
 -11 -16  -7   -0.31    3.93
  11 -16  -8    5.56    9.09
  11 -16  -9    0.26    3.22
  11 -16 -10   -0.30    3.12
  11 -16 -11   -1.06    3.60
  11 -16 -12    4.79    7.59
  12 -16   0    0.30    3.93
 -12 -16   0   -0.34    1.89
  12 -16  -1   -3.00    5.13
  12 -16   1   -1.86    2.95
 -12 -16   1   -4.00    5.42
 -12 -16  -1   -0.78    1.92
  12 -16  -2   -1.64    4.68
  12 -16   2   -0.26    4.01
 -12 -16  -2   -0.20    2.95
 -12 -16   2    0.23    2.57
  12 -16  -3    2.31    3.61
 -12 -16   3   -0.37    2.57
 -12 -16  -3   -0.57    1.19
  12 -16  -4   -1.55    4.44
 -12 -16   4    0.84    2.65
 -12 -16  -4   -0.30    0.51
  12 -16  -5    2.51    5.41
 -12 -16   5    1.38    4.08
 -12 -16  -5   -2.42    4.49
 -12 -16   6    0.23    2.06
  12 -16  -6    1.19    3.75
  12 -16  -7    2.85    3.15
  12 -16  -8   -0.21    4.56
  12 -16  -9   -1.33    3.46
  12 -16 -10    3.83    6.40
  12 -16 -11   -0.35    3.58
  13 -16   0   -2.15    8.23
 -13 -16   0   -3.28    6.67
  13 -16   1   -4.62    8.50
  13 -16  -1    1.90    1.71
 -13 -16   1   -4.14    6.30
 -13 -16  -1   -1.47    3.40
  13 -16  -2   -0.15    5.28
 -13 -16  -2   -1.00    3.20
 -13 -16   2   -1.48    3.45
  13 -16  -3   -1.24    5.25
 -13 -16  -3   -0.21    2.97
 -13 -16   3    1.96    3.74
  13 -16  -4   -1.77    4.62
 -13 -16  -4   -4.76    7.30
 -13 -16   4    2.54    3.15
  13 -16  -5   -0.56    2.05
 -13 -16   5   -1.74    3.10
  13 -16  -6   -2.98    7.76
  13 -16  -7   -4.56    6.86
  13 -16  -8   -0.31    3.44
  13 -16  -9    1.88    4.68
  13 -16 -10    3.93    6.85
 -14 -16   0   -3.95    6.79
 -14 -16  -1    3.14    2.05
 -14 -16   1   -2.50    5.49
  14 -16  -2    3.09    6.79
 -14 -16  -2   -2.10    4.80
 -14 -16   2   -1.07    4.31
  14 -16  -3    1.56    4.53
 -14 -16   3    3.67    4.28
 -14 -16  -3    1.63    1.96
  14 -16  -4   -3.31    4.86
 -14 -16   4   -0.48    1.31
  14 -16  -5    0.53    3.57
  14 -16  -6    0.36    7.38
  14 -16  -7   14.15   12.03
  14 -16  -8    3.21    7.69
  14 -16  -9    3.58    2.76
 -15 -16   0   -3.89    7.11
 -15 -16  -1   -3.99    5.76
 -15 -16   1   -4.15    7.13
 -15 -16   2   -3.27    5.97
 -15 -16   3   -1.91    4.75
 -16 -16   1    0.52    3.82
 -16 -16   2   -1.60    3.70
   0 -17   0    4.56    6.34
   0 -17  -1   36.06   15.83
   0 -17   1   39.68   17.01
   0 -17  -2    0.20    1.25
   0 -17   2    3.47    5.81
   0 -17  -3   21.63   12.21
   0 -17   3   17.94   10.71
   0 -17   4   -1.64    2.17
   0 -17  -4    1.36    5.88
   0 -17  -5   25.22   13.64
   0 -17   5   24.85   13.93
   0 -17   6   -1.19    3.59
   0 -17  -6    2.28    3.85
   0 -17   7   34.86   16.31
   0 -17  -7   42.23   17.89
   0 -17   8    5.29    5.93
   0 -17  -8    3.47    5.86
   0 -17   9   39.66   17.61
   0 -17  -9   50.50   19.82
   0 -17  10    2.05    6.34
   0 -17 -10    3.07    4.39
   0 -17  11    7.29    7.95
   0 -17 -11    9.65    8.56
   0 -17  12    0.70    1.66
   0 -17  13   -1.60    2.23
  -1 -17   0    2.29    4.80
   1 -17   0   -0.36    3.24
  -1 -17  -1    8.05    7.69
  -1 -17   1   10.61    8.83
   1 -17  -1   10.18    8.33
   1 -17   1    8.18    8.03
   1 -17  -2    1.71    0.85
  -1 -17   2   -0.86    0.83
   1 -17   2   -2.42    4.09
  -1 -17  -2    2.41    5.03
   1 -17  -3   10.22    9.70
  -1 -17   3    6.44    6.07
   1 -17   3   13.40    9.42
  -1 -17  -3   12.13    8.84
   1 -17  -4    0.29    0.28
  -1 -17   4    0.74    3.52
  -1 -17  -4    3.29    6.55
   1 -17   4   -0.94    1.81
   1 -17   5   -0.91    2.49
  -1 -17   5    1.41    4.63
  -1 -17  -5    3.69    6.48
   1 -17  -5   -0.10    3.71
   1 -17   6   -0.96    2.02
  -1 -17  -6    1.64    4.31
   1 -17  -6   -0.27    3.01
  -1 -17   6    0.44    2.45
  -1 -17   7    7.29    7.24
   1 -17   7    8.71    8.39
  -1 -17  -7    3.99    5.88
   1 -17  -7    4.59    6.71
  -1 -17   8    2.04    5.34
  -1 -17  -8    1.53    4.32
   1 -17   8    1.65    0.67
   1 -17  -8   -2.92    3.37
   1 -17   9   10.62    9.99
  -1 -17   9    6.86    7.48
   1 -17  -9   10.32    8.46
  -1 -17  -9   10.85    9.90
   1 -17  10   -0.65    2.62
   1 -17 -10    0.45    5.82
  -1 -17  10    4.43    7.36
  -1 -17 -10    0.14    3.75
   1 -17  11    0.06    4.35
  -1 -17  11   -2.84    5.49
   1 -17 -11    3.66    5.85
  -1 -17 -11    3.98    5.93
  -1 -17  12    1.73    2.86
   1 -17  12   -4.22    6.96
   1 -17 -12    0.05    3.36
  -1 -17  13   -0.36    1.52
  -2 -17   0    3.71    6.67
   2 -17   0    4.25    5.94
  -2 -17   1   25.87   13.14
   2 -17  -1   30.60   15.00
   2 -17   1   18.52   11.39
  -2 -17  -1   30.63   14.54
  -2 -17   2    1.89    3.48
   2 -17  -2    3.26    4.41
   2 -17   2    0.79    1.71
  -2 -17  -2    2.69    4.56
   2 -17  -3    3.56    4.33
  -2 -17   3    4.95    5.37
  -2 -17  -3    4.86    4.88
   2 -17   3    5.71    6.18
   2 -17   4    1.33    2.41
   2 -17  -4    0.36    3.18
  -2 -17   4    2.98    4.96
  -2 -17  -4    2.48    4.68
   2 -17  -5    3.48    3.88
   2 -17   5    5.23    6.15
  -2 -17   5    9.93    8.29
  -2 -17  -5    3.54    4.04
   2 -17  -6    3.47    4.06
   2 -17   6    3.09    4.74
  -2 -17  -6    0.96    3.92
  -2 -17   6   -2.34    5.77
  -2 -17   7   15.16   11.61
   2 -17   7   14.81   10.04
   2 -17  -7   16.39   10.76
  -2 -17  -7   12.47    8.79
  -2 -17   8   -1.41    3.02
   2 -17  -8   -0.74    2.10
   2 -17   8    1.28    4.65
  -2 -17  -8    2.63    5.64
   2 -17   9    1.29    3.56
  -2 -17   9    8.45    8.70
   2 -17  -9    7.20    7.32
  -2 -17  -9    7.82    8.70
  -2 -17  10    1.81    4.22
   2 -17  10   -2.14    6.12
   2 -17 -10    1.21    4.45
  -2 -17 -10    0.61    2.94
  -2 -17  11   -0.56    2.21
   2 -17  11   -0.02    4.67
   2 -17 -11    5.77    8.99
   2 -17  12    1.13    2.39
  -2 -17  12   -1.33    2.89
   2 -17 -12    0.49    3.29
  -2 -17  13   -1.42    5.73
   3 -17   0   -1.04    1.82
  -3 -17   0   -1.73    5.35
  -3 -17   1   -2.01    3.50
   3 -17  -1   -2.07    4.43
   3 -17   1   -0.42    4.02
  -3 -17  -1    0.10    2.03
  -3 -17   2   -0.57    1.64
   3 -17  -2   -2.67    4.59
  -3 -17  -2   -0.19    3.13
   3 -17   2   -0.26    3.89
   3 -17   3    0.49    2.52
  -3 -17   3   -0.28    0.76
   3 -17  -3   -2.07    3.09
  -3 -17  -3   -1.13    4.77
   3 -17   4    3.96    6.49
   3 -17  -4   -0.69    2.01
  -3 -17   4   -0.06    1.40
  -3 -17  -4    1.26    1.30
   3 -17  -5   -0.26    1.39
   3 -17   5    1.02    2.11
  -3 -17   5    1.03    1.47
  -3 -17  -5    1.45    4.63
   3 -17  -6   -2.22    6.57
   3 -17   6   -3.20    5.00
  -3 -17   6    0.81    1.33
  -3 -17  -6    3.15    3.97
   3 -17  -7   -5.64    7.68
  -3 -17   7   -0.01    3.76
   3 -17   7    0.92    3.68
  -3 -17  -7    2.15    4.37
   3 -17  -8   -9.38    8.14
  -3 -17   8    2.15    3.84
   3 -17   8   -2.56    5.94
  -3 -17  -8   -0.53    3.48
   3 -17  -9    0.18    1.61
  -3 -17   9   -0.57    1.67
   3 -17   9   -1.13    6.75
  -3 -17  -9    2.25    3.71
   3 -17  10    0.06    3.23
  -3 -17  10    1.70    6.58
   3 -17 -10    0.00    3.55
  -3 -17 -10   -7.48    7.20
   3 -17  11    0.41    2.63
   3 -17 -11    2.71    6.94
  -3 -17  11   -3.34    4.34
  -3 -17  12   -1.17    3.15
   3 -17 -12   -0.94    1.71
   4 -17   0   -0.48    2.72
  -4 -17   0    0.42    2.30
   4 -17  -1    1.37    4.20
  -4 -17  -1   -0.13    1.53
   4 -17   1    2.84    5.63
  -4 -17   1    0.24    2.39
  -4 -17   2   -1.32    3.17
   4 -17   2    0.38    3.80
   4 -17  -2   -9.92    8.44
  -4 -17  -2   -1.43    4.87
  -4 -17   3   -0.51    2.96
   4 -17   3    2.38    4.99
   4 -17  -3    2.37    3.69
  -4 -17  -3    3.60    5.45
  -4 -17   4   -1.30    4.88
   4 -17  -4    0.33    4.86
   4 -17   4    0.13    4.22
  -4 -17  -4   -0.63    1.13
   4 -17  -5    6.45    6.11
  -4 -17   5    8.14    7.40
   4 -17   5    2.81    3.66
  -4 -17  -5    8.82    7.98
   4 -17  -6   -0.84    4.72
  -4 -17   6   -3.38    5.57
   4 -17   6    2.78    5.75
  -4 -17  -6   -0.01    2.61
   4 -17   7    5.50    5.57
   4 -17  -7    1.02    3.00
  -4 -17   7    8.75    7.67
  -4 -17  -7    9.05    6.76
   4 -17  -8    0.62    3.01
   4 -17   8   -2.03    6.23
  -4 -17   8    1.19    3.29
  -4 -17  -8   -1.03    5.29
   4 -17  -9   -0.88    3.10
   4 -17   9    0.03    3.04
  -4 -17   9    0.52    0.93
  -4 -17  -9   -0.81    3.87
   4 -17  10    1.24    2.00
   4 -17 -10    0.26    3.21
  -4 -17  10   -0.26    2.34
   4 -17 -11    0.93    1.61
   4 -17  11    1.08    2.52
  -4 -17  11   -2.13    0.70
   4 -17 -12    2.03    5.05
  -4 -17  12   -0.74    4.62
  -5 -17   0   -0.44    3.60
   5 -17   0   -0.62    3.43
   5 -17   1   -1.19    1.45
  -5 -17  -1    3.18    5.83
   5 -17  -1   -0.75    4.24
  -5 -17   1    4.70    5.42
   5 -17   2    2.41    5.01
  -5 -17  -2    1.17    2.25
   5 -17  -2    0.75    3.03
  -5 -17   2    5.58    6.41
  -5 -17   3    1.75    2.51
   5 -17   3    0.27    1.43
   5 -17  -3    2.94    2.19
  -5 -17  -3   -0.49    3.21
  -5 -17   4    6.44    6.47
   5 -17  -4    7.22    6.50
   5 -17   4    4.90    7.06
  -5 -17  -4   10.00    8.04
  -5 -17   5    2.90    1.18
   5 -17  -5    2.82    2.09
   5 -17   5   11.24   10.75
  -5 -17  -5    3.77    5.37
   5 -17   6    5.78    6.61
   5 -17  -6    3.17    3.06
  -5 -17   6    1.98    2.41
  -5 -17  -6    4.34    6.13
   5 -17  -7   -2.35    4.95
   5 -17   7   -2.85    5.01
  -5 -17   7    4.47    4.74
  -5 -17  -7    2.31    4.92
   5 -17   8   -0.20    2.89
   5 -17  -8    0.36    3.46
  -5 -17   8   -0.89    2.20
  -5 -17  -8   -3.28    4.83
  -5 -17   9   -2.17    3.80
   5 -17  -9   -0.67    3.33
   5 -17   9   -1.69    3.18
  -5 -17  -9   -1.50    4.17
   5 -17 -10   -0.98    4.24
  -5 -17  10   -0.29    1.91
   5 -17  10   -2.27    6.49
   5 -17 -11   -0.21    0.70
  -5 -17  11    1.78    5.38
   5 -17 -12   -0.27    2.45
   6 -17   0    1.87    3.76
  -6 -17   0    3.02    4.33
   6 -17  -1    7.22    8.00
   6 -17   1    3.29    4.27
  -6 -17  -1    9.76    8.36
  -6 -17   1    8.41    7.82
   6 -17   2    5.15    6.74
   6 -17  -2    4.28    5.85
  -6 -17   2    8.54    8.12
  -6 -17  -2    5.96    7.70
  -6 -17   3   26.57   13.43
   6 -17   3   21.77   13.64
   6 -17  -3   22.58   13.28
  -6 -17  -3   22.54   12.86
  -6 -17   4    3.31    6.31
   6 -17  -4    3.15    5.85
   6 -17   4    8.29    8.44
  -6 -17  -4   -0.73    1.11
   6 -17   5   18.94   12.38
  -6 -17   5   15.15   10.35
   6 -17  -5   18.31   12.24
  -6 -17  -5   14.75   10.68
  -6 -17   6    3.69    5.61
   6 -17   6   -2.80    3.01
   6 -17  -6   -0.39    0.33
  -6 -17  -6   -2.33    2.53
   6 -17  -7    3.38    6.57
  -6 -17   7    2.47    1.15
   6 -17   7   -0.02    0.90
  -6 -17  -7    5.80    5.16
   6 -17  -8    0.41    1.62
   6 -17   8    1.81    2.39
  -6 -17   8    3.13    4.98
  -6 -17  -8    2.50    2.26
   6 -17  -9    3.30    4.87
   6 -17   9    1.79    2.00
  -6 -17   9   -0.17    3.44
  -6 -17  10    1.62    1.30
   6 -17 -10    4.69    6.25
   6 -17 -11    0.85    2.48
   6 -17 -12    3.47    4.61
   7 -17   0    1.60    3.49
  -7 -17   0   -0.60    1.55
   7 -17  -1   -0.32    0.39
   7 -17   1    0.63    4.03
  -7 -17   1    3.12    4.79
  -7 -17  -1    1.54    3.93
   7 -17  -2    8.98    9.61
   7 -17   2    3.39    6.33
  -7 -17   2    7.40    8.21
  -7 -17  -2    6.06    8.35
   7 -17  -3    8.06    7.70
   7 -17   3   11.64   10.22
  -7 -17   3    5.23    6.70
  -7 -17  -3    8.17    7.69
  -7 -17   4   10.77    8.95
   7 -17   4   11.73   11.45
   7 -17  -4   12.54   11.20
  -7 -17  -4   11.98    9.67
  -7 -17   5    1.18    4.26
   7 -17   5    4.21    6.86
   7 -17  -5    2.36    3.41
  -7 -17  -5    2.31    5.22
  -7 -17   6    8.43    6.97
   7 -17  -6    8.09    8.91
   7 -17   6    2.75    5.52
  -7 -17  -6    7.03    6.99
  -7 -17   7    2.48    5.35
   7 -17   7    1.50    1.50
   7 -17  -7    0.57    6.30
  -7 -17  -7    0.94    0.33
   7 -17  -8    0.93    2.86
  -7 -17   8   -1.33    4.55
   7 -17   8   -1.05    5.13
   7 -17  -9    2.39    3.81
  -7 -17   9    3.38    5.85
   7 -17 -10    0.72    3.68
   7 -17 -11    1.11    1.52
   8 -17   0    3.88    6.05
  -8 -17   0    1.77    2.55
   8 -17  -1    2.40    3.89
  -8 -17   1   -0.27    3.88
   8 -17   1   -0.25    1.49
  -8 -17  -1    3.25    4.19
   8 -17   2    2.57    5.13
   8 -17  -2    3.17    7.38
  -8 -17   2    0.62    1.98
  -8 -17  -2   -1.23    3.87
   8 -17  -3    4.37    6.55
   8 -17   3    4.70    7.02
  -8 -17   3    3.98    4.96
  -8 -17  -3    3.00    4.95
   8 -17  -4    0.20    2.97
   8 -17   4   -2.14    4.94
  -8 -17   4   -0.32    2.81
  -8 -17  -4   -0.33    4.22
   8 -17   5    5.77    7.60
   8 -17  -5    9.10    8.97
  -8 -17   5    8.41    7.73
  -8 -17  -5    8.76    8.15
  -8 -17   6    0.20    2.16
   8 -17   6   -2.16    5.22
   8 -17  -6    1.17    2.84
  -8 -17  -6   -1.37    3.56
  -8 -17   7    3.90    4.86
   8 -17  -7    6.73    7.75
  -8 -17   8   -0.05    1.35
   8 -17  -8    3.48    5.70
   8 -17  -9    1.55    2.34
  -8 -17   9    2.57    5.11
   8 -17 -10    1.43    1.50
   8 -17 -11    3.73    5.89
   9 -17   0   -0.47    1.85
  -9 -17   0    2.46    4.59
   9 -17   1    3.63    7.22
   9 -17  -1    0.70    3.99
  -9 -17  -1    5.66    5.51
  -9 -17   1    4.85    6.32
   9 -17   2   -0.77    5.36
   9 -17  -2   -0.82    0.72
  -9 -17   2    0.83    3.57
  -9 -17  -2   -0.11    1.93
   9 -17  -3   -1.69    3.73
   9 -17   3   -2.31    5.29
  -9 -17   3    2.43    5.37
  -9 -17  -3   -3.34    4.76
   9 -17   4    2.55    3.86
   9 -17  -4    0.21    5.40
  -9 -17   4   -0.41    4.87
  -9 -17  -4    3.20    2.88
  -9 -17   5    0.53    2.65
   9 -17  -5    2.41    5.73
  -9 -17  -5   -0.71    2.30
  -9 -17   6   -0.28    2.28
   9 -17  -6    2.57    6.16
   9 -17  -7   -0.25    4.87
  -9 -17   7    2.88    4.54
  -9 -17   8   -1.17    3.04
   9 -17  -8    1.60    5.00
   9 -17  -9    4.49    7.22
   9 -17 -10    2.51    7.44
  10 -17   0   -1.29    6.27
 -10 -17   0   -2.43    4.72
  10 -17  -1    0.75    4.25
  10 -17   1   -2.58    5.90
 -10 -17   1    0.16    2.05
 -10 -17  -1   -0.44    0.74
 -10 -17   2   -2.39    4.52
  10 -17   2   -0.45    4.31
  10 -17  -2    2.04    4.29
 -10 -17  -2   -1.71    5.14
  10 -17  -3    3.06    5.78
 -10 -17   3   -3.56    6.13
 -10 -17  -3    1.83    4.37
  10 -17  -4   -0.70    2.85
 -10 -17   4    0.93    4.66
 -10 -17  -4    0.44    1.88
  10 -17  -5   -2.07    5.52
 -10 -17   5    2.33    3.99
 -10 -17   6   -0.09    3.91
  10 -17  -6    2.69    4.60
 -10 -17   7   -0.43    2.70
  10 -17  -7    3.21    4.53
  10 -17  -8    0.21    2.67
  10 -17  -9    1.83    3.39
 -11 -17   0   20.08   11.73
  11 -17  -1   -1.30    4.17
 -11 -17  -1   -0.12    2.32
 -11 -17   1    3.18    4.14
  11 -17  -2    8.59    8.19
 -11 -17   2    6.51    7.25
 -11 -17  -2    5.42    7.24
  11 -17  -3   -1.46    4.74
 -11 -17   3    2.01    4.38
 -11 -17  -3    0.56    0.57
 -11 -17   4    3.89    4.59
  11 -17  -4    6.48    6.39
  11 -17  -5    4.33    6.06
 -11 -17   5   -0.34    2.64
 -11 -17   6    3.55    2.74
  11 -17  -6    3.62    4.54
  11 -17  -7   -0.81    3.79
 -12 -17   0    3.78    6.75
 -12 -17   1    3.52    5.35
 -12 -17  -1    1.32    3.31
 -12 -17   2    8.52    7.96
 -12 -17   3    4.30    4.96
 -12 -17   4    9.23    8.34
 -12 -17   5    0.03    2.57
 -13 -17   0   29.01   14.32
 -13 -17   1    1.29    4.51
 -13 -17   2   16.87   10.62
 -13 -17   3    1.80    4.62
 -13 -17   4   12.63    8.75
 -14 -17   2    2.77    4.74
 -14 -17   3   -1.90    4.84
   0 -18   0   44.34   19.20
   0 -18  -1    1.12    2.86
   0 -18   1    2.40    3.23
   0 -18  -2   42.80   18.10
   0 -18   2   34.56   16.25
   0 -18  -3    2.51    5.51
   0 -18   3   -1.15    3.66
   0 -18  -4   28.08   15.00
   0 -18   4   20.48   13.68
   0 -18  -5   -0.87    4.57
   0 -18   5    2.42    7.08
   0 -18   6   57.04   22.21
   0 -18  -6   54.58   20.47
   0 -18   7    3.85    6.39
   0 -18  -7   -1.62    4.87
   0 -18   8   13.07   10.78
   0 -18   9    0.12    3.80
   0 -18  10   20.30   13.33
   0 -18  11   -1.31    2.34
   1 -18   0   46.13   18.46
  -1 -18   0   52.83   20.60
  -1 -18  -1   -3.39    5.40
  -1 -18   1    2.33    3.82
   1 -18  -1    3.92    6.26
   1 -18   1   -1.27    3.61
  -1 -18  -2   26.77   14.86
   1 -18  -2   41.38   17.79
  -1 -18   2   36.72   16.82
   1 -18   2   42.85   19.16
  -1 -18  -3   -2.19    5.89
   1 -18  -3    1.43    1.06
  -1 -18   3   -0.85    2.84
   1 -18   3   -0.55    4.13
   1 -18  -4   19.02   12.85
  -1 -18   4   22.71   13.67
  -1 -18  -4   30.55   15.88
   1 -18   4   25.25   14.49
   1 -18  -5    1.58    4.26
   1 -18   5    3.00    5.35
  -1 -18   5    4.56    6.24
  -1 -18  -5   -0.82    3.95
   1 -18  -6   30.31   15.90
  -1 -18   6   29.89   15.87
   1 -18   6   36.42   17.96
  -1 -18  -6   33.48   15.82
  -1 -18   7   -0.68    3.96
   1 -18   7   -1.76    3.90
  -1 -18  -7    3.58    6.97
   1 -18  -7    4.96    8.06
  -1 -18   8   18.69   12.41
   1 -18   8   17.36   12.23
   1 -18   9    4.95    7.93
  -1 -18   9    1.12    5.19
  -1 -18  10    5.42    7.85
   1 -18  10   11.35   12.01
  -1 -18  11    6.41    8.21
  -1 -18  12    3.72    4.84
  -2 -18   0   27.86   14.38
   2 -18   0   24.49   14.68
  -2 -18  -1    0.21    2.86
  -2 -18   1    1.48    2.86
   2 -18  -1   -0.80    4.62
   2 -18   1    3.42    7.61
  -2 -18   2   13.91   10.21
   2 -18  -2    8.99    8.35
   2 -18   2    7.43    8.94
  -2 -18  -2    5.10    6.97
   2 -18  -3   -1.84    5.87
  -2 -18   3    0.13    1.36
  -2 -18  -3   -0.01    3.01
   2 -18   3    0.35    2.26
   2 -18   4    9.89    9.59
   2 -18  -4    9.04    8.78
  -2 -18   4   10.20    9.04
  -2 -18  -4   12.78   10.61
   2 -18  -5   -0.31    2.81
   2 -18   5   -1.64    2.11
  -2 -18   5    1.04    2.54
  -2 -18  -5    0.31    2.74
   2 -18  -6   10.17    9.51
   2 -18   6    9.10    9.03
  -2 -18  -6   10.46    9.67
  -2 -18   6   10.81    9.69
   2 -18  -7   -0.60    4.53
  -2 -18   7   -0.74    1.87
   2 -18   7   -0.18    0.58
   2 -18   8    7.35    8.84
  -2 -18   8   11.00    8.16
   2 -18   9   -1.78    4.52
  -2 -18   9    1.35    5.11
  -2 -18  10    0.46    2.40
  -2 -18  11    0.47    1.84
  -2 -18  12   -0.45    2.16
  -3 -18   0    3.90    5.63
   3 -18   0    5.64    8.23
  -3 -18   1   -2.08    5.14
   3 -18  -1   -2.29    3.63
   3 -18   1    0.14    4.91
  -3 -18  -1   -2.85    7.94
  -3 -18   2    0.96    0.82
   3 -18  -2   -2.87    8.00
  -3 -18  -2   -0.36    1.65
   3 -18   2   -0.30    0.82
   3 -18   3    2.78    5.97
  -3 -18   3   -0.55    2.75
   3 -18  -3    1.31    2.28
  -3 -18  -3    1.05    2.16
   3 -18   4    0.15    2.46
   3 -18  -4   -1.96    3.06
  -3 -18   4   -2.35    2.79
  -3 -18  -4   -0.94    1.42
   3 -18  -5   -0.87    4.93
   3 -18   5    0.32    2.24
  -3 -18   5   -2.47    6.17
  -3 -18  -5   -0.36    1.34
   3 -18  -6    1.79    3.05
   3 -18   6    0.92    3.61
  -3 -18  -6    2.59    5.55
  -3 -18   6    1.32    3.49
   3 -18  -7   -1.04    4.16
  -3 -18   7    1.52    3.38
   3 -18   7    4.88    5.58
  -3 -18   8    5.65    6.84
   3 -18   8    4.97    7.46
  -3 -18   9    0.00    1.21
  -3 -18  10    1.46    4.56
  -3 -18  11    1.52    4.43
  -3 -18  12    1.08    3.39
   4 -18   0    8.36    8.19
  -4 -18   0    6.92    6.18
   4 -18   1    2.35    5.68
  -4 -18   1    1.99    3.75
   4 -18  -1    9.52   10.13
  -4 -18  -1   -0.32    4.50
  -4 -18   2    5.94    6.70
   4 -18   2    7.84    7.31
   4 -18  -2   11.09    9.55
  -4 -18  -2    8.73    8.71
  -4 -18   3    6.32    6.09
   4 -18   3    9.95   10.00
   4 -18  -3    6.50    6.90
  -4 -18  -3    3.38    6.60
  -4 -18   4    7.26    7.41
   4 -18   4    9.31    9.69
   4 -18  -4    6.42    5.98
  -4 -18  -4    3.63    8.40
   4 -18  -5    6.29    6.02
  -4 -18   5    4.06    4.88
   4 -18   5    3.20    3.02
  -4 -18  -5   10.32    8.82
   4 -18  -6    6.91    6.06
  -4 -18   6    8.06    7.78
   4 -18   6    4.20    4.78
   4 -18   7   -0.42    3.88
   4 -18  -7    2.99    5.03
  -4 -18   7    5.91    7.12
  -4 -18   8    2.43    6.28
  -4 -18   9    3.61    5.44
  -4 -18  10   -2.39    4.05
  -4 -18  11    1.54    1.20
   5 -18   0    7.89    8.44
  -5 -18   0    6.60    7.08
   5 -18   1    1.01    4.12
  -5 -18  -1    4.23    6.41
   5 -18  -1    4.37    6.29
  -5 -18   1    2.14    5.38
  -5 -18   2   16.24   12.46
   5 -18   2   17.54   12.70
  -5 -18  -2   11.35    8.23
   5 -18  -2   14.11   12.72
  -5 -18   3    3.42    6.59
   5 -18   3    4.15    5.77
   5 -18  -3    9.62   10.55
  -5 -18  -3    6.08    6.99
  -5 -18   4   16.72   11.63
   5 -18  -4   21.07   12.79
   5 -18   4   19.15   13.04
  -5 -18  -4   23.49   13.58
  -5 -18   5    0.61    0.56
   5 -18   5    7.87    8.53
  -5 -18  -5    4.81    6.93
   5 -18  -6   13.22   10.24
  -5 -18   6    9.21    7.68
  -5 -18   7    1.54    7.97
  -5 -18   8    3.79    5.41
  -5 -18   9    1.17    2.10
  -5 -18  10   -0.31    1.52
   6 -18   0    8.69    8.97
  -6 -18   0   13.26    9.48
   6 -18  -1    6.91    7.77
   6 -18   1    6.92    7.19
  -6 -18  -1    2.83    4.65
  -6 -18   1    4.25    5.41
  -6 -18   2   21.96   12.58
   6 -18   2   18.59   13.48
  -6 -18  -2   22.33   14.06
   6 -18  -2   24.57   15.58
  -6 -18   3   12.15    9.83
   6 -18   3   22.75   14.86
   6 -18  -3   17.53   13.50
  -6 -18  -3   15.00   11.14
  -6 -18   4   21.93   12.87
   6 -18  -4   29.15   16.62
  -6 -18  -4   22.80   13.94
  -6 -18   5    7.70    9.26
   6 -18  -5   18.14   12.94
  -6 -18   6    2.75    5.05
  -6 -18   7   10.83    8.77
  -6 -18   8   13.66   10.96
  -6 -18   9    2.34    3.97
   7 -18   0   12.76   10.85
  -7 -18   0    9.75    8.31
   7 -18  -1   14.47   11.97
  -7 -18  -1   12.38   10.56
  -7 -18   1   12.78   10.03
   7 -18  -2   15.16   11.94
  -7 -18   2   12.91   10.47
  -7 -18  -2   15.75   11.37
  -7 -18   3   16.14   10.93
   7 -18  -3   11.82   11.42
  -7 -18  -3   11.91    9.46
  -7 -18   4   17.93   11.23
  -7 -18   5   21.79   12.77
  -7 -18   6   14.73   11.08
  -7 -18   7    2.94    4.13
  -7 -18   8   13.79    9.57
  -7 -18   9    1.12    3.70
  -8 -18   0   11.83    9.48
  -8 -18   1   -1.87    4.76
  -8 -18  -1    4.74    6.87
  -8 -18   2    1.56    4.90
  -8 -18  -2   -0.08    3.72
  -8 -18   3    1.96    0.45
  -8 -18   4   -2.75    5.40
  -8 -18   5    1.31    4.33
  -8 -18   6    2.65    3.57
  -8 -18   7   -1.29    5.27
  -8 -18   8   -0.65    2.77
  -9 -18   0    2.96    5.21
  -9 -18   1    1.36    3.46
  -9 -18   2   -1.38    4.46
  -9 -18   3    2.19    3.01
  -9 -18   4    0.85    4.37
  -9 -18   5   -1.89    3.43
  -9 -18   6    1.94    3.89
  -9 -18   7   -2.13    4.52
 -10 -18   1   16.65   10.70
 -10 -18   2    4.62    6.44
 -10 -18   3    6.09    7.22
 -10 -18   4    2.28    1.64
 -10 -18   5    7.50    8.17
 -10 -18   6    3.19    4.19
 -11 -18   3   14.23   10.56
 -11 -18   4    3.68    4.83
 -11 -18   5    8.18    7.60
   0   0   0    0.00    0.00
;
_shelx_hkl_checksum              84699
_shelx_res_file
;
TITL 58 in Pnnm    Mo6O19.H2TCPP.5H2O
    i.res
    created by SHELXL-2018/3 at 21:58:03 on 03-Nov-2020
CELL  0.71073  19.3159  15.0183  19.6537   90.000   90.000   90.000
ZERR     4.00   0.0008   0.0005   0.0010    0.000    0.000    0.000
LATT   1
SYMM  - X, - Y,   Z
SYMM  1/2 - X, 1/2 + Y, 1/2 - Z
SYMM  1/2 + X, 1/2 - Y, 1/2 - Z
SFAC  C    H    N    O    MO
UNIT  192 168 16 128 24
MERG   2
isor 0.005 0.01 n1 o12 c9 c16 c17 c19 c22 c23
dfix 0.86 0.005 o1w h1wa
dfix 0.86 0.005 o1w h1wb
dfix 0.86 0.005 o2w h2wa
dfix 0.86 0.005 o2w h2wb
dfix 0.86 0.005 o4w h4wa
dfix 0.86 0.005 O3W H3wA
eqiv $1 1/2+x,5/2-y,1/2+z
eqiv $2 -1/2+x,5/2-y,1/2+z
eqiv $3 x,y,1-z
dfix 2.2 0.005 H1A H1WB_$1
dfix 2.2 0.005 H4A H1WB_$2
dfix 2.2 0.005 H2A H4WA_$3
shel 8 0.84
FMAP   2
PLAN  10
ACTA
BOND
BOND   $H
L.S.  14
WGHT    0.039700
FVAR       0.08398
MO5   5    0.265876    1.202355    0.382027    11.00000    0.09848    0.08400 =
         0.04195    0.00903    0.00952    0.01150
MO4   5    0.352013    1.308577    0.500000    10.50000    0.03431    0.03344 =
         0.13998    0.00000    0.00000   -0.00654
MO3   5    0.348553    1.091637    0.500000    10.50000    0.03865    0.03236 =
         0.09019    0.00000    0.00000    0.00336
MO2   5    0.182229    1.311435    0.500000    10.50000    0.04019    0.03107 =
         0.09365    0.00000    0.00000    0.00679
MO1   5    0.179810    1.094944    0.500000    10.50000    0.03413    0.03143 =
         0.08872    0.00000    0.00000   -0.00558
O18   4    0.265002    1.201616    0.500000    10.50000    0.04741    0.03411 =
         0.03701    0.00000    0.00000    0.00427
O17   4    0.271372    1.378600    0.500000    10.50000    0.06458    0.03340 =
         0.12424    0.00000    0.00000   -0.00502
O16   4    0.124571    1.393903    0.500000    10.50000    0.06340    0.05332 =
         0.18322    0.00000    0.00000    0.02879
O15   4    0.261217    1.023443    0.500000    10.50000    0.04374    0.01822 =
         0.08068    0.00000    0.00000    0.00027
O14   4    0.129795    1.208007    0.500000    10.50000    0.01506    0.05624 =
         0.11353    0.00000    0.00000    0.00881
O13   4    0.201857    1.294964    0.405336    11.00000    0.08695    0.06610 =
         0.06297    0.02011   -0.01922    0.02345
O12   4    0.416505    1.382852    0.500000    10.50000    0.10081    0.09146 =
         0.16920    0.00000    0.00000   -0.01702
O11   4    0.337217    1.286489    0.405543    11.00000    0.08760    0.06754 =
         0.11460    0.01873    0.02038   -0.01688
O10   4    0.195166    1.119368    0.404704    11.00000    0.08985    0.06943 =
         0.05554   -0.01134   -0.04198    0.00372
O9    4    0.115385    1.022867    0.500000    10.50000    0.04698    0.04486 =
         0.19191    0.00000    0.00000   -0.02306
O8    4    0.400362    1.195997    0.500000    10.50000    0.03250    0.04067 =
         0.17989    0.00000    0.00000   -0.00709
O7    4    0.407714    1.010228    0.500000    10.50000    0.06779    0.03397 =
         0.19416    0.00000    0.00000    0.01829
O6    4    0.330769    1.110016    0.405347    11.00000    0.06882    0.06727 =
         0.07355   -0.00380    0.02977    0.01849
O5    4    0.266788    1.204365    0.297915    11.00000    0.26780    0.18805 =
         0.03949    0.02313    0.01700    0.02172
O4    4   -0.149983    0.936813    0.810463    11.00000    0.05845    0.12216 =
         0.03849    0.01364    0.02938    0.02924
AFIX  83
H4A   2   -0.173889    0.949916    0.843455    11.00000   -1.50000
AFIX   0
O3    4   -0.073013    0.907239    0.891424    11.00000    0.06955    0.11424 =
         0.02293    0.00485    0.00489    0.02882
O2    4    0.555078    0.895806    0.888580    11.00000    0.12216    0.10069 =
         0.03146    0.01847   -0.02442   -0.02921
O1    4    0.630285    0.935906    0.807481    11.00000    0.05023    0.12084 =
         0.05970   -0.01014   -0.02958   -0.01842
AFIX  83
H1A   2    0.654994    0.948135    0.840096    11.00000   -1.50000
AFIX   0
O4W   4    0.238593    0.700593    0.500000    10.50000    0.02338    0.03709 =
         0.05007    0.00000    0.00000    0.00165
O3W   4    0.129829    1.581767    0.500000    10.50000    0.05619    0.05279 =
         0.01034    0.00000    0.00000   -0.00380
O2W   4    0.343671    1.570653    0.500000    10.50000    0.01050    0.06494 =
         0.05495    0.00000    0.00000   -0.01373
O1W   4    0.238360    1.507374    0.378872    11.00000    0.06108    0.07987 =
         0.05604    0.01296   -0.00659    0.00923
N3    3    0.131045    0.837945    0.500000    10.50000    0.00666    0.04678 =
         0.01686    0.00000    0.00000    0.00375
AFIX  43
H3A   2    0.172412    0.859121    0.500000    10.50000   -1.20000
AFIX   0
N2    3    0.239448    0.836632    0.607290    11.00000    0.02401    0.04094 =
         0.01002   -0.00473   -0.00088    0.00351
AFIX  43
H2A   2    0.239099    0.804374    0.571138    11.00000   -1.20000
AFIX   0
N1    3    0.348030    0.838589    0.500000    10.50000    0.01668    0.03179 =
         0.02532    0.00000    0.00000    0.00232
AFIX  43
H1B   2    0.307644    0.862693    0.499999    10.50000   -1.20000
AFIX   0
C24   1    0.022557    0.858515    0.794252    11.00000    0.02467    0.04667 =
         0.01759    0.00670    0.00837   -0.00010
AFIX  43
H24A  2    0.032888    0.850763    0.840088    11.00000   -1.20000
AFIX   0
C23   1    0.071686    0.837903    0.745108    11.00000    0.02646    0.04205 =
         0.03551    0.00798   -0.00539    0.00542
AFIX  43
H23A  2    0.113475    0.812254    0.758074    11.00000   -1.20000
AFIX   0
C22   1    0.058835    0.855498    0.675618    11.00000    0.01568    0.03375 =
         0.01974   -0.00200    0.00335    0.00227
C21   1   -0.006072    0.887650    0.658474    11.00000    0.02559    0.04042 =
         0.02190   -0.00095    0.00615    0.00400
AFIX  43
H21A  2   -0.016739    0.898870    0.613135    11.00000   -1.20000
AFIX   0
C20   1   -0.054440    0.902963    0.707658    11.00000    0.03173    0.03466 =
         0.02978    0.00620   -0.00641    0.00820
AFIX  43
H20A  2   -0.098211    0.922823    0.695080    11.00000   -1.20000
AFIX   0
C19   1   -0.039928    0.889664    0.775670    11.00000    0.01189    0.03175 =
         0.03009   -0.00203    0.00463    0.00243
C18   1   -0.090695    0.912142    0.830515    11.00000    0.01411    0.05701 =
         0.05840    0.00739   -0.01036    0.01303
C17   1    0.536784    0.898618    0.707184    11.00000    0.01830    0.04236 =
         0.03571   -0.00082   -0.00488   -0.00099
AFIX  43
H17A  2    0.580583    0.918424    0.694653    11.00000   -1.20000
AFIX   0
C16   1    0.486716    0.883933    0.657293    11.00000    0.02286    0.03882 =
         0.03292   -0.00117    0.00410   -0.00092
AFIX  43
H16A  2    0.497155    0.895368    0.611933    11.00000   -1.20000
AFIX   0
C15   1    0.421228    0.852320    0.674648    11.00000    0.02564    0.03484 =
         0.02370    0.00233    0.00189    0.00935
C14   1    0.407704    0.834108    0.743299    11.00000    0.05350    0.05153 =
         0.01773    0.01405    0.00439    0.00002
AFIX  43
H14A  2    0.365236    0.810079    0.755942    11.00000   -1.20000
AFIX   0
C13   1    0.456665    0.851498    0.791829    11.00000    0.06201    0.04547 =
         0.01440    0.00446    0.00108    0.01432
AFIX  43
H13A  2    0.446413    0.841467    0.837424    11.00000   -1.20000
AFIX   0
C12   1    0.522240    0.884320    0.773662    11.00000    0.04375    0.03460 =
         0.02561    0.00190    0.00044    0.00300
C11   1    0.573590    0.904738    0.828451    11.00000    0.03460    0.04840 =
         0.04006   -0.00557   -0.00697   -0.00521
C10   1    0.031431    0.778134    0.534230    11.00000    0.03028    0.04149 =
         0.02901    0.00199    0.00462    0.00135
AFIX  43
H10A  2   -0.003619    0.755112    0.561487    11.00000   -1.20000
AFIX   0
C9    1    0.092272    0.818099    0.558213    11.00000    0.01534    0.02578 =
         0.02496    0.00282   -0.00301    0.00105
C8    1    0.112812    0.845195    0.622964    11.00000    0.00907    0.03618 =
         0.02523    0.00697   -0.00023    0.00617
C7    1    0.180905    0.867222    0.641186    11.00000    0.01638    0.03764 =
         0.02760    0.00404    0.00792    0.00392
C6    1    0.205925    0.921418    0.694748    11.00000    0.04304    0.03748 =
         0.01162   -0.00862    0.00388    0.00211
AFIX  43
H6A   2    0.178545    0.952226    0.725745    11.00000   -1.20000
AFIX   0
C5    1    0.275776    0.921312    0.693719    11.00000    0.00635    0.04527 =
         0.03105   -0.00105   -0.00424   -0.00640
AFIX  43
H5A   2    0.304374    0.952661    0.723304    11.00000   -1.20000
AFIX   0
C4    1    0.298081    0.865803    0.640367    11.00000    0.04722    0.02839 =
         0.01340    0.00226   -0.00372    0.00277
C3    1    0.367041    0.842243    0.623043    11.00000    0.02268    0.02906 =
         0.03150   -0.00001    0.00095   -0.00005
C2    1    0.385124    0.816450    0.557689    11.00000    0.02578    0.03694 =
         0.03260    0.00281    0.00202   -0.00040
C1    1    0.445620    0.771128    0.534462    11.00000    0.03059    0.03492 =
         0.02578   -0.00255    0.00116    0.00295
AFIX  43
H1C   2    0.479418    0.745810    0.562057    11.00000   -1.20000
AFIX   0
H1WA  2    0.254462    1.455968    0.389925    11.00000   -1.50000
H1WB  2    0.238994    1.539446    0.415063    11.00000   -1.50000
H2WA  2    0.388089    1.574238    0.500000    10.50000   -1.50000
H2WB  2    0.306102    1.539943    0.500000    10.50000   -1.50000
H4WA  2    0.282828    0.706178    0.500000    10.50000   -1.50000
H3WA  2    0.111717    1.576834    0.460245    11.00000   -1.50000
HKLF    4
REM  58 in Pnnm    Mo6O19.H2TCPP.5H2O
REM wR2 = 0.1748, GooF = S = 1.007, Restrained GooF = 1.010 for all data
REM R1 = 0.0922 for 2187 Fo > 4sig(Fo) and 0.2046 for all 5129 data
REM 448 parameters refined using 57 restraints
END
WGHT      0.0394      0.0000
REM Highest difference peak  0.808,  deepest hole -0.733,  1-sigma level  0.127
Q1    1   0.2366  1.1583  0.3906  11.00000  0.05    0.81
Q2    1   0.4096  1.3844  0.4628  11.00000  0.05    0.73
Q3    1   0.2106  1.3764  0.4217  11.00000  0.05    0.72
Q4    1   0.2884  1.2002  0.3875  11.00000  0.05    0.68
Q5    1   0.2651  1.4594  0.5000  10.50000  0.05    0.63
Q6    1   0.3058  1.2812  0.3810  11.00000  0.05    0.61
Q7    1   0.3557  0.8816  0.5000  10.50000  0.05    0.61
Q8    1   0.2643  0.9414  0.5000  10.50000  0.05    0.59
Q9    1   0.1688  0.8924  0.5000  10.50000  0.05    0.58
Q10   1   0.1848  1.2060  0.3890  11.00000  0.05    0.58
;
_shelx_res_checksum              1100
loop_
_space_group_symop_operation_xyz
'x, y, z'
'-x, -y, z'
'-x+1/2, y+1/2, -z+1/2'
'x+1/2, -y+1/2, -z+1/2'
'-x, -y, -z'
'x, y, -z'
'x-1/2, -y-1/2, z-1/2'
'-x-1/2, y-1/2, z-1/2'
loop_
_atom_site_type_symbol
_atom_site_label
_atom_site_fract_x
_atom_site_fract_y
_atom_site_fract_z
_atom_site_U_iso_or_equiv
_atom_site_adp_type
_atom_site_calc_flag
_atom_site_occupancy
_atom_site_disorder_assembly
_atom_site_disorder_group
Mo Mo5 0.26588(7) 1.20235(8) 0.38203(6) 0.0748(4) Uani d 1 . .
Mo Mo4 0.35201(8) 1.30858(9) 0.500000 0.0692(6) Uani d 1 . .
Mo Mo3 0.34855(8) 1.09164(8) 0.500000 0.0537(5) Uani d 1 . .
Mo Mo2 0.18223(8) 1.31143(8) 0.500000 0.0550(5) Uani d 1 . .
Mo Mo1 0.17981(8) 1.09494(8) 0.500000 0.0514(5) Uani d 1 . .
O O18 0.2650(5) 1.2016(5) 0.500000 0.040(2) Uani d 1 . .
O O17 0.2714(6) 1.3786(6) 0.500000 0.074(4) Uani d 1 . .
O O16 0.1246(6) 1.3939(7) 0.500000 0.100(5) Uani d 1 . .
O O15 0.2612(5) 1.0234(5) 0.500000 0.048(3) Uani d 1 . .
O O14 0.1298(5) 1.2080(6) 0.500000 0.062(3) Uani d 1 . .
O O13 0.2019(4) 1.2950(5) 0.4053(4) 0.072(2) Uani d 1 . .
O O12 0.4165(8) 1.3829(9) 0.500000 0.120(5) Uani d 1 . .
O O11 0.3372(5) 1.2865(5) 0.4055(5) 0.090(3) Uani d 1 . .
O O10 0.1952(4) 1.1194(5) 0.4047(4) 0.072(3) Uani d 1 . .
O O9 0.1154(6) 1.0229(7) 0.500000 0.095(5) Uani d 1 . .
O O8 0.4004(6) 1.1960(6) 0.500000 0.084(4) Uani d 1 . .
O O7 0.4077(6) 1.0102(6) 0.500000 0.099(5) Uani d 1 . .
O O6 0.3308(4) 1.1100(5) 0.4053(4) 0.070(2) Uani d 1 . .
O O5 0.2668(7) 1.2044(8) 0.2979(5) 0.165(6) Uani d 1 . .
O O4 -0.1500(4) 0.9368(5) 0.8105(4) 0.073(3) Uani d 1 . .
H H4A -0.173889 0.949916 0.843455 0.110 Uiso calc 1 . .
O O3 -0.0730(4) 0.9072(5) 0.8914(4) 0.069(3) Uani d 1 . .
O O2 0.5551(5) 0.8958(6) 0.8886(4) 0.085(3) Uani d 1 . .
O O1 0.6303(4) 0.9359(6) 0.8075(4) 0.077(3) Uani d 1 . .
H H1A 0.654994 0.948135 0.840096 0.115 Uiso calc 1 . .
O O4W 0.2386(4) 0.7006(5) 0.500000 0.037(2) Uani d 1 . .
O O3W 0.1298(6) 1.5818(7) 0.500000 0.040(3) Uani d 1 . .
O O2W 0.3437(5) 1.5707(7) 0.500000 0.043(3) Uani d 1 . .
O O1W 0.2384(4) 1.5074(5) 0.3789(4) 0.066(2) Uani d 1 . .
N N3 0.1310(5) 0.8379(6) 0.500000 0.023(3) Uani d 1 . .
H H3A 0.172412 0.859121 0.500000 0.028 Uiso calc 1 . .
N N2 0.2394(4) 0.8366(5) 0.6073(3) 0.0250(18) Uani d 1 . .
H H2A 0.239099 0.804374 0.571138 0.030 Uiso calc 1 . .
N N1 0.3480(5) 0.8386(6) 0.500000 0.025(3) Uani d 1 . .
H H1B 0.307644 0.862693 0.499999 0.030 Uiso calc 1 . .
C C24 0.0226(5) 0.8585(6) 0.7943(5) 0.030(2) Uani d 1 . .
H H24A 0.032888 0.850763 0.840088 0.036 Uiso calc 1 . .
C C23 0.0717(5) 0.8379(6) 0.7451(5) 0.035(3) Uani d 1 . .
H H23A 0.113475 0.812254 0.758074 0.042 Uiso calc 1 . .
C C22 0.0588(5) 0.8555(5) 0.6756(5) 0.023(2) Uani d 1 . .
C C21 -0.0061(5) 0.8877(6) 0.6585(5) 0.029(2) Uani d 1 . .
H H21A -0.016739 0.898870 0.613135 0.035 Uiso calc 1 . .
C C20 -0.0544(5) 0.9030(5) 0.7077(5) 0.032(3) Uani d 1 . .
H H20A -0.098211 0.922823 0.695080 0.038 Uiso calc 1 . .
C C19 -0.0399(5) 0.8897(6) 0.7757(5) 0.025(2) Uani d 1 . .
C C18 -0.0907(5) 0.9121(7) 0.8305(6) 0.043(3) Uani d 1 . .
C C17 0.5368(5) 0.8986(6) 0.7072(5) 0.032(3) Uani d 1 . .
H H17A 0.580583 0.918424 0.694653 0.039 Uiso calc 1 . .
C C16 0.4867(5) 0.8839(6) 0.6573(5) 0.032(3) Uani d 1 . .
H H16A 0.497155 0.895368 0.611933 0.038 Uiso calc 1 . .
C C15 0.4212(5) 0.8523(6) 0.6746(5) 0.028(2) Uani d 1 . .
C C14 0.4077(6) 0.8341(6) 0.7433(5) 0.041(3) Uani d 1 . .
H H14A 0.365236 0.810079 0.755942 0.049 Uiso calc 1 . .
C C13 0.4567(6) 0.8515(6) 0.7918(5) 0.041(3) Uani d 1 . .
H H13A 0.446413 0.841467 0.837424 0.049 Uiso calc 1 . .
C C12 0.5222(6) 0.8843(6) 0.7737(5) 0.035(3) Uani d 1 . .
C C11 0.5736(6) 0.9047(7) 0.8285(6) 0.041(3) Uani d 1 . .
C C10 0.0314(5) 0.7781(6) 0.5342(4) 0.034(3) Uani d 1 . .
H H10A -0.003619 0.755112 0.561487 0.040 Uiso calc 1 . .
C C9 0.0923(5) 0.8181(5) 0.5582(5) 0.022(2) Uani d 1 . .
C C8 0.1128(5) 0.8452(5) 0.6230(5) 0.023(2) Uani d 1 . .
C C7 0.1809(5) 0.8672(6) 0.6412(4) 0.027(2) Uani d 1 . .
C C6 0.2059(5) 0.9214(6) 0.6947(4) 0.031(2) Uani d 1 . .
H H6A 0.178545 0.952226 0.725745 0.037 Uiso calc 1 . .
C C5 0.2758(5) 0.9213(6) 0.6937(4) 0.028(2) Uani d 1 . .
H H5A 0.304374 0.952661 0.723304 0.033 Uiso calc 1 . .
C C4 0.2981(6) 0.8658(6) 0.6404(4) 0.030(2) Uani d 1 . .
C C3 0.3670(5) 0.8422(5) 0.6230(5) 0.028(2) Uani d 1 . .
C C2 0.3851(5) 0.8165(6) 0.5577(5) 0.032(3) Uani d 1 . .
C C1 0.4456(5) 0.7711(5) 0.5345(4) 0.030(3) Uani d 1 . .
H H1C 0.479418 0.745810 0.562057 0.037 Uiso calc 1 . .
H H1WA 0.254(5) 1.456(3) 0.390(5) 0.046 Uiso d 1 . .
H H1WB 0.2390(4) 1.5394(13) 0.4151(4) 0.046 Uiso d 1 . .
H H2WA 0.3881(7) 1.574(8) 0.500000 0.046 Uiso d 1 . .
H H2WB 0.306(3) 1.540(7) 0.500000 0.046 Uiso d 1 . .
H H4WA 0.2828(5) 0.7062(9) 0.500000 0.046 Uiso d 1 . .
H H3WA 0.112(4) 1.577(6) 0.460(2) 0.046 Uiso d 1 . .
loop_
_atom_site_aniso_label
_atom_site_aniso_U_11
_atom_site_aniso_U_22
_atom_site_aniso_U_33
_atom_site_aniso_U_12
_atom_site_aniso_U_13
_atom_site_aniso_U_23
Mo5 0.0985(11) 0.0840(9) 0.0419(7) 0.0115(8) 0.0095(7) 0.0090(6)
Mo4 0.0343(11) 0.0334(8) 0.1400(19) -0.0065(7) 0.000 0.000
Mo3 0.0387(11) 0.0324(7) 0.0902(13) 0.0034(7) 0.000 0.000
Mo2 0.0402(11) 0.0311(7) 0.0937(14) 0.0068(7) 0.000 0.000
Mo1 0.0341(10) 0.0314(7) 0.0887(13) -0.0056(7) 0.000 0.000
O18 0.047(7) 0.034(5) 0.037(6) 0.004(5) 0.000 0.000
O17 0.065(9) 0.033(6) 0.124(11) -0.005(6) 0.000 0.000
O16 0.063(10) 0.053(8) 0.183(15) 0.029(7) 0.000 0.000
O15 0.044(7) 0.018(4) 0.081(8) 0.000(5) 0.000 0.000
O14 0.015(7) 0.056(7) 0.114(10) 0.009(5) 0.000 0.000
O13 0.087(7) 0.066(5) 0.063(6) 0.023(5) -0.019(5) 0.020(4)
O12 0.101(9) 0.091(8) 0.169(9) -0.017(7) 0.000 0.000
O11 0.088(8) 0.068(6) 0.115(8) -0.017(5) 0.020(6) 0.019(5)
O10 0.090(7) 0.069(5) 0.056(6) 0.004(5) -0.042(5) -0.011(4)
O9 0.047(9) 0.045(7) 0.192(15) -0.023(6) 0.000 0.000
O8 0.032(8) 0.041(6) 0.180(14) -0.007(6) 0.000 0.000
O7 0.068(10) 0.034(6) 0.194(16) 0.018(6) 0.000 0.000
O6 0.069(7) 0.067(5) 0.074(6) 0.018(5) 0.030(5) -0.004(4)
O5 0.268(17) 0.188(12) 0.039(7) 0.022(11) 0.017(7) 0.023(7)
O4 0.058(6) 0.122(7) 0.038(5) 0.029(6) 0.029(4) 0.014(5)
O3 0.070(7) 0.114(7) 0.023(5) 0.029(5) 0.005(4) 0.005(5)
O2 0.122(9) 0.101(7) 0.031(6) -0.029(6) -0.024(5) 0.018(5)
O1 0.050(6) 0.121(8) 0.060(6) -0.018(6) -0.030(5) -0.010(5)
O4W 0.023(6) 0.037(5) 0.050(6) 0.002(5) 0.000 0.000
O3W 0.056(8) 0.053(6) 0.010(6) -0.004(5) 0.000 0.000
O2W 0.011(6) 0.065(7) 0.055(7) -0.014(6) 0.000 0.000
O1W 0.061(6) 0.080(6) 0.056(5) 0.009(5) -0.007(4) 0.013(5)
N3 0.007(7) 0.047(6) 0.017(7) 0.004(5) 0.000 0.000
N2 0.024(5) 0.041(4) 0.010(4) 0.004(4) -0.001(4) -0.005(3)
N1 0.017(4) 0.032(4) 0.025(5) 0.002(4) 0.000 0.000
C24 0.025(7) 0.047(6) 0.018(6) 0.000(5) 0.008(5) 0.007(4)
C23 0.026(4) 0.042(4) 0.036(5) 0.005(4) -0.005(4) 0.008(4)
C22 0.016(4) 0.034(4) 0.020(4) 0.002(3) 0.003(3) -0.002(3)
C21 0.026(7) 0.040(6) 0.022(6) 0.004(5) 0.006(5) -0.001(4)
C20 0.032(7) 0.035(5) 0.030(7) 0.008(5) -0.006(5) 0.006(5)
C19 0.012(4) 0.032(4) 0.030(4) 0.002(3) 0.005(4) -0.002(3)
C18 0.014(7) 0.057(7) 0.058(9) 0.013(5) -0.010(6) 0.007(6)
C17 0.018(4) 0.042(4) 0.036(5) -0.001(4) -0.005(4) -0.001(4)
C16 0.023(4) 0.039(4) 0.033(4) -0.001(4) 0.004(4) -0.001(3)
C15 0.026(7) 0.035(5) 0.024(6) 0.009(5) 0.002(5) 0.002(4)
C14 0.053(8) 0.052(6) 0.018(6) 0.000(6) 0.004(6) 0.014(5)
C13 0.062(9) 0.045(6) 0.014(7) 0.014(6) 0.001(6) 0.004(5)
C12 0.044(8) 0.035(6) 0.026(7) 0.003(5) 0.000(6) 0.002(4)
C11 0.035(8) 0.048(6) 0.040(8) -0.005(6) -0.007(7) -0.006(6)
C10 0.030(7) 0.041(6) 0.029(6) 0.001(5) 0.005(4) 0.002(4)
C9 0.015(4) 0.026(4) 0.025(4) 0.001(3) -0.003(4) 0.003(3)
C8 0.009(6) 0.036(5) 0.025(6) 0.006(4) 0.000(5) 0.007(4)
C7 0.016(6) 0.038(5) 0.028(6) 0.004(5) 0.008(5) 0.004(4)
C6 0.043(7) 0.037(5) 0.012(5) 0.002(5) 0.004(5) -0.009(4)
C5 0.006(6) 0.045(6) 0.031(6) -0.006(4) -0.004(5) -0.001(5)
C4 0.047(8) 0.028(5) 0.013(6) 0.003(5) -0.004(5) 0.002(4)
C3 0.023(7) 0.029(5) 0.032(7) 0.000(4) 0.001(5) 0.000(4)
C2 0.026(7) 0.037(5) 0.033(7) 0.000(5) 0.002(5) 0.003(5)
C1 0.031(7) 0.035(5) 0.026(6) 0.003(5) 0.001(4) -0.003(4)
loop_
_atom_type_symbol
_atom_type_description
_atom_type_scat_dispersion_real
_atom_type_scat_dispersion_imag
_atom_type_scat_source
C C 0.0033 0.0016 'International Tables Vol C Tables 4.2.6.8 and 6.1.1.4'
H H 0.0000 0.0000 'International Tables Vol C Tables 4.2.6.8 and 6.1.1.4'
N N 0.0061 0.0033 'International Tables Vol C Tables 4.2.6.8 and 6.1.1.4'
O O 0.0106 0.0060 'International Tables Vol C Tables 4.2.6.8 and 6.1.1.4'
Mo Mo -1.6832 0.6857 'International Tables Vol C Tables 4.2.6.8 and 6.1.1.4'
loop_
_geom_angle_atom_site_label_1
_geom_angle_atom_site_label_2
_geom_angle_atom_site_label_3
_geom_angle_site_symmetry_1
_geom_angle_site_symmetry_3
_geom_angle
_geom_angle_publ_flag
O5 Mo5 O10 . . 104.7(5) ?
O5 Mo5 O13 . . 103.4(5) ?
O10 Mo5 O13 . . 87.5(4) ?
O5 Mo5 O6 . . 104.1(5) ?
O10 Mo5 O6 . . 86.5(3) ?
O13 Mo5 O6 . . 152.4(3) ?
O5 Mo5 O11 . . 102.7(5) ?
O10 Mo5 O11 . . 152.6(3) ?
O13 Mo5 O11 . . 85.9(4) ?
O6 Mo5 O11 . . 87.1(4) ?
O5 Mo5 O18 . . 179.2(5) ?
O10 Mo5 O18 . . 76.0(3) ?
O13 Mo5 O18 . . 76.1(3) ?
O6 Mo5 O18 . . 76.3(3) ?
O11 Mo5 O18 . . 76.6(3) ?
O12 Mo4 O17 . . 104.1(6) ?
O12 Mo4 O11 . . 103.2(2) ?
O17 Mo4 O11 . . 88.5(3) ?
O12 Mo4 O11 . 6_556 103.2(2) ?
O17 Mo4 O11 . 6_556 88.5(3) ?
O11 Mo4 O11 . 6_556 153.5(5) ?
O12 Mo4 O8 . . 102.9(6) ?
O17 Mo4 O8 . . 152.9(4) ?
O11 Mo4 O8 . . 85.4(3) ?
O11 Mo4 O8 6_556 . 85.4(3) ?
O12 Mo4 O18 . . 178.1(5) ?
O17 Mo4 O18 . . 77.7(4) ?
O11 Mo4 O18 . . 76.8(2) ?
O11 Mo4 O18 6_556 . 76.8(2) ?
O8 Mo4 O18 . . 75.2(4) ?
O7 Mo3 O8 . . 104.4(5) ?
O7 Mo3 O6 . 6_556 103.2(2) ?
O8 Mo3 O6 . 6_556 88.6(2) ?
O7 Mo3 O6 . . 103.2(2) ?
O8 Mo3 O6 . . 88.6(2) ?
O6 Mo3 O6 6_556 . 153.3(4) ?
O7 Mo3 O15 . . 101.8(5) ?
O8 Mo3 O15 . . 153.8(4) ?
O6 Mo3 O15 6_556 . 85.5(2) ?
O6 Mo3 O15 . . 85.5(2) ?
O7 Mo3 O18 . . 178.7(5) ?
O8 Mo3 O18 . . 76.9(4) ?
O6 Mo3 O18 6_556 . 76.8(2) ?
O6 Mo3 O18 . . 76.8(2) ?
O15 Mo3 O18 . . 76.9(3) ?
O16 Mo2 O14 . . 104.9(5) ?
O16 Mo2 O13 . 6_556 103.2(2) ?
O14 Mo2 O13 . 6_556 90.0(3) ?
O16 Mo2 O13 . . 103.2(2) ?
O14 Mo2 O13 . . 90.0(3) ?
O13 Mo2 O13 6_556 . 152.7(5) ?
O16 Mo2 O17 . . 101.6(5) ?
O14 Mo2 O17 . . 153.5(4) ?
O13 Mo2 O17 6_556 . 83.9(3) ?
O13 Mo2 O17 . . 83.9(3) ?
O16 Mo2 O18 . . 177.9(5) ?
O14 Mo2 O18 . . 77.2(4) ?
O13 Mo2 O18 6_556 . 76.7(2) ?
O13 Mo2 O18 . . 76.7(2) ?
O17 Mo2 O18 . . 76.3(4) ?
O9 Mo1 O15 . . 104.7(5) ?
O9 Mo1 O10 . . 103.9(2) ?
O15 Mo1 O10 . . 88.9(2) ?
O9 Mo1 O10 . 6_556 103.9(2) ?
O15 Mo1 O10 . 6_556 88.9(2) ?
O10 Mo1 O10 . 6_556 151.7(5) ?
O9 Mo1 O14 . . 101.4(5) ?
O15 Mo1 O14 . . 154.0(4) ?
O10 Mo1 O14 . . 84.9(2) ?
O10 Mo1 O14 6_556 . 84.9(2) ?
O9 Mo1 O18 . . 176.8(5) ?
O15 Mo1 O18 . . 78.6(3) ?
O10 Mo1 O18 . . 76.0(2) ?
O10 Mo1 O18 6_556 . 76.0(2) ?
O14 Mo1 O18 . . 75.4(3) ?
Mo1 O18 Mo2 . . 90.1(3) ?
Mo1 O18 Mo3 . . 90.1(3) ?
Mo2 O18 Mo3 . . 179.8(4) ?
Mo1 O18 Mo5 . 6_556 90.5(2) ?
Mo2 O18 Mo5 . 6_556 90.1(2) ?
Mo3 O18 Mo5 . 6_556 89.9(2) ?
Mo1 O18 Mo5 . . 90.5(2) ?
Mo2 O18 Mo5 . . 90.1(2) ?
Mo3 O18 Mo5 . . 89.9(2) ?
Mo5 O18 Mo5 6_556 . 179.0(5) ?
Mo1 O18 Mo4 . . 179.5(4) ?
Mo2 O18 Mo4 . . 90.4(3) ?
Mo3 O18 Mo4 . . 89.4(3) ?
Mo5 O18 Mo4 6_556 . 89.5(2) ?
Mo5 O18 Mo4 . . 89.5(2) ?
Mo4 O17 Mo2 . . 115.6(5) ?
Mo1 O15 Mo3 . . 114.4(4) ?
Mo2 O14 Mo1 . . 117.3(5) ?
Mo2 O13 Mo5 . . 117.0(3) ?
Mo4 O11 Mo5 . . 117.1(4) ?
Mo5 O10 Mo1 . . 117.5(3) ?
Mo3 O8 Mo4 . . 118.5(6) ?
Mo3 O6 Mo5 . . 116.9(3) ?
C18 O4 H4A . . 109.5 ?
C11 O1 H1A . . 109.5 ?
H3WA O3W H3WA . 6_556 131(10) ?
H2WA O2W H2WB . . 151(10) ?
H1WA O1W H1WB . . 107(7) ?
C9 N3 C9 6_556 . 109.7(11) ?
C9 N3 H3A 6_556 . 125.2 ?
C9 N3 H3A . . 125.2 ?
C4 N2 C7 . . 109.7(7) ?
C4 N2 H2A . . 125.1 ?
C7 N2 H2A . . 125.1 ?
C2 N1 C2 6_556 . 110.3(12) ?
C2 N1 H1B 6_556 . 124.9 ?
C2 N1 H1B . . 124.9 ?
C19 C24 C23 . . 120.1(9) ?
C19 C24 H24A . . 119.9 ?
C23 C24 H24A . . 119.9 ?
C24 C23 C22 . . 120.7(9) ?
C24 C23 H23A . . 119.7 ?
C22 C23 H23A . . 119.7 ?
C21 C22 C23 . . 117.3(8) ?
C21 C22 C8 . . 120.3(8) ?
C23 C22 C8 . . 122.2(8) ?
C20 C21 C22 . . 120.4(9) ?
C20 C21 H21A . . 119.8 ?
C22 C21 H21A . . 119.8 ?
C21 C20 C19 . . 121.5(9) ?
C21 C20 H20A . . 119.2 ?
C19 C20 H20A . . 119.2 ?
C24 C19 C20 . . 119.7(9) ?
C24 C19 C18 . . 118.1(9) ?
C20 C19 C18 . . 122.1(9) ?
O3 C18 O4 . . 124.3(11) ?
O3 C18 C19 . . 119.9(10) ?
O4 C18 C19 . . 115.8(10) ?
C12 C17 C16 . . 120.6(10) ?
C12 C17 H17A . . 119.7 ?
C16 C17 H17A . . 119.7 ?
C15 C16 C17 . . 120.7(9) ?
C15 C16 H16A . . 119.6 ?
C17 C16 H16A . . 119.6 ?
C16 C15 C14 . . 118.1(9) ?
C16 C15 C3 . . 120.9(9) ?
C14 C15 C3 . . 120.9(9) ?
C13 C14 C15 . . 120.3(10) ?
C13 C14 H14A . . 119.8 ?
C15 C14 H14A . . 119.8 ?
C14 C13 C12 . . 120.9(10) ?
C14 C13 H13A . . 119.6 ?
C12 C13 H13A . . 119.6 ?
C17 C12 C13 . . 119.2(10) ?
C17 C12 C11 . . 121.7(10) ?
C13 C12 C11 . . 119.1(10) ?
O2 C11 O1 . . 127.0(11) ?
O2 C11 C12 . . 118.2(11) ?
O1 C11 C12 . . 114.6(11) ?
C10 C10 C9 6_556 . 109.7(5) ?
C10 C10 H10A 6_556 . 125.2 ?
C9 C10 H10A . . 125.2 ?
C8 C9 N3 . . 122.1(9) ?
C8 C9 C10 . . 132.1(9) ?
N3 C9 C10 . . 105.4(8) ?
C9 C8 C7 . . 124.7(8) ?
C9 C8 C22 . . 118.0(8) ?
C7 C8 C22 . . 117.3(8) ?
N2 C7 C8 . . 124.2(8) ?
N2 C7 C6 . . 105.6(8) ?
C8 C7 C6 . . 130.2(9) ?
C5 C6 C7 . . 109.2(8) ?
C5 C6 H6A . . 125.4 ?
C7 C6 H6A . . 125.4 ?
C6 C5 C4 . . 108.5(8) ?
C6 C5 H5A . . 125.7 ?
C4 C5 H5A . . 125.7 ?
N2 C4 C5 . . 106.8(9) ?
N2 C4 C3 . . 125.4(8) ?
C5 C4 C3 . . 127.9(9) ?
C2 C3 C4 . . 121.9(9) ?
C2 C3 C15 . . 119.4(9) ?
C4 C3 C15 . . 118.6(9) ?
N1 C2 C3 . . 124.2(9) ?
N1 C2 C1 . . 106.1(9) ?
C3 C2 C1 . . 129.5(9) ?
C1 C1 C2 6_556 . 108.7(5) ?
C1 C1 H1C 6_556 . 125.7 ?
C2 C1 H1C . . 125.7 ?
loop_
_geom_bond_atom_site_label_1
_geom_bond_atom_site_label_2
_geom_bond_site_symmetry_2
_geom_bond_distance
_geom_bond_publ_flag
Mo5 O5 . 1.653(9) ?
Mo5 O10 . 1.902(8) ?
Mo5 O13 . 1.917(8) ?
Mo5 O6 . 1.925(8) ?
Mo5 O11 . 1.926(9) ?
Mo5 O18 . 2.3187(11) ?
Mo4 O12 . 1.672(14) ?
Mo4 O17 . 1.879(11) ?
Mo4 O11 . 1.907(9) ?
Mo4 O11 6_556 1.907(9) ?
Mo4 O8 . 1.932(10) ?
Mo4 O18 . 2.325(9) ?
Mo3 O7 . 1.674(10) ?
Mo3 O8 . 1.860(10) ?
Mo3 O6 6_556 1.912(8) ?
Mo3 O6 . 1.912(8) ?
Mo3 O15 . 1.974(9) ?
Mo3 O18 . 2.309(9) ?
Mo2 O16 . 1.666(11) ?
Mo2 O14 . 1.854(10) ?
Mo2 O13 6_556 1.915(8) ?
Mo2 O13 . 1.915(8) ?
Mo2 O17 . 1.996(11) ?
Mo2 O18 . 2.297(9) ?
Mo1 O9 . 1.649(10) ?
Mo1 O15 . 1.904(9) ?
Mo1 O10 . 1.931(8) ?
Mo1 O10 6_556 1.931(8) ?
Mo1 O14 . 1.954(9) ?
Mo1 O18 . 2.297(9) ?
O4 C18 . 1.267(11) ?
O4 H4A . 0.8200 ?
O3 C18 . 1.247(11) ?
O2 C11 . 1.242(12) ?
O1 C11 . 1.260(12) ?
O1 H1A . 0.8200 ?
O4W H4WA . 0.859(5) ?
O3W H3WA . 0.859(5) ?
O3W H3WA 6_556 0.859(5) ?
O2W H2WA . 0.860(5) ?
O2W H2WB . 0.860(5) ?
O1W H1WA . 0.860(5) ?
O1W H1WB . 0.859(5) ?
N3 C9 6_556 1.400(10) ?
N3 C9 . 1.400(10) ?
N3 H3A . 0.8600 ?
N2 C4 . 1.377(11) ?
N2 C7 . 1.391(11) ?
N2 H2A . 0.8600 ?
N1 C2 6_556 1.382(11) ?
N1 C2 . 1.382(11) ?
N1 H1B . 0.8600 ?
C24 C19 . 1.345(12) ?
C24 C23 . 1.389(12) ?
C24 H24A . 0.9300 ?
C23 C22 . 1.413(12) ?
C23 H23A . 0.9300 ?
C22 C21 . 1.385(12) ?
C22 C8 . 1.477(12) ?
C21 C20 . 1.364(12) ?
C21 H21A . 0.9300 ?
C20 C19 . 1.380(12) ?
C20 H20A . 0.9300 ?
C19 C18 . 1.496(13) ?
C17 C12 . 1.354(12) ?
C17 C16 . 1.395(12) ?
C17 H17A . 0.9300 ?
C16 C15 . 1.394(12) ?
C16 H16A . 0.9300 ?
C15 C14 . 1.401(12) ?
C15 C3 . 1.465(13) ?
C14 C13 . 1.368(13) ?
C14 H14A . 0.9300 ?
C13 C12 . 1.405(13) ?
C13 H13A . 0.9300 ?
C12 C11 . 1.496(14) ?
C10 C10 6_556 1.345(16) ?
C10 C9 . 1.401(12) ?
C10 H10A . 0.9300 ?
C9 C8 . 1.394(12) ?
C8 C7 . 1.403(12) ?
C7 C6 . 1.416(11) ?
C6 C5 . 1.349(12) ?
C6 H6A . 0.9300 ?
C5 C4 . 1.407(11) ?
C5 H5A . 0.9300 ?
C4 C3 . 1.420(12) ?
C3 C2 . 1.386(12) ?
C2 C1 . 1.427(12) ?
C1 C1 6_556 1.355(16) ?
C1 H1C . 0.9300 ?
loop_
_geom_hbond_atom_site_label_D
_geom_hbond_atom_site_label_H
_geom_hbond_atom_site_label_A
_geom_hbond_site_symmetry_A
_geom_hbond_distance_DH
_geom_hbond_distance_HA
_geom_hbond_distance_DA
_geom_hbond_angle_DHA
_geom_hbond_publ_flag
O1 H1A O1W 7_686 0.82 1.90 2.656(11) 152 yes
O2W H2WA O3 4_576 0.86(2) 2.280(15) 2.694(10) 109.6(4) yes
O2W H2WA O3 7_685 0.86(2) 2.280(15) 2.694(10) 109.6(4) yes
O4 H4A O1W 7_586 0.82 1.94 2.675(11) 149 yes
O3W H3WA O2 7_585 0.86(5) 1.83(7) 2.644(11) 157(8) yes
O4W H4WA O2W 1_545 0.858(12) 2.351(16) 2.816(13) 114.4(12) yes
N2 H2A O4W . 0.86 2.09 2.936(9) 166 yes
O4W H4WA N1 . 0.858(12) 2.354(16) 2.960(12) 117.6(5) yes

_cod_database_fobs_code 2022274
