#------------------------------------------------------------------------------
#$Date: 2020-06-22 14:35:01 +0300 (Mon, 22 Jun 2020) $
#$Revision: 253313 $
#$URL: file:///home/coder/svn-repositories/cod/cif/2/02/21/2022165.cif $
#------------------------------------------------------------------------------
#
# This file is available in the Crystallography Open Database (COD),
# http://www.crystallography.net/. The original data for this entry
# were provided by IUCr Journals, http://journals.iucr.org/.
#
# The file may be used within the scientific community so long as
# proper attribution is given to the journal article from which the
# data were obtained.
#
data_2022165
loop_
_publ_author_name
'Wen-Tong Chen'
_publ_section_title
;
 A one-dimensional manganese(III)--porphyrin coordination polymer: crystal
 structure and photophysical properties
;
_journal_coeditor_code           OC3002
_journal_issue                   5
_journal_name_full               'Acta Crystallographica, Section C'
_journal_page_first              375
_journal_page_last               380
_journal_paper_doi               10.1107/S2053229620004350
_journal_volume                  76
_journal_year                    2020
_chemical_formula_iupac          '[Mn Cl (C40 H24 N8)]'
_chemical_formula_moiety         'C40 H24 Cl Mn N8'
_chemical_formula_sum            'C40 H24 Cl Mn N8'
_chemical_formula_weight         707.06
_chemical_name_common
'[Mn(3+)Cl(tetra-3-pyridinyl-21H,23H-Porphine(2-))]'
_chemical_name_systematic
<i>catena</i>-Poly[[chloridomanganese(III)]-\m~2~-5,10,15,20-tetrakis(pyridin-3-yl)-21<i>H</i>,23<i>H</i>-porphinato(2-)-\k^5^<i>N</i>^21^,<i>N</i>^22^,<i>N</i>^23^,<i>N</i>^24^:<i>N</i>^5^]
_space_group_crystal_system      monoclinic
_space_group_IT_number           14
_space_group_name_Hall           '-P 2yn'
_space_group_name_H-M_alt        'P 1 21/n 1'
_atom_sites_solution_hydrogens   geom
_audit_creation_method           SHELXL-2018/3
_cell_angle_alpha                90
_cell_angle_beta                 95.920(3)
_cell_angle_gamma                90
_cell_formula_units_Z            4
_cell_length_a                   9.5189(4)
_cell_length_b                   14.2450(5)
_cell_length_c                   23.4079(9)
_cell_measurement_reflns_used    6010
_cell_measurement_temperature    293(2)
_cell_measurement_theta_max      28.7510
_cell_measurement_theta_min      3.7640
_cell_volume                     3157.1(2)
_computing_cell_refinement
;
CrysAlis PRO (Rigaku OD, 2015)
;
_computing_data_collection
;
CrysAlis PRO (Rigaku OD, 2015)
;
_computing_data_reduction
;
CrysAlis PRO (Rigaku OD, 2015)
;
_computing_molecular_graphics
;
DIAMOND (Brandenburg & Putz, 2005) and <i>ASP</i>
(Chen, 2006)
;
_computing_publication_material
;
SHELXTL (Sheldrick, 2008) and publCIF (Westrip, 2010)
;
_computing_structure_refinement
;
SHELXL2018 (Sheldrick, 2015b)
;
_computing_structure_solution
;
SHELXT2018 (Sheldrick, 2015a)
;
_diffrn_ambient_temperature      293(2)
_diffrn_detector_area_resol_mean 8.0894
_diffrn_measured_fraction_theta_full 0.997
_diffrn_measured_fraction_theta_max 0.997
_diffrn_measurement_device_type  'Rigaku OD SuperNova (Mo) X-ray Source'
_diffrn_measurement_method       '\w scans'
_diffrn_radiation_type           MoK\a
_diffrn_radiation_wavelength     0.71073
_diffrn_reflns_av_R_equivalents  0.0176
_diffrn_reflns_av_unetI/netI     0.0282
_diffrn_reflns_limit_h_max       11
_diffrn_reflns_limit_h_min       -11
_diffrn_reflns_limit_k_max       16
_diffrn_reflns_limit_k_min       -14
_diffrn_reflns_limit_l_max       19
_diffrn_reflns_limit_l_min       -27
_diffrn_reflns_number            12826
_diffrn_reflns_theta_full        25.025
_diffrn_reflns_theta_max         25.025
_diffrn_reflns_theta_min         3.500
_diffrn_source                   'micro-focus sealed X-ray tube'
_exptl_absorpt_coefficient_mu    0.549
_exptl_absorpt_correction_T_max  0.931
_exptl_absorpt_correction_T_min  0.906
_exptl_absorpt_correction_type   multi-scan
_exptl_absorpt_process_details
;
(CrysAlis PRO; Rigaku OD, 2015)
;
_exptl_crystal_colour            black
_exptl_crystal_density_diffrn    1.488
_exptl_crystal_density_method    'not measured'
_exptl_crystal_description       block
_exptl_crystal_F_000             1448
_exptl_crystal_size_max          0.21
_exptl_crystal_size_mid          0.15
_exptl_crystal_size_min          0.13
_refine_diff_density_max         0.423
_refine_diff_density_min         -0.361
_refine_ls_extinction_coef       .
_refine_ls_extinction_method     none
_refine_ls_goodness_of_fit_ref   1.047
_refine_ls_hydrogen_treatment    constr
_refine_ls_matrix_type           full
_refine_ls_number_parameters     451
_refine_ls_number_reflns         5560
_refine_ls_number_restraints     0
_refine_ls_restrained_S_all      1.047
_refine_ls_R_factor_all          0.0465
_refine_ls_R_factor_gt           0.0370
_refine_ls_shift/su_max          0.001
_refine_ls_shift/su_mean         0.000
_refine_ls_structure_factor_coef Fsqd
_refine_ls_weighting_details
'w=1/[\s^2^(Fo^2^)+(0.0448P)^2^+1.8589P] where P=(Fo^2^+2Fc^2^)/3'
_refine_ls_weighting_scheme      calc
_refine_ls_wR_factor_gt          0.0915
_refine_ls_wR_factor_ref         0.0980
_reflns_number_gt                4759
_reflns_number_total             5560
_reflns_threshold_expression     'I > 2\s(I)'
_cod_data_source_file            oc3002sup1.cif
_cod_data_source_block           I
_cod_depositor_comments
;
The following automatic conversions were performed:

data item '_chemical_melting_point' value 'not measured' was changed
to '?' -- the value is undefined or not given.

Automatic conversion script
Id: cif_fix_values 7556 2019-12-06 15:28:31Z antanas 
;
_cod_original_sg_symbol_H-M      'P 21/n'
_cod_database_code               2022165
_shelx_space_group_comment
;
The symmetry employed for this shelxl refinement is uniquely defined
by the following loop, which should always be used as a source of
symmetry information in preference to the above space-group names.
They are only intended as comments.
;
_shelx_hkl_file
;
   0   0   4    4.39    0.13
   0   0  -5    0.05    0.03
   0   0   5    0.03    0.02
   0   0  -6   31.12    0.42
   0   0  -6   30.75    0.22
   0   0   6   30.98    0.39
   0   0   6   29.57    0.42
   0   0  -7    0.36    0.03
   0   0   7    0.35    0.06
   0   0  -7    0.50    0.08
   0   0   7    0.28    0.06
   0   0  -8    0.16    0.02
   0   0  -8    0.20    0.06
   0   0   8    0.13    0.04
   0   0   8    0.09    0.04
   0   0   8    0.23    0.05
   0   0  -9    0.02    0.04
   0   0  -9    0.09    0.02
   0   0   9   -0.02    0.03
   0   0   9    0.06    0.03
   0   0   9    0.02    0.03
   0   0  10    3.54    0.17
   0   0  10    3.37    0.17
   0   0 -10    3.47    0.19
   0   0 -10    3.42    0.09
   0   0  10    3.57    0.19
   0   0 -11    0.03    0.02
   0   0  11    0.01    0.03
   0   0  11    0.02    0.04
   0   0 -11   -0.01    0.05
   0   0  11   -0.03    0.04
   0   0 -12    1.62    0.07
   0   0  12    1.46    0.13
   0   0 -12    1.62    0.15
   0   0 -13    0.08    0.07
   0   0 -13    0.00    0.02
   0   0 -14    1.61    0.16
   0   0 -14    1.45    0.07
   0   0 -15    0.05    0.02
   0   0 -15    0.02    0.07
   0   0 -16    6.33    0.33
   0   0 -16    5.54    0.13
   0   0 -17    0.01    0.08
   0   0 -17    0.05    0.02
   0   0 -18    0.21    0.03
   0   0 -18    0.20    0.10
   0   0 -19    0.04    0.09
   0   0 -19    0.08    0.02
   0   0 -20    5.41    0.35
   0   0 -21    0.07    0.08
   0   0 -22    3.84    0.31
   0   0 -23    0.50    0.17
   0   0 -24   26.86    0.86
   0   0 -25    0.47    0.18
   0   0 -26    9.85    0.56
   0   0 -27    0.46    0.17
   0   0 -28    3.00    0.33
   0   0 -29    0.09    0.14
   0  -1  -4    1.02    0.07
   0   1  -4    0.98    0.05
   0   1   4    0.88    0.06
   0   1  -4    0.97    0.06
   0  -1   4    0.91    0.05
   0   1  -5  172.85    0.67
   0  -1   5  169.83    0.80
   0   1   5  168.76    0.93
   0   1  -5  168.99    0.82
   0   1   6    5.88    0.19
   0   1  -6    6.07    0.19
   0  -1  -6    5.78    0.19
   0  -1   6    5.99    0.17
   0   1  -6    5.91    0.13
   0   1  -6    6.17    0.18
   0   1  -7   26.58    0.43
   0  -1  -7   26.03    0.43
   0   1  -7   25.79    0.28
   0   1   7   25.54    0.43
   0  -1   7   26.26    0.38
   0   1  -8   17.79    0.38
   0   1  -8   17.95    0.25
   0  -1  -8   17.88    0.38
   0  -1   8   17.62    0.31
   0   1   8   18.42    0.38
   0   1   8   18.15    0.35
   0  -1   8   18.19    0.34
   0   1  -9    1.27    0.07
   0   1  -9    1.07    0.10
   0   1   9    1.35    0.12
   0  -1  -9    1.23    0.11
   0  -1   9    1.08    0.09
   0  -1   9    1.31    0.10
   0   1   9    1.10    0.09
   0   1 -10    3.57    0.12
   0  -1  10    3.32    0.16
   0  -1  10    3.37    0.16
   0   1  10    3.75    0.18
   0   1 -10    3.54    0.20
   0  -1 -10    3.57    0.19
   0   1  10    3.65    0.18
   0   1  10    3.81    0.20
   0  -1  11    0.50    0.07
   0  -1 -11    0.51    0.09
   0  -1  11    0.51    0.07
   0   1  11    0.66    0.10
   0   1  11    0.61    0.08
   0   1 -11    0.62    0.09
   0   1 -11    0.57    0.05
   0  -1 -12   13.34    0.41
   0   1 -12   13.56    0.25
   0   1 -12   13.87    0.41
   0  -1  12   14.35    0.36
   0   1 -13    3.04    0.21
   0  -1 -13    3.07    0.21
   0   1 -13    2.99    0.12
   0   1 -14    2.00    0.10
   0   1 -14    1.98    0.18
   0  -1 -14    2.29    0.18
   0   1 -15   -0.02    0.02
   0  -1 -15    0.06    0.06
   0   1 -15   -0.03    0.07
   0  -1 -16    4.74    0.28
   0   1 -16    4.92    0.29
   0   1 -16    4.80    0.16
   0  -1 -17    1.27    0.17
   0   1 -17    1.35    0.09
   0   1 -17    1.24    0.16
   0  -1 -18    1.81    0.20
   0   1 -18    1.58    0.19
   0   1 -18    1.94    0.10
   0   1 -19    0.28    0.10
   0  -1 -19    0.21    0.09
   0   1 -20    2.52    0.24
   0   1 -20    2.39    0.11
   0  -1 -20    2.74    0.25
   0  -1 -21    3.93    0.31
   0   1 -21    3.96    0.31
   0   1 -22    0.14    0.10
   0  -1 -22    0.38    0.13
   0  -1 -23    1.47    0.21
   0   1 -23    1.63    0.22
   0   1 -24    1.02    0.20
   0  -1 -24    0.48    0.14
   0  -1 -25    0.38    0.17
   0   1 -25    0.29    0.13
   0  -1 -26    0.82    0.19
   0   1 -26    0.50    0.16
   0  -1 -27    8.55    0.53
   0   1 -27    7.55    0.50
   0   1 -28    0.30    0.15
   0  -1 -28    0.31    0.15
   0  -1 -29    0.09    0.11
   0   1 -29    0.37    0.17
   0  -2   3    3.92    0.10
   0   2  -3    3.65    0.09
   0   2  -4    0.38    0.04
   0   2  -4    0.34    0.04
   0  -2   4    0.53    0.04
   0  -2   4    0.41    0.04
   0   2   5  264.73    1.23
   0   2  -5  262.95    1.02
   0   2  -5  262.53    1.03
   0  -2   5  264.29    1.00
   0   2   6    5.82    0.20
   0  -2   6    6.28    0.15
   0   2  -6    5.84    0.16
   0   2  -6    6.02    0.17
   0  -2   6    5.70    0.16
   0   2   7   12.30    0.31
   0  -2   7   12.13    0.25
   0   2  -7   12.21    0.26
   0   2  -7   11.97    0.23
   0  -2   7   12.07    0.23
   0  -2  -7   12.35    0.30
   0   2  -8   77.22    0.61
   0   2   8   77.04    0.81
   0   2   8   79.57    0.76
   0  -2   8   77.70    0.62
   0  -2   8   79.34    0.69
   0   2  -8   77.61    0.71
   0  -2  -8   79.32    0.80
   0   2   9    0.11    0.05
   0   2  -9    0.06    0.03
   0  -2   9    0.15    0.04
   0   2   9    0.13    0.05
   0  -2  -9    0.11    0.06
   0  -2   9    0.15    0.05
   0   2 -10   17.06    0.30
   0  -2  10   16.60    0.35
   0   2  10   17.15    0.43
   0  -2  10   17.49    0.34
   0   2  10   16.05    0.39
   0   2 -10   17.67    0.43
   0  -2 -10   16.48    0.41
   0  -2 -11   19.54    0.46
   0   2 -11   18.91    0.47
   0  -2  11   19.18    0.41
   0   2 -11   19.47    0.33
   0  -2  11   19.55    0.38
   0  -2 -12    1.13    0.12
   0   2 -12    0.92    0.12
   0  -2  12    1.01    0.10
   0   2 -12    0.98    0.08
   0   2 -13    0.05    0.03
   0  -2 -13    0.08    0.06
   0  -2  13    0.01    0.04
   0   2 -13    0.08    0.07
   0   2 -14    0.05    0.03
   0   2 -14    0.03    0.06
   0  -2 -14    0.08    0.07
   0  -2 -15    4.16    0.26
   0   2 -15    3.77    0.16
   0   2 -15    4.06    0.26
   0   2 -16   10.40    0.27
   0   2 -16   11.00    0.44
   0  -2 -16   10.93    0.43
   0   2 -17    0.07    0.05
   0  -2 -17    0.05    0.08
   0   2 -17    0.18    0.09
   0  -2 -18    8.31    0.40
   0   2 -18    8.57    0.25
   0   2 -18    8.46    0.41
   0   2 -19    2.83    0.14
   0   2 -19    2.96    0.26
   0  -2 -19    3.18    0.26
   0   2 -20    3.20    0.27
   0  -2 -20    3.19    0.27
   0   2 -20    3.47    0.16
   0  -2 -21    0.08    0.09
   0   2 -21    0.22    0.09
   0   2 -21    0.30    0.06
   0   2 -22   -0.09    0.11
   0  -2 -22   -0.06    0.08
   0  -2 -23    0.29    0.12
   0   2 -23    0.57    0.15
   0   2 -24    3.67    0.33
   0  -2 -24    3.98    0.34
   0  -2 -25    0.92    0.18
   0   2 -25    1.19    0.21
   0  -2 -26    4.08    0.36
   0   2 -26    4.78    0.40
   0  -2 -27    0.11    0.14
   0   2 -27    0.24    0.14
   0   2 -28    1.00    0.21
   0  -2 -28    1.01    0.21
   0   2 -29    0.05    0.12
   0  -2 -29    0.20    0.16
   0   3   0    0.03    0.01
   0   3   1    5.29    0.12
   0   3   2    1.28    0.07
   0   3  -3   91.42    0.49
   0   3  -4    9.42    0.18
   0   3   5   60.07    0.58
   0   3  -5   59.85    0.57
   0  -3   5   59.77    0.34
   0  -3   5   60.15    0.48
   0   3  -5   59.28    0.49
   0  -3   6   16.93    0.28
   0   3  -6   16.56    0.28
   0  -3   6   16.60    0.21
   0   3  -6   17.22    0.31
   0   3   6   16.72    0.36
   0   3   6   16.89    0.33
   0  -3   7    8.57    0.18
   0   3   7    8.11    0.26
   0   3  -7    8.18    0.22
   0  -3   7    8.77    0.21
   0   3   7    8.44    0.25
   0   3  -7    8.48    0.22
   0  -3   8   71.96    0.66
   0  -3   8   69.80    0.55
   0   3   8   71.82    0.82
   0   3  -8   70.90    0.68
   0   3   8   71.56    0.76
   0   3  -8   71.25    0.66
   0   3  -9    5.74    0.21
   0   3   9    5.45    0.22
   0   3   9    5.54    0.11
   0   3   9    5.62    0.24
   0  -3   9    5.43    0.19
   0   3  -9    5.56    0.19
   0  -3   9    5.92    0.17
   0  -3  10   13.83    0.33
   0   3  10   14.25    0.40
   0   3 -10   13.74    0.34
   0  -3  10   13.39    0.28
   0   3 -10   13.27    0.30
   0   3 -11    0.18    0.04
   0  -3  11    0.07    0.04
   0  -3  11    0.08    0.04
   0   3 -12    9.18    0.26
   0  -3  12    9.16    0.27
   0   3 -13    0.10    0.04
   0  -3 -13    0.24    0.08
   0   3 -13    0.10    0.06
   0  -3  13    0.27    0.06
   0   3 -14    0.01    0.08
   0  -3  14    0.06    0.05
   0   3 -14    0.03    0.04
   0  -3 -14    0.11    0.08
   0  -3 -15    6.19    0.32
   0   3 -15    5.66    0.22
   0   3 -15    6.15    0.32
   0  -3 -16   13.84    0.48
   0   3 -16   13.66    0.49
   0   3 -16   12.27    0.32
   0  -3 -17    0.37    0.13
   0   3 -17    0.10    0.05
   0   3 -17    0.36    0.11
   0   3 -18    0.17    0.07
   0   3 -18    0.17    0.10
   0  -3 -19    5.98    0.35
   0   3 -19    5.84    0.36
   0   3 -19    5.62    0.23
   0   3 -20    0.81    0.15
   0   3 -20    0.80    0.09
   0  -3 -20    1.06    0.17
   0  -3 -21    1.16    0.18
   0   3 -21    0.89    0.16
   0   3 -21    0.96    0.10
   0   3 -22   -0.07    0.08
   0  -3 -22    0.18    0.10
   0   3 -23    0.07    0.11
   0  -3 -23   -0.05    0.09
   0   3 -24   -0.04    0.09
   0   3 -25    2.51    0.29
   0   3 -26    0.45    0.15
   0   3 -27    3.87    0.38
   0   3 -28    0.78    0.20
   0   4   0   95.57    0.48
   0   4   1   13.18    0.21
   0   4  -1   12.77    0.15
   0   4   2  224.30    0.94
   0   4   3    0.64    0.06
   0   4   4    7.31    0.20
   0   4  -4    7.36    0.16
   0   4  -5    5.26    0.15
   0   4   5    5.20    0.18
   0   4  -5    5.24    0.19
   0   4  -6    7.94    0.24
   0  -4   6    7.85    0.13
   0   4  -6    7.81    0.20
   0   4   6    8.07    0.24
   0  -4   7   19.86    0.32
   0  -4   7   19.26    0.23
   0   4   7   19.36    0.39
   0   4  -7   19.92    0.38
   0   4  -7   19.87    0.34
   0  -4   8  142.35    0.93
   0   4  -8  141.08    1.05
   0  -4   8  137.83    0.71
   0   4   8  140.19    1.10
   0   4  -8  140.72    0.96
   0   4   8  141.40    1.19
   0  -4   9   13.36    0.30
   0  -4   9   13.25    0.24
   0   4  -9   13.07    0.31
   0   4   9   13.80    0.37
   0   4  -9   13.03    0.32
   0   4   9   13.18    0.38
   0   4 -10   63.16    0.73
   0  -4  10   63.04    0.58
   0  -4  10   63.38    0.69
   0   4 -10   62.03    0.72
   0   4  11    8.42    0.15
   0   4  11    8.25    0.16
   0  -4  11    8.64    0.27
   0  -4  11    8.53    0.23
   0   4 -11    8.65    0.28
   0   4 -11    8.44    0.27
   0   4 -12    0.40    0.07
   0  -4  12    0.51    0.06
   0   4 -12    0.30    0.07
   0   4  12    0.46    0.03
   0   4  12    0.38    0.03
   0  -4  13   10.04    0.28
   0   4 -13    9.30    0.29
   0   4 -14    1.35    0.12
   0  -4  14    1.22    0.11
   0   4 -15   -0.07    0.08
   0  -4  15    0.03    0.05
   0   4 -15   -0.01    0.04
   0   4 -16   16.98    0.41
   0   4 -16   17.96    0.57
   0   4 -17    5.17    0.24
   0   4 -17    5.28    0.33
   0   4 -18    6.09    0.36
   0   4 -18    5.53    0.25
   0   4 -19   19.83    0.46
   0   4 -19   20.90    0.68
   0   4 -20    2.30    0.27
   0   4 -20    1.95    0.15
   0   4 -21    7.71    0.29
   0   4 -21    7.99    0.46
   0   4 -22    9.21    0.50
   0   4 -22    8.97    0.32
   0   4 -23    7.97    0.49
   0   4 -24    3.13    0.32
   0   4 -25    0.21    0.14
   0   4 -26    0.06    0.10
   0   4 -27    0.35    0.14
   0   4 -28    0.08    0.13
   0   5   0    0.05    0.02
   0   5  -1   17.90    0.20
   0   5   1   17.74    0.26
   0   5   2   16.19    0.27
   0   5   3   69.63    0.61
   0   5   4   18.53    0.34
   0   5  -5   23.40    0.45
   0   5   5   24.84    0.42
   0   5  -5   23.33    0.33
   0   5   6    2.05    0.13
   0   5  -6    1.83    0.10
   0   5  -6    1.93    0.13
   0   5   7   12.55    0.33
   0   5  -7   12.41    0.27
   0   5  -7   12.32    0.33
   0   5   8    0.35    0.07
   0   5  -8    0.45    0.07
   0   5  -8    0.46    0.06
   0  -5   8    0.45    0.04
   0  -5   9    0.13    0.03
   0   5  -9    0.12    0.04
   0   5  -9    0.12    0.05
   0  -5  10   25.03    0.44
   0  -5  10   24.44    0.33
   0   5 -10   24.43    0.46
   0   5 -10   24.46    0.49
   0  -5  11   34.55    0.43
   0   5 -11   36.23    0.58
   0   5  11   35.66    0.38
   0  -5  11   35.57    0.54
   0   5 -11   34.29    0.59
   0  -5  12    2.28    0.12
   0   5 -12    2.07    0.15
   0   5  12    2.29    0.10
   0   5 -12    2.09    0.15
   0   5  12    2.32    0.09
   0  -5  13   23.35    0.41
   0   5 -13   24.04    0.53
   0   5  13   24.27    0.27
   0   5 -13   23.05    0.50
   0   5  13   23.91    0.29
   0   5 -14    0.04    0.05
   0  -5  14    0.01    0.04
   0   5  14    0.02    0.02
   0   5  14    0.04    0.02
   0   5 -15   10.47    0.35
   0  -5  15   10.97    0.32
   0   5 -16    0.66    0.10
   0   5 -17    3.61    0.28
   0   5 -17    3.15    0.20
   0   5 -18    0.09    0.09
   0   5 -18    0.07    0.05
   0   5 -19    8.20    0.32
   0   5 -19    8.93    0.46
   0   5 -20    7.98    0.45
   0   5 -20    7.52    0.31
   0   5 -21    6.95    0.42
   0   5 -21    6.61    0.30
   0   5 -22    0.42    0.14
   0   5 -22    0.21    0.07
   0   5 -23    0.14    0.12
   0   5 -24    0.47    0.16
   0   5 -25    1.89    0.26
   0   5 -26    0.90    0.19
   0   5 -27    0.33    0.17
   0   6   0    0.84    0.06
   0   6  -1   36.03    0.32
   0   6   1   36.68    0.41
   0   6   2   17.58    0.30
   0   6   3   13.61    0.29
   0   6  -4    0.87    0.10
   0   6   4    0.75    0.08
   0   6   5   39.11    0.55
   0   6  -5   40.43    0.45
   0   6  -5   39.26    0.62
   0   6   6    0.55    0.07
   0   6  -6    0.46    0.05
   0   6  -6    0.37    0.07
   0   6   7    0.27    0.06
   0   6  -7    0.16    0.05
   0   6  -7    0.30    0.05
   0   6  -8   47.10    0.57
   0   6  -8   44.46    0.71
   0   6  -9    4.90    0.24
   0   6  -9    5.10    0.20
   0   6 -10   53.04    0.78
   0   6  10   52.94    0.57
   0   6 -10   54.91    0.69
   0   6  11    0.39    0.05
   0   6 -11    0.55    0.09
   0   6 -11    0.38    0.08
   0  -6  12    0.05    0.03
   0   6 -12    0.01    0.05
   0   6  12    0.11    0.04
   0   6 -12    0.02    0.05
   0  -6  13   12.31    0.28
   0   6 -13   11.80    0.39
   0   6  13   12.48    0.25
   0   6 -13   12.54    0.38
   0  -6  14    8.49    0.25
   0   6  14    8.89    0.19
   0   6 -14    8.53    0.33
   0   6 -14    8.94    0.34
   0   6  14    8.44    0.20
   0  -6  15   10.43    0.29
   0   6  15   10.28    0.19
   0   6  15   10.20    0.20
   0   6 -15   10.79    0.38
   0   6 -16   20.27    0.52
   0  -6  16   19.34    0.42
   0   6 -17    0.76    0.11
   0   6 -18    0.54    0.13
   0   6 -18    0.58    0.10
   0   6 -19    1.71    0.22
   0   6 -19    1.64    0.16
   0   6 -20    0.45    0.10
   0   6 -20    0.41    0.13
   0   6 -21    0.51    0.14
   0   6 -21    0.31    0.08
   0   6 -22    1.79    0.25
   0   6 -22    1.92    0.18
   0   6 -23    1.96    0.18
   0   6 -23    2.08    0.25
   0   6 -24    0.19    0.12
   0   6 -25    1.27    0.23
   0   6 -26    0.36    0.13
   0   6 -27    0.22    0.15
   0   7   0    0.32    0.05
   0   7   1    0.25    0.04
   0   7   2   28.76    0.42
   0   7  -3   15.46    0.41
   0   7   3   15.54    0.33
   0   7   4    7.18    0.23
   0   7  -4    7.28    0.29
   0   7  -5   28.87    0.40
   0   7  -5   30.33    0.59
   0   7   5   30.41    0.51
   0   7  -6    2.54    0.18
   0   7  -6    2.59    0.13
   0   7   6    2.68    0.16
   0   7  -7   35.35    0.65
   0   7  -7   34.68    0.48
   0   7  -8    5.29    0.26
   0   7  -8    5.59    0.21
   0   7  -9    0.01    0.06
   0   7  -9    0.01    0.03
   0   7   9    0.06    0.04
   0   7 -10    5.31    0.22
   0   7 -10    5.08    0.26
   0   7  10    5.30    0.20
   0   7 -11    7.85    0.28
   0   7 -11    7.62    0.32
   0   7  11    7.91    0.24
   0   7 -12    0.88    0.10
   0   7 -12    0.77    0.11
   0   7  12    0.96    0.09
   0   7 -13    3.55    0.23
   0   7 -13    3.71    0.21
   0   7  13    3.77    0.16
   0   7  14    1.27    0.09
   0   7 -14    1.13    0.13
   0   7 -14    1.39    0.15
   0   7 -15    0.05    0.07
   0   7  15    0.12    0.04
   0   7  15    0.17    0.05
   0   7 -15    0.20    0.08
   0   7 -16    1.39    0.16
   0   7  16    1.28    0.08
   0   7 -17   12.67    0.44
   0   7 -18    0.25    0.09
   0   7 -19    0.02    0.06
   0   7 -20    4.58    0.28
   0   7 -20    5.44    0.38
   0   7 -21    3.48    0.25
   0   7 -21    3.76    0.33
   0   7 -22    0.92    0.17
   0   7 -22    0.85    0.14
   0   7 -23   -0.01    0.10
   0   7 -23    0.02    0.07
   0   7 -24    0.37    0.14
   0   7 -25   -0.09    0.12
   0   7 -26    0.43    0.17
   0   8   0   42.97    0.47
   0   8   1    4.24    0.16
   0   8  -1    4.15    0.23
   0   8  -2   14.81    0.43
   0   8   2   15.13    0.32
   0   8  -3    0.15    0.08
   0   8   3    0.18    0.05
   0   8   4   16.38    0.37
   0   8  -4   16.11    0.45
   0   8   5    4.53    0.21
   0   8  -5    5.10    0.26
   0   8  -6    0.09    0.08
   0   8  -6    0.04    0.04
   0   8   6    0.12    0.06
   0   8  -7    5.85    0.29
   0   8   7    5.88    0.24
   0   8  -7    5.64    0.20
   0   8  -8    0.36    0.10
   0   8   8    0.24    0.06
   0   8  -8    0.16    0.05
   0   8  -9   13.57    0.44
   0   8  -9   14.71    0.35
   0   8   9   13.51    0.36
   0   8  10   14.93    0.37
   0   8 -10   15.11    0.37
   0   8 -10   14.58    0.47
   0   8 -11    8.70    0.37
   0   8  11    8.24    0.27
   0   8 -11    8.85    0.30
   0   8  12    0.06    0.04
   0   8 -12    0.05    0.06
   0   8 -12    0.20    0.09
   0   8 -13    0.44    0.10
   0   8  13    0.44    0.07
   0   8 -13    0.34    0.07
   0   8 -14    0.45    0.08
   0   8 -14    0.32    0.09
   0   8  14    0.34    0.06
   0   8 -15    0.58    0.12
   0   8  15    0.80    0.08
   0   8 -15    0.54    0.10
   0   8 -16    0.14    0.07
   0   8 -16    0.25    0.09
   0   8  16    0.19    0.05
   0   8 -17    6.22    0.33
   0   8 -18    0.16    0.08
   0   8 -19    0.22    0.09
   0   8 -20    0.03    0.07
   0   8 -21    2.74    0.30
   0   8 -21    3.09    0.25
   0   8 -22    3.36    0.26
   0   8 -22    3.25    0.33
   0   8 -23    0.78    0.20
   0   8 -23    0.36    0.11
   0   8 -24    2.06    0.28
   0   8 -25    1.35    0.25
   0   8 -26    1.22    0.24
   0   9   0   -0.01    0.07
   0   9  -1   10.13    0.37
   0   9   1   10.21    0.37
   0   9   1    9.93    0.26
   0   9   2    0.08    0.04
   0   9  -2    0.09    0.06
   0   9   2    0.14    0.07
   0   9  -3    7.70    0.33
   0   9   3    7.26    0.31
   0   9   3    7.43    0.25
   0   9   4   11.75    0.33
   0   9   4   12.21    0.39
   0   9  -4   11.85    0.42
   0   9   5   46.30    0.68
   0   9  -5   46.23    0.83
   0   9   5   46.90    0.75
   0   9  -6    6.37    0.21
   0   9  -6    6.26    0.32
   0   9   6    6.19    0.28
   0   9   7   24.33    0.53
   0   9  -7   24.79    0.43
   0   9  -7   25.25    0.62
   0   9  -8    0.11    0.07
   0   9   8    0.00    0.06
   0   9  -8    0.02    0.04
   0   9  -9    3.07    0.17
   0   9  -9    2.76    0.22
   0   9   9    3.23    0.19
   0   9  10    0.00    0.05
   0   9 -10   -0.01    0.04
   0   9 -11   10.86    0.44
   0   9 -11   10.61    0.33
   0   9  11   10.48    0.33
   0   9  12   18.96    0.44
   0   9 -12   19.52    0.47
   0   9 -12   18.40    0.57
   0   9  13    2.93    0.17
   0   9 -13    3.33    0.25
   0   9 -13    2.86    0.19
   0   9 -14    0.41    0.10
   0   9  14    0.53    0.08
   0   9 -14    0.41    0.08
   0   9 -15    0.67    0.13
   0   9 -15    0.76    0.12
   0   9  15    0.75    0.09
   0   9 -16    6.46    0.36
   0   9 -16    7.20    0.33
   0   9 -17    7.13    0.37
   0   9 -18    0.32    0.11
   0   9 -19    6.83    0.38
   0   9 -20    0.34    0.10
   0   9 -21    3.62    0.29
   0   9 -22    1.24    0.22
   0   9 -22    0.63    0.14
   0   9 -23   -0.18    0.11
   0   9 -23   -0.10    0.12
   0   9 -24   -0.18    0.14
   0   9 -25   -0.14    0.14
   0  10   0   11.69    0.43
   0  10   1   -0.04    0.06
   0  10  -1   -0.05    0.08
   0  10   2    4.06    0.25
   0  10   2    4.27    0.19
   0  10  -2    4.26    0.26
   0  10  -3    1.75    0.17
   0  10   3    1.88    0.14
   0  10   3    2.00    0.18
   0  10   4    0.40    0.09
   0  10  -4    0.29    0.08
   0  10   4    0.49    0.08
   0  10  -5    6.30    0.35
   0  10   5    6.68    0.31
   0  10  -6   20.39    0.59
   0  10   6   19.53    0.52
   0  10  -6   20.16    0.39
   0  10   7   15.38    0.46
   0  10  -7   15.28    0.35
   0  10  -7   15.24    0.52
   0  10  -8   13.71    0.34
   0  10  -8   13.21    0.49
   0  10   8   12.71    0.41
   0  10  -9   15.31    0.53
   0  10   9   15.11    0.44
   0  10  -9   16.26    0.39
   0  10 -10    0.23    0.10
   0  10  10    0.24    0.08
   0  10 -10    0.15    0.06
   0  10  11    5.79    0.27
   0  10 -11    5.48    0.33
   0  10 -11    5.87    0.25
   0  10  12    1.99    0.16
   0  10 -12    2.04    0.16
   0  10 -12    1.80    0.20
   0  10 -13   10.92    0.37
   0  10 -13   10.44    0.46
   0  10  13   11.02    0.36
   0  10  14    0.11    0.07
   0  10 -14    0.00    0.08
   0  10 -14    0.06    0.07
   0  10 -15   27.01    0.75
   0  10 -15   28.07    0.64
   0  10  15   28.34    0.55
   0  10 -16    1.91    0.19
   0  10 -16    1.82    0.21
   0  10 -17    2.91    0.26
   0  10 -18   11.42    0.51
   0  10 -19    1.50    0.19
   0  10 -20    0.91    0.16
   0  10 -21   -0.03    0.08
   0  10 -22    0.50    0.12
   0  10 -23    0.24    0.11
   0  10 -23    0.02    0.09
   0  10 -24    0.43    0.16
   0  11   0   -0.04    0.08
   0  11  -1    0.25    0.09
   0  11   1    0.17    0.09
   0  11   2    1.98    0.19
   0  11  -2    1.81    0.19
   0  11   3    1.45    0.16
   0  11  -3    1.34    0.19
   0  11   3    1.49    0.13
   0  11   4    1.58    0.17
   0  11  -4    1.72    0.20
   0  11  -5   24.90    0.68
   0  11   5   25.08    0.62
   0  11  -6    4.86    0.31
   0  11  -6    4.51    0.19
   0  11   6    4.04    0.26
   0  11   7    1.49    0.16
   0  11  -7    1.58    0.12
   0  11  -7    1.66    0.19
   0  11   8   -0.09    0.10
   0  11  -8    0.13    0.09
   0  11  -8    0.06    0.04
   0  11   9    1.88    0.17
   0  11  -9    1.98    0.21
   0  11  -9    2.08    0.15
   0  11  10    0.27    0.07
   0  11 -10    0.30    0.11
   0  11 -10    0.30    0.07
   0  11 -11    0.60    0.14
   0  11 -11    0.30    0.08
   0  11  11    0.47    0.10
   0  11 -12   13.48    0.55
   0  11  12   14.24    0.44
   0  11 -13    4.83    0.34
   0  11  13    5.27    0.27
   0  11 -13    4.92    0.26
   0  11 -14    1.67    0.16
   0  11  14    1.51    0.15
   0  11 -14    1.64    0.21
   0  11 -15    1.88    0.21
   0  11 -15    1.81    0.17
   0  11 -16    2.86    0.27
   0  11 -16    2.75    0.21
   0  11 -17    1.94    0.23
   0  11 -18    0.07    0.09
   0  11 -19    3.20    0.29
   0  11 -20    1.18    0.20
   0  11 -21    1.53    0.21
   0  11 -22   -0.01    0.08
   0  11 -23    0.12    0.09
   0  11 -24   -0.04    0.09
   0  12   0    5.53    0.33
   0  12  -1    0.97    0.14
   0  12   1    1.34    0.17
   0  12   2    0.11    0.07
   0  12  -2   -0.10    0.09
   0  12   3   -0.04    0.08
   0  12  -3   -0.04    0.08
   0  12  -4    1.25    0.17
   0  12   4    1.51    0.17
   0  12  -5   19.64    0.64
   0  12   5   20.35    0.60
   0  12   6    0.72    0.14
   0  12  -6    0.83    0.17
   0  12  -6    0.42    0.07
   0  12  -7    6.78    0.38
   0  12   7    6.89    0.34
   0  12  -7    7.19    0.26
   0  12  -8    3.03    0.27
   0  12   8    3.24    0.24
   0  12  -8    3.17    0.18
   0  12  -9    2.24    0.16
   0  12  -9    2.29    0.24
   0  12   9    2.60    0.21
   0  12 -10    0.04    0.05
   0  12  10    0.17    0.10
   0  12 -10    0.09    0.08
   0  12  11    7.80    0.36
   0  12 -11    8.19    0.31
   0  12 -11    7.70    0.43
   0  12 -12    0.52    0.09
   0  12 -12    0.71    0.15
   0  12  12    0.75    0.12
   0  12 -13    1.25    0.19
   0  12  13    0.93    0.12
   0  12 -13    1.02    0.12
   0  12  14    0.99    0.13
   0  12 -14    1.05    0.18
   0  12 -14    1.33    0.15
   0  12 -15    7.03    0.43
   0  12 -15    7.46    0.34
   0  12 -16    0.90    0.17
   0  12 -16    0.93    0.13
   0  12 -17    0.44    0.14
   0  12 -18    4.02    0.33
   0  12 -19    0.54    0.14
   0  12 -20    0.00    0.09
   0  12 -21    0.34    0.13
   0  12 -22    0.05    0.09
   0  12 -23    0.79    0.18
   0  12 -24    0.61    0.17
   0  13   0    0.03    0.08
   0  13   1    2.22    0.22
   0  13  -1    2.42    0.24
   0  13   2   -0.15    0.10
   0  13  -2    0.09    0.08
   0  13  -3    9.40    0.46
   0  13   3    9.27    0.44
   0  13  -4    0.98    0.17
   0  13   4    1.31    0.18
   0  13  -5   -0.08    0.09
   0  13   5    0.01    0.07
   0  13  -5    0.05    0.05
   0  13  -6    0.12    0.05
   0  13   6    0.10    0.08
   0  13   7    9.94    0.44
   0  13  -7   10.66    0.32
   0  13  -7   10.15    0.49
   0  13   8    0.08    0.08
   0  13  -8    0.07    0.08
   0  13  -8   -0.01    0.05
   0  13  -9    1.50    0.13
   0  13  -9    1.41    0.19
   0  13   9    1.07    0.15
   0  13  10    0.73    0.13
   0  13 -10    0.73    0.15
   0  13 -10    0.75    0.10
   0  13 -11    5.06    0.25
   0  13 -11    4.68    0.35
   0  13  11    4.73    0.30
   0  13 -12    8.44    0.47
   0  13  12    9.07    0.40
   0  13 -12    9.43    0.35
   0  13 -13    9.35    0.50
   0  13  13    9.57    0.41
   0  13 -13   10.28    0.38
   0  13 -14    6.00    0.41
   0  13 -15    0.16    0.09
   0  13 -16   -0.15    0.12
   0  13 -17    0.35    0.11
   0  13 -18    0.35    0.13
   0  13 -19    0.08    0.10
   0  13 -20    1.68    0.24
   0  13 -21    1.27    0.21
   0  13 -22    1.32    0.22
   0  13 -23    1.45    0.24
   0  14   0    3.95    0.32
   0  14   1   10.72    0.50
   0  14  -1   10.35    0.50
   0  14   2    0.24    0.10
   0  14  -2    0.26    0.13
   0  14   3    7.87    0.42
   0  14  -3    7.90    0.44
   0  14  -4    4.64    0.34
   0  14   4    5.35    0.35
   0  14   5    0.18    0.10
   0  14  -5    0.24    0.12
   0  14   6    4.04    0.30
   0  14  -6    4.32    0.34
   0  14   7    1.67    0.20
   0  14  -7    1.48    0.22
   0  14  -8    1.12    0.20
   0  14   8    1.33    0.18
   0  14   9    4.74    0.32
   0  14  -9    5.19    0.38
   0  14  10    0.67    0.13
   0  14 -10    0.97    0.18
   0  14 -11    0.73    0.16
   0  14  11    0.94    0.15
   0  14  12    0.90    0.15
   0  14 -12    0.60    0.15
   0  14 -13    0.44    0.13
   0  14 -14   -0.13    0.12
   0  14 -15    1.41    0.23
   0  14 -16    0.96    0.18
   0  14 -17    1.65    0.24
   0  14 -18    1.32    0.22
   0  14 -19   -0.08    0.11
   0  14 -20    0.81    0.18
   0  15   0    0.21    0.11
   0  15  -1    0.75    0.17
   0  15   1    0.90    0.18
   0  15  -2   11.23    0.55
   0  15   2   12.15    0.55
   0  15  -3    5.87    0.41
   0  15   3    5.67    0.39
   0  15   4   13.77    0.58
   0  15  -4   14.35    0.62
   0  15  -5    0.47    0.16
   0  15   5    0.88    0.17
   0  15  -6    0.45    0.15
   0  15   6    0.52    0.14
   0  15  -7    1.55    0.21
   0  15   7    1.48    0.19
   0  15  -8    0.11    0.10
   0  15   8    0.02    0.08
   0  15  -9    0.30    0.12
   0  15   9    0.34    0.11
   0  15 -10    0.28    0.14
   0  15  10    0.36    0.11
   0  15 -11    0.66    0.17
   0  15  11    0.43    0.12
   0  15 -12    1.63    0.24
   0  15  12    1.65    0.20
   0  15 -13    1.48    0.23
   0  15 -14    2.04    0.27
   0  15 -15    3.85    0.37
   0  15 -16   -0.16    0.14
   0  15 -17   -0.07    0.11
   0  16   0    0.43    0.13
   0  16   1    4.81    0.37
   0  16  -1    5.66    0.41
   0  16   2    0.94    0.18
   0  16  -2    1.11    0.20
   0  16  -3    0.68    0.18
   0  16   3    0.92    0.19
   0  16  -4    0.04    0.10
   0  16   4    0.14    0.13
   0  16   5    0.18    0.12
   0  16  -5    0.26    0.13
   0  16   6    0.26    0.11
   0  16  -6    0.19    0.10
   0  16  -7    4.58    0.38
   0  16   7    4.18    0.34
   0  16   8    1.87    0.24
   0  16  -8    1.53    0.24
   0  16   9    0.53    0.13
   0  16  -9    0.85    0.20
   0  16 -10   -0.03    0.13
   0  16  10   -0.21    0.11
   0  16 -11   -0.09    0.12
   0  16  11    0.02    0.08
   0  16 -12    0.14    0.11
   0  16 -13    0.40    0.18
   0  17   0   -0.07    0.12
   0  17   1    0.05    0.12
   0  17  -1    0.17    0.12
   0  17  -2    4.94    0.40
   0  17   2    4.72    0.40
   0  17   3    0.24    0.14
   0  17  -3    0.07    0.12
   0  17  -4    4.00    0.37
   0  17   4    3.76    0.34
   0  17   5    0.13    0.12
   0  17  -5    0.14    0.11
   0  17  -6    0.14    0.13
   0  17   6    0.10    0.10
   0  17  -7   -0.14    0.11
   0  17   7   -0.07    0.12
   0  17   8    0.26    0.12
   0  17  -8    0.06    0.11
   0  17   9   -0.10    0.10
   0  17  10    0.75    0.16
   0  18   0    0.76    0.19
   0  18   1    9.79    0.57
   0  18  -1   10.19    0.59
   0  18   2    0.74    0.19
   0  18  -2    0.93    0.21
   0  18   3   -0.01    0.12
   0  18   4    0.38    0.14
   0  18   5    1.12    0.21
   0  18   6    0.25    0.13
   0  18   7    0.07    0.11
   0  18   8    0.21    0.15
   0  18   9    0.14    0.12
   0  19   7    0.18    0.15
   0  19   8    0.07    0.13
   1   0 -29    3.36    0.37
   1   0 -28   -0.05    0.11
   1   0 -27    1.40    0.23
   1   0 -26    0.04    0.10
   1   0 -25    1.86    0.26
   1   0 -24   -0.07    0.10
   1   0 -23    6.73    0.43
   1   0 -22    0.07    0.11
   1   0 -21    3.69    0.30
   1   0 -20    0.05    0.03
   1   0 -20   -0.01    0.09
   1   0 -19    1.85    0.10
   1   0 -19    1.75    0.20
   1   0 -18   -0.05    0.08
   1   0 -18    0.01    0.03
   1   0 -17   -0.13    0.10
   1   0 -17    0.01    0.03
   1   0 -16   -0.03    0.08
   1   0 -16   -0.04    0.03
   1   0 -15    2.80    0.12
   1   0 -15    2.81    0.22
  -1   0  15    2.78    0.12
   1   0 -14    0.04    0.06
  -1   0  14    0.01    0.02
   1   0 -14    0.05    0.03
  -1   0  13   15.59    0.26
   1   0 -13   15.74    0.28
   1   0 -13   15.40    0.45
  -1   0  12   -0.02    0.02
   1   0 -12   -0.08    0.06
  -1   0  12    0.13    0.07
   1   0 -12    0.10    0.04
  -1   0  11   47.35    0.66
  -1   0  11   46.74    0.72
   1   0 -11   46.69    0.46
   1   0 -11   47.02    0.72
  -1   0  11   45.50    0.43
  -1   0  10   -0.05    0.04
  -1   0  10    0.06    0.05
   1   0 -10    0.08    0.04
  -1   0  10    0.00    0.02
   1   0 -10    0.14    0.07
  -1   0   9   36.29    0.37
   1   0  -9   36.15    0.50
   1   0  -9   36.79    0.38
  -1   0   9   37.76    0.53
   1   0  -9   37.33    0.58
  -1   0   9   37.12    0.58
  -1   0   8    0.01    0.02
   1   0  -8    0.03    0.03
   1   0  -8    0.02    0.03
  -1   0   8    0.00    0.03
  -1   0   8   -0.01    0.03
   1   0  -8    0.01    0.04
  -1   0   7    0.97    0.06
  -1   0   7    1.08    0.08
   1   0  -7    0.98    0.09
  -1   0   7    1.00    0.09
   1   0  -7    1.10    0.07
   1   0  -7    1.02    0.08
  -1   0   6    0.00    0.03
  -1   0   6   -0.02    0.02
   1   0  -6    0.03    0.04
   1   0  -6    0.02    0.02
  -1   0   6    0.01    0.03
   1   0  -6   -0.01    0.03
  -1   0   5   73.79    0.60
   1   0  -5   72.86    0.56
   1   0  -5   72.89    0.60
  -1   0   5   72.97    0.47
   1   0  -5   74.10    0.48
   1   0  -4    0.04    0.03
   1   0  -4   -0.01    0.02
  -1   0   4    0.01    0.02
  -1   0   4    0.02    0.02
   1   0  -4   -0.01    0.02
  -1   0  -3  173.38    0.71
  -1   0  -3  171.55    0.61
   1   0   3  167.70    0.70
  -1   0  -4    0.02    0.02
   1   0   4    0.04    0.02
  -1   0  -4    0.02    0.02
  -1   0  -4    0.04    0.02
   1   0   5  174.85    0.87
  -1   0  -5  171.25    0.89
  -1   0  -5  171.21    0.61
  -1   0  -6    0.05    0.04
   1   0   6    0.00    0.02
  -1   0  -6    0.01    0.03
  -1   0  -7   17.52    0.34
  -1   0  -7   16.30    0.32
   1   0   7   16.62    0.32
  -1   0  -8    0.02    0.03
   1   0   8    0.08    0.04
  -1   0  -8   -0.02    0.04
   1   0   9   10.02    0.27
  -1   0  -9    9.78    0.29
  -1   0  -9    9.44    0.28
  -1   0 -10    0.05    0.02
   1   0  10    0.02    0.03
  -1   0 -11    3.99    0.21
  -1   0 -11    4.08    0.10
  -1   0 -12    0.23    0.10
  -1   0 -12    0.03    0.02
  -1   0 -13  106.01    1.17
  -1   0 -13  104.09    0.49
  -1   0 -14    0.37    0.12
  -1   0 -14    0.01    0.02
  -1   0 -15   22.80    0.59
  -1   0 -15   21.25    0.21
  -1   0 -15   21.61    0.22
  -1   0 -16    0.11    0.07
  -1   0 -16    0.02    0.02
  -1   0 -17   -0.06    0.10
  -1   0 -18   -0.26    0.14
  -1   0 -19    4.22    0.30
  -1   0 -20    0.13    0.11
  -1   0 -21    8.04    0.43
  -1   0 -22   -0.01    0.09
  -1   0 -23    2.12    0.25
  -1   0 -24    0.23    0.15
  -1   0 -25    0.16    0.14
  -1   0 -26    0.24    0.13
  -1   0 -27    5.24    0.43
  -1   0 -28   -0.06    0.12
  -1   0 -29    0.45    0.17
   1  -1 -29    0.76    0.20
   1   1 -29    0.98    0.22
   1   1 -28    0.33    0.15
   1  -1 -28    0.07    0.11
   1  -1 -27    0.11    0.12
   1   1 -27    0.25    0.13
   1   1 -26    2.24    0.27
   1  -1 -26    2.67    0.30
   1   1 -25    0.35    0.14
   1  -1 -25    0.44    0.16
   1   1 -24   17.90    0.71
   1  -1 -24   17.56    0.69
   1  -1 -23    0.76    0.18
   1   1 -23    0.90    0.19
   1  -1 -22    1.71    0.23
   1   1 -22    1.35    0.20
   1  -1 -21    0.50    0.13
   1   1 -21    0.63    0.07
   1   1 -21    0.71    0.15
   1   1 -20   -0.18    0.12
   1   1 -20    0.05    0.04
   1  -1 -20   -0.11    0.10
   1   1 -19    0.25    0.05
   1  -1 -19    0.27    0.11
   1   1 -19    0.08    0.08
   1   1 -18    0.02    0.09
   1  -1 -18    0.19    0.09
   1   1 -18    0.05    0.04
   1  -1 -18    0.10    0.03
   1  -1 -17    0.32    0.09
   1  -1 -17    0.37    0.04
   1   1 -17    0.32    0.10
   1   1 -17    0.43    0.06
   1  -1 -16    0.89    0.13
   1   1 -16    0.70    0.12
   1   1 -16    0.77    0.08
   1  -1 -16    1.00    0.07
   1   1 -15    0.38    0.10
   1  -1 -15    0.41    0.11
  -1   1  15    0.30    0.04
   1   1 -15    0.30    0.05
   1  -1 -15    0.33    0.04
   1  -1 -14   28.26    0.34
   1  -1 -14   29.55    0.65
   1   1 -14   28.93    0.65
   1   1 -14   28.00    0.42
  -1   1  14   28.56    0.32
  -1  -1  14   29.24    0.41
   1  -1 -13    6.05    0.29
  -1   1  13    5.77    0.14
   1  -1 -13    5.82    0.16
  -1  -1  13    5.82    0.18
   1   1 -13    5.88    0.19
   1   1 -13    5.77    0.29
  -1  -1  12   11.30    0.33
  -1   1  12   10.77    0.20
   1   1 -12   10.73    0.37
   1   1 -12   11.26    0.25
  -1  -1  12   11.04    0.25
   1  -1 -12   11.57    0.22
   1  -1 -12   11.18    0.37
  -1   1  11  136.49    1.15
  -1  -1  11  136.28    0.84
  -1  -1  11  139.73    1.10
  -1   1  11  140.11    1.25
   1  -1 -11  139.68    1.24
   1   1 -11  140.83    0.86
   1   1 -11  137.79    1.24
  -1   1  11  139.39    0.70
   1  -1 -11  137.81    0.73
  -1  -1  11  140.03    1.09
  -1  -1  10   23.58    0.34
  -1  -1  10   24.06    0.44
   1   1 -10   24.21    0.35
  -1   1  10   23.19    0.28
   1   1 -10   23.69    0.49
  -1   1  10   23.58    0.49
  -1   1  10   24.36    0.47
  -1  -1  10   23.45    0.43
   1  -1 -10   23.97    0.30
   1  -1 -10   23.72    0.49
  -1   1   9    7.36    0.16
  -1   1   9    8.02    0.26
   1   1  -9    7.18    0.22
  -1  -1   9    7.32    0.23
   1  -1  -9    7.86    0.17
   1   1  -9    7.87    0.19
   1  -1  -9    7.56    0.27
   1  -1  -9    7.52    0.24
   1   1  -9    7.68    0.27
  -1   1   9    7.81    0.27
  -1  -1   9    7.66    0.19
   1  -1  -8  116.41    0.97
  -1  -1   8  118.36    0.72
  -1   1   8  122.10    1.00
   1   1  -8  121.34    0.99
  -1  -1   8  120.01    0.85
  -1   1   8  117.60    0.62
   1  -1  -8  118.32    0.65
  -1   1   8  118.03    0.93
   1  -1  -8  116.63    0.89
   1   1  -8  117.13    0.82
   1   1  -7    5.20    0.17
  -1  -1   7    5.43    0.17
  -1   1   7    5.24    0.13
  -1   1   7    5.52    0.19
   1  -1  -7    5.55    0.19
   1   1  -7    6.15    0.17
   1   1  -7    5.72    0.21
   1  -1  -7    5.64    0.21
   1  -1  -7    5.67    0.14
  -1   1   7    5.72    0.21
  -1  -1   7    5.48    0.15
   1   1  -6  372.43    1.27
   1  -1  -6  364.73    1.10
  -1   1   6  373.75    1.53
   1   1  -6  367.52    1.21
  -1   1   6  366.42    1.06
  -1   1   6  369.44    1.45
  -1  -1   6  367.06    1.20
   1  -1  -6  365.57    1.42
   1   1  -6  369.29    1.49
   1  -1  -6  367.41    1.50
   1   1  -5    1.60    0.09
   1  -1  -5    1.40    0.07
  -1   1   5    1.19    0.06
  -1  -1   5    1.40    0.07
  -1   1   5    1.33    0.09
   1   1  -5    1.97    0.09
   1  -1  -5    1.47    0.09
  -1   1   5    1.38    0.09
   1   1  -5    1.30    0.07
   1  -1  -5    1.48    0.09
   1  -1  -4    1.58    0.08
  -1   1   4    1.52    0.07
  -1  -1   4    1.42    0.07
   1  -1  -4    1.55    0.07
  -1   1   4    1.54    0.08
   1  -1  -4    1.42    0.08
   1   1  -4    1.55    0.08
  -1   1   3   59.95    0.46
   1   1  -3   58.95    0.43
  -1  -1   3   59.40    0.43
  -1   1   3   57.88    0.42
  -1  -1  -3  105.03    0.56
   1   1   3  106.59    0.55
  -1   1  -3  104.27    0.58
   1   1   3  108.64    0.57
  -1  -1  -3  104.84    0.56
   1   1   3  108.60    0.46
  -1  -1  -3  106.03    0.45
   1   1   4   65.39    0.50
   1  -1   4   65.13    0.50
  -1  -1  -4   64.14    0.50
   1   1   4   64.97    0.49
   1   1   4   64.43    0.34
  -1  -1  -4   63.96    0.49
  -1   1  -4   63.71    0.50
  -1  -1  -4   64.81    0.33
   1   1   5   22.40    0.33
  -1   1  -5   21.99    0.32
  -1  -1  -5   21.30    0.32
   1  -1   5   22.02    0.31
  -1  -1  -5   21.58    0.32
   1   1   5   21.90    0.31
   1   1   6    5.82    0.18
  -1  -1  -6    6.02    0.18
  -1  -1  -6    6.28    0.19
  -1   1  -6    6.00    0.18
   1   1   6    5.99    0.19
   1  -1   6    5.89    0.18
  -1   1  -7    8.86    0.24
  -1  -1  -7    7.71    0.23
  -1   1  -7    7.88    0.24
   1   1   7    7.96    0.22
   1   1   7    7.51    0.23
   1  -1   7    7.49    0.21
   1   1   8    0.82    0.08
  -1  -1  -8    0.74    0.09
   1   1   8    0.70    0.08
   1  -1   8    0.79    0.08
  -1   1  -8    0.64    0.08
  -1  -1  -9    0.57    0.08
   1   1   9    0.58    0.08
   1   1   9    0.51    0.07
   1  -1   9    0.59    0.07
  -1   1  -9    0.52    0.08
  -1   1  -9    0.62    0.08
  -1   1 -10   20.88    0.46
  -1  -1 -10   20.40    0.45
   1   1  10   20.49    0.42
   1  -1  10   21.36    0.42
  -1   1 -10   21.27    0.44
   1   1  10   21.41    0.46
  -1   1 -11   34.72    0.62
   1   1  11   33.83    0.61
  -1   1 -11   33.95    0.37
  -1   1 -11   35.35    0.59
  -1  -1 -11   33.34    0.61
  -1   1 -12    2.44    0.18
  -1  -1 -12    2.33    0.17
  -1   1 -12    2.34    0.10
  -1  -1 -13    9.89    0.36
  -1   1 -13    9.28    0.20
  -1   1 -13    9.61    0.36
  -1   1 -14   14.44    0.45
  -1  -1 -14   14.72    0.46
  -1   1 -14   14.41    0.25
  -1   1 -15    2.89    0.22
  -1   1 -15    3.02    0.12
  -1  -1 -15    3.15    0.22
  -1  -1 -16   25.20    0.64
  -1   1 -16   23.70    0.33
  -1   1 -16   24.56    0.64
  -1   1 -17    0.34    0.05
  -1   1 -17    0.36    0.11
  -1  -1 -17    0.41    0.12
  -1   1 -18   17.45    0.59
  -1   1 -18   17.80    0.27
  -1  -1 -18   17.41    0.57
  -1   1 -19    5.90    0.15
  -1  -1 -19    5.41    0.34
  -1   1 -19    5.19    0.33
  -1  -1 -20    4.35    0.32
  -1   1 -20    4.30    0.12
  -1   1 -20    4.45    0.32
  -1   1 -21    0.17    0.12
  -1  -1 -21    0.12    0.11
  -1  -1 -22    3.43    0.30
  -1   1 -22    3.48    0.30
  -1  -1 -23    0.06    0.11
  -1   1 -23   -0.06    0.10
  -1   1 -24   11.85    0.58
  -1  -1 -24   12.60    0.59
  -1  -1 -25    0.36    0.16
  -1   1 -25    0.30    0.13
  -1   1 -26    4.69    0.38
  -1  -1 -26    4.87    0.39
  -1  -1 -27   -0.02    0.11
  -1   1 -27    0.03    0.10
  -1   1 -28   -0.06    0.13
  -1  -1 -28    0.09    0.11
  -1  -1 -29   -0.18    0.14
  -1   1 -29    0.13    0.12
   1  -2 -29    1.47    0.25
   1   2 -29    1.52    0.25
   1   2 -28    0.31    0.15
   1  -2 -28    0.41    0.16
   1   2 -27    2.75    0.31
   1  -2 -27    3.34    0.34
   1   2 -26   -0.13    0.13
   1  -2 -26    0.18    0.13
   1   2 -25    0.69    0.17
   1  -2 -25    0.48    0.16
   1  -2 -24    0.29    0.14
   1   2 -24    0.06    0.10
   1   2 -23    1.98    0.24
   1  -2 -23    1.74    0.23
   1   2 -22    0.73    0.09
   1  -2 -22    0.46    0.13
   1   2 -22    0.68    0.15
   1   2 -21    0.00    0.09
   1  -2 -21    0.09    0.09
   1   2 -21    0.23    0.06
   1   2 -20    6.39    0.38
   1   2 -20    6.41    0.24
   1  -2 -20    6.85    0.39
   1   2 -19    2.05    0.14
   1   2 -19    2.18    0.22
   1  -2 -19    2.10    0.22
   1   2 -18    0.90    0.10
   1   2 -18    0.66    0.13
   1  -2 -18    1.08    0.16
   1   2 -17    2.45    0.14
   1  -2 -17    2.78    0.23
   1   2 -17    2.70    0.24
   1  -2 -16    0.32    0.11
   1   2 -16    0.26    0.06
  -1   2  16    0.19    0.03
   1   2 -16    0.26    0.10
   1  -2 -15    5.66    0.30
  -1   2  15    5.23    0.12
   1   2 -15    5.25    0.20
   1   2 -15    5.03    0.29
  -1   2  14    7.56    0.15
   1   2 -14    7.75    0.24
   1   2 -14    7.54    0.34
   1  -2 -14    8.19    0.35
  -1  -2  13   19.53    0.44
   1   2 -13   20.19    0.53
   1  -2 -13   20.08    0.52
   1   2 -13   20.08    0.37
  -1   2  13   19.79    0.25
  -1  -2  12    1.93    0.14
  -1  -2  12    2.21    0.12
   1   2 -12    1.80    0.16
   1   2 -12    1.96    0.12
  -1  -2  12    2.08    0.14
   1  -2 -12    1.87    0.17
  -1   2  12    1.94    0.08
   1   2 -11   71.62    0.68
  -1   2  11   71.49    0.49
  -1  -2  11   70.95    0.77
  -1  -2  11   70.61    0.67
   1  -2 -11   70.83    0.90
  -1  -2  11   70.36    0.75
   1   2 -11   71.09    0.91
  -1  -2  10   34.34    0.51
  -1   2  10   34.34    0.57
   1   2 -10   34.38    0.60
  -1  -2  10   33.99    0.45
   1   2 -10   33.80    0.46
  -1  -2  10   32.62    0.48
  -1   2  10   33.17    0.34
  -1   2  10   33.80    0.60
   1  -2 -10   33.44    0.59
  -1   2   9   73.71    0.85
  -1   2   9   71.76    0.79
   1   2  -9   71.42    0.64
  -1  -2   9   72.11    0.67
   1  -2  -9   72.89    0.82
   1   2  -9   71.55    0.82
  -1   2   9   70.41    0.51
   1   2  -9   73.12    0.65
  -1  -2   9   72.49    0.64
  -1  -2   9   72.31    0.70
  -1  -2   8    1.43    0.10
   1  -2  -8    1.56    0.11
   1  -2  -8    1.38    0.12
  -1   2   8    1.64    0.13
   1   2  -8    1.56    0.10
  -1  -2   8    1.57    0.10
  -1   2   8    1.56    0.08
   1   2  -8    1.49    0.09
  -1   2   8    1.68    0.12
   1   2  -7    0.01    0.03
  -1   2   7    0.01    0.04
   1   2  -7    0.05    0.03
  -1   2   7    0.02    0.02
   1  -2  -7    0.02    0.03
  -1  -2   7    0.05    0.03
  -1   2   7    0.01    0.03
  -1  -2   7    0.04    0.03
  -1   2   6    0.20    0.03
   1   2  -6    0.26    0.04
  -1  -2   6    0.30    0.04
   1  -2  -6    0.16    0.04
  -1   2   6    0.20    0.05
  -1   2   6    0.29    0.05
  -1  -2   6    0.23    0.04
   1   2  -6    0.31    0.04
  -1  -2   5   38.01    0.42
  -1   2   5   37.81    0.38
   1  -2  -5   38.03    0.45
  -1   2   5   38.68    0.47
  -1   2   5   39.03    0.49
   1   2  -5   38.77    0.43
   1   2  -5   37.93    0.36
  -1  -2   5   37.24    0.36
   1  -2  -4   11.56    0.23
  -1   2   4   11.87    0.21
  -1   2   4   11.42    0.24
  -1  -2   4   11.60    0.23
   1   2  -4   11.95    0.23
  -1  -2   4   11.59    0.18
   1  -2  -3    6.95    0.17
  -1  -2   3    6.58    0.11
   1   2  -3    6.98    0.17
  -1  -2   3    6.87    0.17
  -1  -2   2    6.21    0.16
   1   2  -2    6.21    0.16
  -1  -2   1    7.32    0.16
   1   2  -1    7.66    0.17
   1   2   0   17.14    0.24
  -1  -2   0   17.61    0.24
  -1  -2  -1    0.11    0.04
   1   2   1    0.09    0.02
   1   2   1    0.01    0.02
   1   2   2   98.61    0.53
   1   2   2   99.53    0.47
  -1  -2  -2   99.45    0.53
   1   2   3    9.84    0.17
   1   2   3    9.75    0.16
  -1  -2  -3    9.84    0.16
   1   2   4    8.79    0.18
  -1   2  -4    8.98    0.19
   1   2   4    9.07    0.15
   1   2   4    8.55    0.20
  -1  -2  -4    9.07    0.14
   1   2   5   26.64    0.35
   1   2   5   26.56    0.24
   1   2   5   26.85    0.38
  -1   2  -5   26.43    0.36
  -1  -2  -5   26.93    0.23
   1   2   6    2.67    0.13
  -1  -2  -6    2.70    0.07
   1   2   6    2.66    0.12
  -1   2  -6    2.72    0.12
   1   2   6    2.70    0.07
   1  -2   6    2.66    0.12
   1   2   7    0.14    0.04
   1   2   7    0.22    0.05
   1  -2   7    0.14    0.04
  -1   2  -7    0.16    0.04
  -1  -2  -7    0.29    0.05
  -1  -2  -8    5.43    0.21
   1  -2   8    5.41    0.19
   1   2   8    5.39    0.20
   1   2   8    5.56    0.22
  -1   2  -8    5.35    0.20
   1   2   9    0.38    0.07
   1  -2   9    0.36    0.05
  -1  -2  -9    0.35    0.07
  -1   2  -9    0.35    0.06
   1   2   9    0.42    0.06
   1   2  10    1.85    0.14
  -1  -2 -10    2.08    0.15
  -1   2 -10    2.00    0.15
   1  -2  10    1.91    0.13
  -1   2 -10    1.98    0.14
   1   2  10    1.97    0.14
  -1  -2 -11    9.88    0.33
  -1   2 -11   10.56    0.35
  -1   2 -11    9.94    0.32
  -1   2 -11    9.72    0.23
   1   2  11    9.80    0.34
  -1   2 -12    5.37    0.26
  -1   2 -12    5.21    0.18
  -1   2 -12    5.54    0.25
  -1  -2 -12    5.27    0.26
  -1   2 -13    5.55    0.28
  -1   2 -13    6.12    0.27
  -1   2 -13    5.44    0.18
  -1  -2 -13    5.40    0.27
  -1  -2 -14    4.90    0.27
  -1   2 -14    4.81    0.27
  -1   2 -14    5.10    0.18
  -1  -2 -15    4.12    0.26
  -1   2 -15    4.66    0.28
  -1   2 -15    4.82    0.17
  -1   2 -16    1.01    0.15
  -1  -2 -16    0.70    0.12
  -1   2 -16    0.98    0.08
  -1   2 -17    0.05    0.04
  -1   2 -17   -0.01    0.08
  -1  -2 -17    0.03    0.09
  -1   2 -18   15.78    0.32
  -1  -2 -18   15.39    0.54
  -1   2 -18   16.22    0.58
  -1   2 -19    9.13    0.24
  -1  -2 -19    8.98    0.43
  -1   2 -19    9.12    0.44
  -1   2 -20    0.15    0.04
  -1  -2 -20    0.18    0.10
  -1   2 -20    0.18    0.09
  -1  -2 -21    0.90    0.16
  -1   2 -21    0.63    0.13
  -1   2 -22    0.36    0.12
  -1  -2 -22    0.23    0.10
  -1  -2 -23    0.01    0.09
  -1   2 -23    0.00    0.09
  -1  -2 -24    0.05    0.12
  -1   2 -24    0.00    0.10
  -1   2 -25   -0.23    0.13
  -1  -2 -25    0.07    0.10
  -1  -2 -26    0.03    0.11
  -1   2 -26   -0.16    0.14
  -1  -2 -27    0.85    0.20
  -1   2 -27    0.84    0.18
  -1   2 -28    0.10    0.13
  -1  -2 -28    0.00    0.11
  -1  -2 -29    1.25    0.23
   1   3 -28    0.35    0.13
   1   3 -27    0.34    0.15
   1   3 -26    1.11    0.21
   1   3 -25    1.72    0.25
   1   3 -24    0.85    0.18
   1   3 -23    1.01    0.18
   1  -3 -22    0.22    0.11
   1   3 -22    0.16    0.10
   1   3 -22    0.09    0.05
   1  -3 -21   11.21    0.51
   1   3 -21   11.03    0.34
   1   3 -21   10.78    0.51
   1  -3 -20    0.30    0.14
   1   3 -20    0.20    0.12
   1   3 -20    0.13    0.08
   1   3 -19    6.09    0.36
   1  -3 -19    5.95    0.36
   1   3 -19    5.95    0.25
   1   3 -18   10.92    0.47
   1  -3 -18   10.57    0.46
   1   3 -18   10.05    0.32
   1   3 -17    1.71    0.20
   1  -3 -17    1.67    0.23
   1   3 -17    1.41    0.13
   1  -3 -16  106.41    1.33
   1   3 -16  107.13    1.36
   1   3 -16  107.09    0.99
   1   3 -15    1.55    0.19
   1  -3 -15    1.75    0.22
   1   3 -15    1.12    0.12
   1   3 -14   29.79    0.51
  -1   3  14   29.48    0.30
  -1  -3  14   29.50    0.54
   1   3 -14   30.24    0.68
   1   3 -13    0.10    0.04
  -1  -3  13    0.07    0.05
   1   3 -13    0.01    0.07
  -1   3  13    0.00    0.02
  -1  -3  12    2.93    0.16
  -1  -3  12    3.02    0.16
  -1   3  12    2.67    0.10
   1   3 -12    2.73    0.19
   1   3 -12    2.86    0.15
  -1   3  11   41.86    0.41
  -1  -3  11   43.15    0.59
   1   3 -11   42.79    0.58
  -1  -3  11   42.27    0.56
   1   3 -10    0.68    0.08
  -1  -3  10    0.69    0.08
  -1  -3  10    0.65    0.08
  -1   3  10    0.63    0.06
  -1   3  10    0.44    0.07
  -1   3   9   20.59    0.47
  -1  -3   9   21.29    0.37
   1   3  -9   21.55    0.39
  -1   3   9   20.69    0.30
  -1   3   9   20.70    0.44
  -1  -3   9   21.25    0.38
   1   3  -8   30.46    0.46
  -1   3   8   30.82    0.54
  -1   3   8   30.97    0.51
  -1  -3   8   30.26    0.41
  -1  -3   8   29.47    0.45
   1   3  -8   29.31    0.37
  -1   3   8   29.82    0.36
  -1   3   7   25.06    0.34
   1   3  -7   25.15    0.32
   1  -3  -7   25.15    0.43
  -1   3   7   27.02    0.48
  -1   3   7   26.14    0.45
   1   3  -7   26.14    0.41
  -1  -3   7   25.62    0.41
  -1  -3   7   25.50    0.34
  -1  -3   6   28.14    0.41
   1  -3  -6   28.67    0.44
   1   3  -6   27.45    0.30
   1   3  -6   28.47    0.42
  -1   3   6   28.74    0.45
  -1  -3   6   27.71    0.33
   1  -3  -5   12.96    0.28
  -1   3   5   13.43    0.29
  -1  -3   5   13.12    0.20
   1   3  -5   13.23    0.28
  -1  -3   5   13.56    0.28
  -1  -3   4   28.73    0.26
   1  -3  -4   28.67    0.39
   1   3  -4   29.43    0.41
  -1   3   4   28.83    0.40
  -1  -3   4   29.63    0.41
  -1  -3   3  319.01    0.69
   1   3  -3  315.98    0.73
   1   3  -3  317.99    1.30
   1  -3  -3  319.60    1.21
  -1  -3   3  314.37    1.29
  -1  -3   2   17.92    0.30
   1  -3  -2   17.85    0.27
   1   3  -2   18.67    0.31
   1   3  -1    3.96    0.14
  -1  -3   1    4.41    0.15
  -1  -3   0    2.10    0.10
   1   3   0    2.00    0.10
   1   3   1    0.41    0.05
  -1  -3  -1    0.47    0.05
  -1  -3  -2    9.37    0.19
   1   3   2    9.06    0.19
  -1  -3  -3    3.43    0.11
   1   3   3    3.41    0.11
   1   3   4   11.68    0.20
  -1  -3  -4   12.12    0.20
  -1   3  -5    0.24    0.04
   1   3   5    0.19    0.03
  -1  -3  -5    0.17    0.03
   1   3   6    0.79    0.09
   1   3   6    0.80    0.05
  -1   3  -6    0.78    0.07
   1   3   7   37.55    0.31
  -1   3  -7   37.34    0.49
   1   3   7   38.20    0.50
   1   3   7   38.06    0.56
   1   3   8   13.12    0.35
   1   3   8   13.23    0.17
   1   3   8   13.61    0.32
  -1   3  -8   13.37    0.31
   1  -3   8   13.25    0.30
   1  -3   9   11.97    0.30
   1   3   9   11.19    0.34
  -1   3  -9   12.41    0.32
   1   3   9   12.00    0.32
   1   3   9   12.29    0.14
   1   3  10    8.50    0.31
   1   3  10    8.31    0.28
  -1   3 -10    9.04    0.29
   1  -3  10    8.36    0.27
  -1   3 -11    9.18    0.31
  -1   3 -12    9.18    0.32
  -1   3 -12    8.62    0.25
  -1   3 -13    7.51    0.24
  -1   3 -13    7.59    0.33
  -1  -3 -13    7.75    0.32
  -1   3 -13    7.64    0.30
  -1   3 -14    7.78    0.25
  -1   3 -14    8.05    0.32
  -1  -3 -14    7.26    0.33
  -1   3 -14    7.48    0.34
  -1   3 -15    0.17    0.08
  -1   3 -15    0.06    0.04
  -1   3 -15    0.08    0.08
  -1  -3 -15    0.18    0.10
  -1   3 -16   24.19    0.65
  -1  -3 -16   24.29    0.63
  -1   3 -16   23.66    0.44
  -1   3 -17    0.72    0.15
  -1   3 -17    0.64    0.09
  -1  -3 -18   29.97    0.75
  -1   3 -18   30.41    0.78
  -1   3 -18   28.59    0.49
  -1   3 -19    6.83    0.24
  -1  -3 -19    7.42    0.39
  -1   3 -19    6.32    0.37
  -1  -3 -20    2.34    0.23
  -1   3 -20    2.48    0.25
  -1   3 -20    2.36    0.15
  -1   3 -21    1.17    0.11
  -1  -3 -21    0.99    0.17
  -1   3 -21    0.83    0.16
  -1   3 -22    2.74    0.28
  -1  -3 -22    2.78    0.27
  -1   3 -23    1.53    0.22
  -1   3 -24    1.11    0.20
  -1   3 -25    0.34    0.15
  -1   3 -26    6.43    0.45
  -1   3 -27   -0.07    0.11
  -1   3 -28    0.13    0.13
   1   4 -28   -0.08    0.12
   1   4 -27    0.77    0.19
   1   4 -26    0.45    0.15
   1   4 -25    0.09    0.10
   1   4 -24   -0.07    0.11
   1   4 -23    0.28    0.14
   1   4 -22    0.92    0.18
   1   4 -22    0.52    0.09
   1   4 -21   10.77    0.36
   1   4 -21   10.69    0.52
   1   4 -20    0.23    0.07
   1   4 -20    0.43    0.16
   1   4 -19   22.81    0.71
   1   4 -19   21.19    0.50
   1   4 -18    1.85    0.21
   1   4 -18    1.56    0.14
   1   4 -17   20.29    0.47
   1   4 -17   20.08    0.63
   1   4 -16    0.02    0.08
   1   4 -16    0.02    0.05
  -1   4  16    0.02    0.02
  -1   4  15    4.09    0.12
   1   4 -15    3.89    0.26
   1   4 -15    3.91    0.21
   1   4 -14    0.04    0.07
   1   4 -14    0.01    0.04
  -1   4  14    0.06    0.03
   1   4 -13    9.41    0.30
  -1   4  13    8.95    0.20
  -1   4  12    0.08    0.03
   1   4 -12    0.13    0.05
  -1  -4  12    0.11    0.04
   1   4 -11   11.58    0.33
  -1   4  11   11.19    0.24
  -1  -4  11   11.26    0.30
   1   4 -10   25.31    0.47
  -1   4  10   26.04    0.38
  -1  -4  10   26.52    0.43
  -1   4   9   15.98    0.43
  -1  -4   9   16.25    0.32
   1   4  -9   15.94    0.37
  -1   4   9   16.50    0.30
  -1   4   9   16.09    0.40
  -1   4   8   18.76    0.42
  -1   4   8   18.11    0.44
   1   4  -8   18.74    0.39
  -1  -4   8   18.23    0.39
  -1  -4   8   18.39    0.32
   1   4  -7    6.88    0.15
  -1  -4   7    6.61    0.23
  -1  -4   7    7.04    0.18
   1   4  -7    6.80    0.23
  -1   4   7    7.09    0.25
  -1  -4   6    8.92    0.26
  -1  -4   6    8.85    0.18
   1   4  -6    8.68    0.19
   1   4  -6    8.73    0.26
   1   4  -6    8.53    0.15
  -1   4   6    9.05    0.26
   1  -4  -6    8.81    0.25
  -1   4   5   18.30    0.36
   1   4  -5   17.34    0.36
   1  -4  -5   17.42    0.33
  -1  -4   5   17.51    0.35
  -1  -4   5   16.99    0.23
   1   4  -5   16.81    0.24
   1   4  -4   17.55    0.21
  -1   4   4   17.76    0.33
   1   4  -4   18.41    0.36
   1  -4  -4   17.41    0.32
  -1  -4   4   18.04    0.35
  -1  -4   3   12.63    0.29
   1  -4  -3   12.72    0.26
   1   4  -3   12.91    0.30
   1   4  -3   12.85    0.15
   1   4  -2   11.62    0.12
   1  -4  -2   11.35    0.22
   1   4  -2   12.14    0.28
  -1  -4   2   11.60    0.27
   1   4  -1  248.75    1.22
  -1  -4   1  250.97    1.22
  -1  -4   0   10.13    0.24
   1   4   0   10.02    0.24
   1   4   1   55.66    0.55
  -1  -4  -1   56.91    0.56
  -1  -4  -2   47.24    0.50
   1   4   2   47.24    0.50
   1   4   3   10.07    0.22
   1   4   4    0.47    0.05
  -1   4  -5   30.80    0.41
   1   4   5   30.94    0.37
   1   4   6    4.91    0.14
  -1   4  -6    4.59    0.17
   1   4   7    0.56    0.08
  -1   4  -7    0.56    0.06
   1   4   7    0.55    0.05
   1   4   8    3.41    0.19
   1   4   8    3.54    0.11
  -1   4  -8    3.46    0.16
   1   4   9    6.34    0.27
  -1   4  -9    6.27    0.23
   1   4   9    6.35    0.14
   1   4  10   11.76    0.18
  -1   4 -10   11.52    0.32
  -1   4 -11    6.88    0.26
   1   4  11    6.86    0.12
  -1   4 -12    0.10    0.05
  -1   4 -12    0.03    0.05
  -1   4 -13    0.03    0.04
  -1   4 -13    0.01    0.05
  -1   4 -14    7.89    0.33
  -1   4 -14    7.40    0.26
  -1   4 -15    0.46    0.10
  -1   4 -15    0.74    0.13
  -1   4 -15    0.82    0.09
  -1   4 -16    3.90    0.28
  -1   4 -16    4.78    0.28
  -1   4 -16    4.04    0.20
  -1   4 -17    5.54    0.33
  -1   4 -17    6.08    0.25
  -1   4 -18    0.30    0.13
  -1   4 -18    0.20    0.08
  -1   4 -19   27.22    0.78
  -1   4 -19   26.67    0.53
  -1   4 -20    4.51    0.22
  -1   4 -20    5.10    0.37
  -1   4 -21   14.65    0.60
  -1   4 -21   13.83    0.38
  -1   4 -22    0.18    0.13
  -1   4 -23    7.72    0.48
  -1   4 -24    3.40    0.33
  -1   4 -25    0.32    0.13
  -1   4 -26    0.62    0.17
  -1   4 -27    0.87    0.20
  -1   4 -28    0.39    0.17
   1   5 -28    0.28    0.15
   1   5 -27    1.62    0.27
   1   5 -26   -0.01    0.10
   1   5 -25    0.22    0.15
   1   5 -24    0.73    0.17
   1   5 -23    4.49    0.26
   1   5 -23    5.42    0.41
   1   5 -22   10.98    0.40
   1   5 -22   10.35    0.54
   1   5 -21    2.73    0.29
   1   5 -21    2.82    0.21
   1   5 -20    0.28    0.13
   1   5 -20    0.28    0.08
   1   5 -19    0.17    0.08
   1   5 -19   -0.03    0.09
   1   5 -18    5.51    0.27
   1   5 -18    5.15    0.34
   1   5 -17    0.28    0.10
   1   5 -17    0.17    0.07
  -1   5  17    0.11    0.02
  -1   5  16   43.79    0.41
   1   5 -16   42.68    0.72
   1   5 -16   44.65    0.91
  -1   5  15    0.19    0.04
   1   5 -15    0.27    0.09
  -1   5  14   21.43    0.34
   1   5 -14   20.96    0.50
  -1   5  13    6.60    0.20
   1   5 -13    6.90    0.28
  -1  -5  12    1.29    0.11
  -1   5  12    1.35    0.09
   1   5 -12    1.29    0.13
  -1   5  11    4.38    0.17
   1   5 -11    4.05    0.21
  -1  -5  11    4.50    0.19
   1   5 -10    0.03    0.05
  -1  -5  10    0.15    0.04
   1   5  -9    2.26    0.16
  -1  -5   9    2.39    0.12
   1   5  -8  132.56    1.13
  -1  -5   8  137.43    0.84
  -1   5   8  134.90    1.16
   1   5  -8  135.17    0.90
  -1  -5   7   32.79    0.39
   1   5  -7   33.00    0.55
   1   5  -7   32.74    0.41
  -1   5   7   33.75    0.56
   1   5  -6   86.18    0.61
  -1   5   6   88.22    0.86
   1   5  -6   86.16    0.41
   1   5  -6   86.49    0.88
  -1   5   5    1.54    0.11
   1  -5  -5    1.37    0.10
   1   5  -5    1.46    0.12
   1   5  -5    1.40    0.07
   1   5  -4    0.70    0.05
   1   5  -4    0.77    0.09
  -1   5   4    0.76    0.08
   1  -5  -4    0.85    0.08
   1   5  -3   36.12    0.28
   1  -5  -3   36.30    0.45
   1   5  -3   35.81    0.54
   1   5  -2    0.80    0.09
   1  -5  -2    0.53    0.06
   1  -5  -1    2.18    0.10
   1   5  -1    2.14    0.13
   1   5   0    5.23    0.20
   1  -5   0    5.27    0.14
   1   5   1    9.78    0.26
   1  -5   1   10.07    0.18
   1   5   2   25.24    0.41
   1   5   3   12.02    0.28
   1   5   4   15.13    0.31
   1   5   5    0.92    0.08
  -1   5  -6   12.72    0.28
   1   5   6   12.43    0.26
   1   5   7    0.12    0.04
  -1   5  -7    0.09    0.03
   1   5   8   69.11    0.58
  -1   5  -8   69.52    0.74
   1   5   9    1.92    0.10
  -1   5  -9    1.92    0.13
   1   5  10   18.51    0.28
  -1   5 -10   19.12    0.42
   1   5  11    6.49    0.16
  -1   5 -11    6.57    0.26
   1   5  12    6.92    0.15
  -1   5 -12    7.21    0.29
  -1   5 -12    7.03    0.28
   1   5  13   -0.01    0.01
  -1   5 -13    0.01    0.06
  -1   5 -13    0.02    0.04
  -1   5 -14   16.39    0.47
   1  -5  14   16.30    0.37
  -1   5 -14   15.84    0.42
  -1   5 -15    0.11    0.09
   1  -5  15    0.13    0.06
  -1   5 -15    0.06    0.06
  -1   5 -16   22.93    0.60
  -1   5 -16   20.73    0.49
  -1   5 -17    7.33    0.35
  -1   5 -17    7.09    0.29
  -1   5 -17    6.65    0.37
  -1   5 -18    6.33    0.37
  -1   5 -18    6.08    0.27
  -1   5 -19    2.61    0.25
  -1   5 -19    2.67    0.19
  -1   5 -20    2.36    0.18
  -1   5 -20    2.47    0.26
  -1   5 -21    0.15    0.07
  -1   5 -21    0.06    0.12
  -1   5 -22    6.96    0.30
  -1   5 -22    6.99    0.45
  -1   5 -23    4.49    0.36
  -1   5 -24    4.29    0.37
  -1   5 -25    1.19    0.23
  -1   5 -26    1.77    0.27
  -1   5 -27    0.08    0.13
   1   6 -27    2.04    0.29
   1   6 -26    0.60    0.18
   1   6 -25   -0.03    0.11
   1   6 -24    0.33    0.14
   1   6 -23    0.81    0.18
   1   6 -23    0.56    0.11
   1   6 -22    0.92    0.18
   1   6 -22    0.87    0.13
   1   6 -21    2.04    0.19
   1   6 -21    1.63    0.22
   1   6 -20    0.60    0.11
   1   6 -20    0.82    0.17
   1   6 -19   17.66    0.52
   1   6 -19   17.66    0.64
   1   6 -18    0.72    0.11
   1   6 -18    0.82    0.15
   1   6 -17    0.18    0.07
  -1   6  16    4.23    0.16
   1   6 -16    4.45    0.26
  -1   6  15    5.23    0.18
   1   6 -15    5.47    0.28
  -1   6  14    1.46    0.11
   1   6 -14    1.45    0.15
  -1   6  13   44.07    0.57
   1   6 -13   43.78    0.75
  -1  -6  12    1.06    0.10
   1   6 -12    1.02    0.13
  -1   6  12    1.12    0.10
  -1  -6  11   21.00    0.40
   1   6 -11   20.66    0.50
  -1  -6  10    9.23    0.25
   1   6 -10    9.10    0.33
   1   6  -9    4.19    0.17
   1   6  -9    4.18    0.22
   1   6  -8    0.00    0.05
   1   6  -8    0.01    0.03
  -1   6   7    4.68    0.22
   1   6  -7    4.63    0.16
   1   6  -7    4.55    0.22
  -1   6   6    4.09    0.20
   1   6  -6    4.14    0.14
   1   6  -6    3.94    0.21
   1   6  -5   21.19    0.28
   1   6  -5   20.86    0.46
  -1   6   5   20.85    0.42
   1   6  -4   22.82    0.26
  -1   6   4   22.81    0.41
   1   6  -4   22.95    0.47
   1  -6  -3   40.95    0.50
   1   6  -3   41.60    0.63
   1   6  -3   41.90    0.33
   1  -6  -2    0.30    0.05
   1   6  -2    0.46    0.09
   1   6  -1   87.20    0.88
   1  -6  -1   86.89    0.64
   1   6   0   21.25    0.43
   1  -6   0   20.75    0.29
   1  -6   1    0.59    0.05
   1   6   1    0.81    0.09
   1  -6   2    5.22    0.12
   1   6   2    5.49    0.21
   1   6   3    2.80    0.15
   1  -6   3    2.42    0.08
   1   6   4    2.89    0.15
   1   6   5    2.89    0.15
   1   6   6    5.22    0.19
  -1   6  -6    5.28    0.19
   1   6   7    6.64    0.21
  -1   6  -7    6.41    0.22
  -1   6  -8   12.13    0.32
   1   6   8   11.62    0.28
   1   6   9   19.18    0.34
  -1   6  -9   19.56    0.42
   1   6  10    0.27    0.06
  -1   6 -10    0.17    0.07
   1   6  11   52.92    0.53
  -1   6 -11   54.16    0.75
  -1   6 -12    7.73    0.30
   1   6  12    8.02    0.20
  -1   6 -12    7.37    0.30
   1  -6  12    7.74    0.21
  -1   6 -13    8.28    0.33
   1  -6  13    8.31    0.24
  -1   6 -13    8.65    0.33
   1   6  13    8.37    0.19
   1  -6  14    3.73    0.17
   1   6  14    4.05    0.12
  -1   6 -14    3.96    0.24
  -1   6 -14    3.57    0.22
  -1   6 -15    3.99    0.23
  -1   6 -15    4.60    0.26
   1  -6  15    4.20    0.19
   1  -6  16   -0.03    0.05
  -1   6 -16    0.07    0.07
  -1   6 -16    0.06    0.06
  -1   6 -17    1.72    0.18
  -1   6 -17    1.67    0.16
  -1   6 -18    1.58    0.16
  -1   6 -19    3.06    0.28
  -1   6 -19    3.06    0.22
  -1   6 -20    0.48    0.09
  -1   6 -20    0.69    0.14
  -1   6 -21    1.23    0.14
  -1   6 -21    1.38    0.20
  -1   6 -22    0.23    0.13
  -1   6 -22    0.21    0.08
  -1   6 -23    3.51    0.33
  -1   6 -24    1.48    0.23
  -1   6 -25    1.27    0.23
  -1   6 -26    2.83    0.34
  -1   6 -27    1.77    0.28
   1   7 -26    0.09    0.11
   1   7 -25    0.77    0.20
   1   7 -24    9.42    0.55
   1   7 -23    0.91    0.15
   1   7 -23    0.68    0.20
   1   7 -22    3.82    0.35
   1   7 -22    3.97    0.28
   1   7 -21    8.42    0.48
   1   7 -21    8.48    0.39
   1   7 -20   -0.06    0.08
   1   7 -20    0.26    0.15
   1   7 -19    0.56    0.15
   1   7 -19    0.60    0.12
   1   7 -18    3.76    0.25
  -1   7  17    0.93    0.08
   1   7 -17    0.69    0.11
   1   7 -16    1.94    0.18
  -1   7  15    1.04    0.10
   1   7 -15    1.38    0.15
   1   7 -14    3.47    0.23
  -1   7  14    3.70    0.18
   1   7 -13    3.86    0.24
  -1   7  13    4.12    0.19
   1   7 -12    4.09    0.24
   1   7 -11    2.16    0.14
   1   7 -11    2.13    0.18
   1   7 -10   12.47    0.41
   1   7 -10   12.52    0.32
   1   7  -9    0.25    0.05
   1   7  -9    0.24    0.08
   1   7  -8    5.43    0.18
   1   7  -8    5.33    0.26
   1   7  -7    6.77    0.19
   1   7  -7    6.34    0.28
  -1   7   6    2.29    0.15
   1   7  -6    2.37    0.11
   1   7  -6    2.29    0.17
  -1   7   5    0.05    0.04
   1   7  -5    0.02    0.02
   1   7  -5    0.06    0.06
   1   7  -4    3.95    0.21
   1   7  -4    4.10    0.12
   1   7  -3   24.71    0.53
   1   7  -2   17.61    0.44
   1   7  -1   30.91    0.57
   1   7   0   15.44    0.40
   1   7   1    1.14    0.11
   1  -7   1    1.17    0.07
   1   7   2   19.36    0.43
   1  -7   2   18.74    0.24
   1   7   3   50.46    0.69
   1  -7   3   49.08    0.34
   1   7   4    2.32    0.15
   1  -7   4    2.28    0.06
   1   7   5    3.74    0.19
   1   7   6   27.87    0.49
   1   7   7   32.46    0.52
  -1   7  -7   32.05    0.50
  -1   7  -8   26.54    0.47
   1   7   8   26.33    0.46
   1   7   9    0.78    0.08
   1  -7   9    0.80    0.05
  -1   7  -9    0.74    0.09
   1   7  10    8.39    0.25
   1  -7  10    8.31    0.17
  -1   7 -10    8.52    0.29
  -1   7 -11   11.98    0.36
   1  -7  11   11.45    0.22
  -1   7 -11   12.21    0.41
   1   7  11   12.08    0.29
   1  -7  12    0.27    0.05
  -1   7 -12    0.22    0.07
   1   7  12    0.22    0.05
  -1   7 -12    0.18    0.08
  -1   7 -13    0.44    0.10
   1  -7  13    0.36    0.05
  -1   7 -13    0.40    0.09
   1   7  13    0.39    0.06
  -1   7 -14   11.25    0.41
   1  -7  14   11.26    0.27
  -1   7 -14   11.85    0.40
   1   7  14   11.78    0.25
  -1   7 -15    1.98    0.18
   1   7  15    1.97    0.09
   1  -7  15    1.88    0.12
  -1   7 -15    1.67    0.17
   1  -7  16    0.07    0.04
  -1   7 -16    0.08    0.07
  -1   7 -16    0.12    0.06
  -1   7 -17    0.08    0.07
  -1   7 -17    0.01    0.06
  -1   7 -18    1.64    0.18
  -1   7 -18    1.51    0.17
  -1   7 -19    0.00    0.06
  -1   7 -20    2.91    0.22
  -1   7 -20    2.65    0.28
  -1   7 -21    3.21    0.23
  -1   7 -21    3.16    0.30
  -1   7 -22    0.53    0.14
  -1   7 -22    0.77    0.12
  -1   7 -23    0.93    0.20
  -1   7 -24    2.53    0.30
  -1   7 -25    0.13    0.13
  -1   7 -26    1.64    0.25
   1   8 -26    0.37    0.16
   1   8 -25    0.77    0.19
   1   8 -24    1.15    0.22
   1   8 -24    1.69    0.20
   1   8 -23    0.16    0.09
   1   8 -23    0.11    0.13
   1   8 -22    0.27    0.15
   1   8 -22    0.06    0.09
   1   8 -21    3.60    0.27
   1   8 -21    3.54    0.33
   1   8 -20    9.39    0.43
   1   8 -19   25.43    0.69
   1   8 -18    0.13    0.09
   1   8 -17    0.58    0.12
   1   8 -16    0.71    0.13
   1   8 -15    1.46    0.17
   1   8 -14    2.24    0.20
  -1   8  14    2.77    0.17
   1   8 -13    0.01    0.07
   1   8 -12    3.52    0.24
   1   8 -11   12.73    0.45
   1   8 -11   13.65    0.35
   1   8 -10    0.92    0.13
   1   8 -10    0.84    0.09
   1   8  -9    1.34    0.10
   1   8  -9    1.04    0.13
   1   8  -8    0.05    0.03
   1   8  -8   -0.02    0.06
   1   8  -7   -0.03    0.06
   1   8  -7    0.07    0.03
   1   8  -6    9.73    0.37
   1   8  -6    9.67    0.22
   1   8  -5    1.24    0.08
  -1   8   5    1.16    0.11
   1   8  -5    0.89    0.12
   1   8  -4    0.30    0.09
   1   8  -4    0.29    0.04
   1   8  -3   26.05    0.26
   1   8  -3   27.18    0.59
   1   8  -2    3.05    0.20
   1   8  -2    2.69    0.10
   1   8  -1    2.62    0.18
   1   8   0    1.10    0.13
   1   8   1   22.92    0.52
   1   8   2    1.95    0.16
   1   8   3   47.61    0.72
   1   8   4   20.90    0.47
   1   8   5   31.54    0.58
   1   8   6   11.28    0.34
  -1   8  -7   18.11    0.39
   1   8   7   18.02    0.42
  -1   8  -8   14.34    0.36
   1   8   8   14.07    0.37
   1   8   9   10.18    0.31
  -1   8  -9   10.41    0.32
  -1   8 -10    2.08    0.19
   1   8  10    1.69    0.13
  -1   8 -10    2.13    0.15
   1   8  11   24.65    0.46
  -1   8 -11   24.47    0.52
  -1   8 -11   24.36    0.61
   1   8  12    0.63    0.08
  -1   8 -12    0.65    0.12
   1  -8  12    0.55    0.05
  -1   8 -12    0.50    0.10
   1   8  13    0.73    0.08
  -1   8 -13    0.67    0.10
   1  -8  13    0.65    0.06
  -1   8 -13    0.68    0.13
  -1   8 -14    0.50    0.10
   1   8  14    0.58    0.07
  -1   8 -14    0.73    0.11
   1  -8  14    0.52    0.06
  -1   8 -15    0.83    0.14
  -1   8 -15    0.72    0.12
   1   8  15    0.93    0.08
  -1   8 -16    0.58    0.12
  -1   8 -16    0.39    0.10
  -1   8 -17    1.16    0.15
  -1   8 -17    1.24    0.15
  -1   8 -18    0.02    0.07
  -1   8 -18   -0.06    0.08
  -1   8 -19    2.42    0.22
  -1   8 -19    2.71    0.24
  -1   8 -20    0.20    0.08
  -1   8 -21    0.65    0.15
  -1   8 -21    0.88    0.14
  -1   8 -22    0.83    0.16
  -1   8 -22    0.48    0.11
  -1   8 -23    1.11    0.21
  -1   8 -23    1.03    0.15
  -1   8 -24    0.31    0.15
  -1   8 -25    0.03    0.11
   1   9 -25    1.17    0.23
   1   9 -24    2.14    0.29
   1   9 -24    1.85    0.22
   1   9 -23    1.29    0.18
   1   9 -23    0.96    0.21
   1   9 -22    0.23    0.12
   1   9 -22    0.33    0.10
   1   9 -21    2.18    0.23
   1   9 -20    1.65    0.20
   1   9 -19    2.83    0.25
   1   9 -18    8.01    0.41
   1   9 -17    5.23    0.33
  -1   9  16    0.64    0.08
   1   9 -16    0.59    0.13
   1   9 -15    9.59    0.43
   1   9 -14    0.21    0.08
   1   9 -13   -0.04    0.07
   1   9 -12    0.65    0.13
   1   9 -12    0.66    0.09
   1   9 -11    2.64    0.16
   1   9 -11    2.64    0.22
   1   9 -10    9.79    0.29
   1   9 -10    9.92    0.41
   1   9  -9    2.37    0.20
   1   9  -9    2.57    0.14
   1   9  -8    5.41    0.30
   1   9  -8    5.27    0.19
   1   9  -7    3.03    0.14
   1   9  -7    3.04    0.22
   1   9  -6   12.54    0.26
   1   9  -6   12.48    0.44
   1   9  -5    0.79    0.07
   1   9  -5    0.83    0.13
   1   9  -4   12.59    0.24
   1   9  -4   12.83    0.44
   1   9  -3    4.56    0.26
   1   9  -3    4.43    0.11
   1   9  -2   10.18    0.38
   1   9  -2    9.74    0.20
   1   9  -1    7.40    0.32
   1   9  -1    6.91    0.19
   1   9   0    3.24    0.14
   1   9   0    3.10    0.21
   1   9   1    2.13    0.17
   1   9   1    2.39    0.13
   1   9   2   12.08    0.30
   1   9   2   12.65    0.40
   1   9   3   10.14    0.36
   1   9   3   10.24    0.29
   1   9   4    7.86    0.32
   1   9   4    7.88    0.27
   1   9   5    2.72    0.19
   1   9   6    9.18    0.33
   1   9   7   30.48    0.59
  -1   9  -7   31.89    0.53
  -1   9  -8    6.46    0.25
   1   9   8    6.44    0.27
   1   9   9   13.50    0.38
  -1   9  -9   13.70    0.37
  -1   9  -9   13.21    0.47
   1   9  10    2.48    0.17
  -1   9 -10    2.90    0.18
  -1   9 -10    2.76    0.23
  -1   9 -11    2.84    0.19
   1   9  11    2.58    0.17
  -1   9 -11    2.76    0.22
  -1   9 -12    2.31    0.17
   1   9  12    2.10    0.15
  -1   9 -12    2.45    0.22
   1   9  13    0.51    0.08
  -1   9 -13    0.48    0.11
  -1   9 -13    0.70    0.11
  -1   9 -14    4.36    0.25
   1   9  14    4.33    0.20
  -1   9 -14    3.98    0.28
   1   9  15   10.84    0.30
  -1   9 -15   10.78    0.45
  -1   9 -15   10.93    0.41
  -1   9 -16    3.63    0.25
  -1   9 -16    3.32    0.26
  -1   9 -17    0.51    0.12
  -1   9 -17    0.70    0.13
  -1   9 -18    1.63    0.19
  -1   9 -18    1.72    0.19
  -1   9 -19   -0.08    0.09
  -1   9 -19   -0.19    0.11
  -1   9 -20    0.78    0.14
  -1   9 -21    0.49    0.11
  -1   9 -22   -0.10    0.10
  -1   9 -22    0.26    0.13
  -1   9 -23    0.03    0.09
  -1   9 -23    0.06    0.11
  -1   9 -24    0.70    0.19
   1  10 -24   -0.05    0.09
   1  10 -24    0.21    0.14
   1  10 -23    0.48    0.13
   1  10 -23    0.54    0.18
   1  10 -22    1.07    0.17
   1  10 -21    2.66    0.26
   1  10 -20    5.91    0.38
   1  10 -19    5.10    0.34
   1  10 -18    2.13    0.24
   1  10 -17    1.54    0.20
   1  10 -16    5.30    0.34
  -1  10  16    6.21    0.26
   1  10 -15    4.75    0.32
  -1  10  15    4.99    0.24
  -1  10  14    1.13    0.12
   1  10 -14    0.97    0.16
   1  10 -13    3.45    0.27
   1  10 -12    1.82    0.14
   1  10 -12    1.64    0.19
   1  10 -11   11.83    0.33
   1  10 -11   11.51    0.47
   1  10 -10    0.49    0.12
   1  10 -10    0.44    0.07
   1  10  -9    2.26    0.13
   1  10  -9    1.97    0.20
   1  10  -8    5.72    0.20
   1  10  -8    5.51    0.32
   1  10  -7    4.33    0.17
   1  10  -7    4.23    0.28
   1  10  -6    5.55    0.32
   1  10  -6    5.52    0.18
   1  10  -5   32.12    0.41
   1  10  -5   32.75    0.74
   1  10  -4    0.17    0.09
   1  10  -4    0.23    0.04
   1  10  -3   12.57    0.45
   1  10  -2   14.27    0.25
   1  10  -2   14.73    0.48
   1  10  -1    0.91    0.08
   1  10  -1    0.80    0.14
   1  10   0    7.69    0.35
   1  10   0    7.69    0.22
   1  10   1    0.03    0.04
   1  10   1   -0.06    0.07
   1  10   2    0.89    0.13
   1  10   2    0.98    0.10
   1  10   3    4.75    0.27
   1  10   3    4.59    0.21
   1  10   4   46.40    0.81
   1  10   4   47.15    0.69
   1  10   5   24.30    0.58
   1  10   6   23.68    0.57
   1  10   7   12.65    0.41
  -1  10  -7   12.70    0.35
  -1  10  -8    1.44    0.18
  -1  10  -8    1.25    0.12
   1  10   8    1.31    0.14
   1  10   9    3.41    0.21
  -1  10  -9    3.43    0.20
  -1  10  -9    3.28    0.26
  -1  10 -10    0.84    0.10
  -1  10 -10    0.96    0.15
   1  10  10    0.70    0.11
  -1  10 -11    7.96    0.31
  -1  10 -11    7.49    0.38
   1  10  11    8.24    0.32
  -1  10 -12    0.79    0.12
   1  10  12    0.45    0.08
  -1  10 -12    0.78    0.14
   1  10  13    6.68    0.27
  -1  10 -13    7.00    0.32
  -1  10 -13    6.30    0.36
  -1  10 -14    0.32    0.08
   1  10  14    0.25    0.07
  -1  10 -14    0.08    0.08
  -1  10 -15    3.50    0.28
  -1  10 -15    4.26    0.27
  -1  10 -16   12.72    0.47
  -1  10 -16   12.16    0.51
  -1  10 -17    0.77    0.15
  -1  10 -17    0.58    0.13
  -1  10 -18    4.64    0.32
  -1  10 -18    5.32    0.32
  -1  10 -19    2.15    0.22
  -1  10 -19    2.07    0.23
  -1  10 -20    0.06    0.08
  -1  10 -21    5.14    0.35
  -1  10 -22    0.82    0.15
  -1  10 -23    0.36    0.14
  -1  10 -23   -0.02    0.07
   1  11 -24    0.16    0.10
   1  11 -23    2.74    0.28
   1  11 -22    0.90    0.18
   1  11 -21    1.45    0.22
   1  11 -20    0.08    0.09
   1  11 -19    0.41    0.14
   1  11 -18    0.44    0.12
   1  11 -17    3.78    0.31
   1  11 -16    9.55    0.48
  -1  11  15    9.44    0.36
   1  11 -15   10.21    0.49
   1  11 -14    4.40    0.33
  -1  11  14    4.69    0.26
   1  11 -13    6.13    0.37
  -1  11  13    5.98    0.30
  -1  11  12    0.48    0.10
   1  11 -12    0.56    0.09
   1  11 -12    0.52    0.13
   1  11 -11    0.01    0.05
   1  11 -11   -0.01    0.09
   1  11 -10    0.37    0.07
   1  11 -10    0.35    0.12
   1  11  -9    5.53    0.22
   1  11  -9    6.14    0.36
   1  11  -8    0.27    0.05
   1  11  -8    0.29    0.09
   1  11  -7    1.26    0.17
   1  11  -7    1.33    0.10
   1  11  -6    7.21    0.22
   1  11  -6    8.03    0.40
   1  11  -5   13.58    0.51
   1  11  -5   13.79    0.28
   1  11  -4    2.12    0.11
   1  11  -4    1.94    0.20
   1  11  -3    8.47    0.39
   1  11  -2    3.92    0.27
   1  11  -1    0.57    0.07
   1  11  -1    0.61    0.12
   1  11   0    4.76    0.29
   1  11   0    5.14    0.19
   1  11   1    3.57    0.17
   1  11   1    3.34    0.24
   1  11   2    1.21    0.16
   1  11   2    1.33    0.12
   1  11   3    2.61    0.22
   1  11   3    2.64    0.17
   1  11   4   -0.15    0.09
   1  11   5    0.60    0.12
  -1  11  -6    3.03    0.26
   1  11   6    2.73    0.21
  -1  11  -7   35.17    0.60
   1  11   7   34.80    0.72
  -1  11  -7   33.99    0.82
   1  11   8   16.13    0.49
  -1  11  -8   17.38    0.43
  -1  11  -8   17.27    0.59
  -1  11  -9   21.36    0.50
   1  11   9   20.42    0.55
  -1  11  -9   21.10    0.65
  -1  11 -10    0.15    0.07
  -1  11 -10    0.12    0.08
   1  11  10    0.22    0.08
  -1  11 -11   -0.03    0.08
  -1  11 -11   -0.08    0.07
   1  11  11   -0.06    0.07
  -1  11 -12    0.88    0.16
  -1  11 -12    0.71    0.10
   1  11  12    0.88    0.11
   1  11  13    1.47    0.15
  -1  11 -13    1.57    0.16
  -1  11 -13    1.53    0.19
   1  11  14    1.27    0.13
  -1  11 -14    1.23    0.15
  -1  11 -14    0.97    0.16
  -1  11 -15    5.92    0.31
  -1  11 -15    5.08    0.35
  -1  11 -16    1.40    0.16
  -1  11 -16    1.09    0.17
  -1  11 -17    0.40    0.11
  -1  11 -17    0.41    0.11
  -1  11 -18    2.93    0.25
  -1  11 -18    2.67    0.26
  -1  11 -19   -0.02    0.09
  -1  11 -19    0.08    0.09
  -1  11 -20    0.34    0.13
  -1  11 -21    0.57    0.15
  -1  11 -22    0.98    0.18
  -1  11 -23    1.45    0.21
   1  12 -24    0.52    0.16
   1  12 -23    0.06    0.10
   1  12 -22    0.31    0.14
   1  12 -21    2.13    0.25
   1  12 -20    0.99    0.18
   1  12 -19    0.10    0.11
   1  12 -18    4.92    0.37
   1  12 -17    0.67    0.16
   1  12 -16    0.06    0.08
   1  12 -15    0.03    0.09
   1  12 -14    5.65    0.37
  -1  12  14    4.88    0.28
   1  12 -13    0.37    0.12
  -1  12  13    0.45    0.11
   1  12 -12    9.66    0.33
  -1  12  12    9.61    0.40
   1  12 -12    9.66    0.48
   1  12 -11    9.64    0.31
   1  12 -11    9.01    0.47
  -1  12  11    9.27    0.39
   1  12 -10    0.55    0.08
   1  12 -10    0.49    0.15
  -1  12  10    0.69    0.13
   1  12  -9    9.68    0.29
   1  12  -9    9.82    0.47
  -1  12   9    9.90    0.41
   1  12  -8    0.27    0.05
   1  12  -8    0.08    0.08
   1  12  -7    2.24    0.13
   1  12  -7    2.19    0.23
   1  12  -6    7.31    0.39
   1  12  -6    7.21    0.22
   1  12  -5   17.29    0.33
   1  12  -5   16.87    0.59
   1  12  -4    0.02    0.04
   1  12  -4   -0.08    0.08
   1  12  -3    0.37    0.11
   1  12  -2    1.80    0.19
   1  12  -1    0.18    0.08
   1  12   0    0.22    0.10
   1  12   1    6.13    0.34
   1  12   2    0.01    0.05
   1  12   2   -0.02    0.08
  -1  12  -3    1.64    0.19
   1  12   3    1.43    0.17
  -1  12  -4    0.49    0.12
   1  12   4    0.94    0.14
  -1  12  -5    0.51    0.12
   1  12   5    0.51    0.11
  -1  12  -6    0.90    0.16
   1  12   6    0.63    0.12
  -1  12  -7    4.62    0.23
   1  12   7    4.27    0.27
  -1  12  -7    4.03    0.31
   1  12   8    0.04    0.07
  -1  12  -8    0.06    0.06
  -1  12  -8   -0.02    0.08
  -1  12  -9    0.08    0.06
   1  12   9    0.12    0.08
  -1  12  -9    0.09    0.08
  -1  12 -10    0.49    0.09
   1  12  10    0.53    0.11
  -1  12 -10    0.40    0.10
  -1  12 -11    0.36    0.12
   1  12  11    0.43    0.09
  -1  12 -11    0.48    0.09
   1  12  12    4.18    0.26
  -1  12 -12    4.42    0.26
  -1  12 -12    4.70    0.34
  -1  12 -13    6.06    0.30
   1  12  13    5.94    0.30
  -1  12 -13    5.48    0.37
  -1  12 -14    1.51    0.16
  -1  12 -14    1.09    0.18
  -1  12 -15    1.42    0.17
  -1  12 -15    1.50    0.21
  -1  12 -16    0.02    0.07
  -1  12 -16    0.09    0.09
  -1  12 -17    0.00    0.09
  -1  12 -17    0.00    0.09
  -1  12 -18    0.22    0.11
  -1  12 -18    0.34    0.10
  -1  12 -19    0.46    0.13
  -1  12 -19    0.28    0.09
  -1  12 -20    0.25    0.14
  -1  12 -21    1.77    0.23
  -1  12 -22    1.07    0.18
  -1  12 -23    0.03    0.10
   1  13 -23    3.28    0.33
   1  13 -22    0.62    0.19
   1  13 -21    0.89    0.18
   1  13 -20    0.51    0.16
   1  13 -19   -0.02    0.10
   1  13 -18    1.00    0.19
   1  13 -17    2.35    0.27
   1  13 -16    0.85    0.17
   1  13 -15    0.62    0.14
  -1  13  14    2.75    0.22
   1  13 -14    2.45    0.26
  -1  13  13    1.89    0.20
   1  13 -13    2.41    0.27
  -1  13  12    1.65    0.19
   1  13 -12    1.15    0.19
  -1  13  11    0.15    0.10
   1  13 -11    0.14    0.12
  -1  13  10    0.22    0.11
   1  13 -10    0.28    0.14
   1  13  -9   10.70    0.52
  -1  13   9    9.75    0.43
   1  13  -8    1.86    0.23
  -1  13   8    2.34    0.23
  -1  13   7    1.07    0.16
   1  13  -7    0.92    0.16
  -1  13   6    0.42    0.10
   1  13  -6    0.42    0.06
  -1  13   5    4.67    0.31
   1  13  -5    4.63    0.17
   1  13  -5    4.55    0.33
   1  13  -4    0.21    0.05
  -1  13   4    0.08    0.09
   1  13  -4    0.29    0.12
   1  13  -3    5.45    0.36
  -1  13   3    5.63    0.34
  -1  13   2    0.20    0.11
   1  13  -2    0.06    0.09
   1  13  -1   11.99    0.51
  -1  13   1   12.89    0.52
  -1  13   0    8.16    0.42
   1  13   0    7.78    0.41
   1  13   1    6.30    0.37
  -1  13  -1    6.46    0.38
  -1  13  -2    0.81    0.16
   1  13   2    0.80    0.14
   1  13   3    8.42    0.42
  -1  13  -3    8.38    0.44
  -1  13  -4    2.98    0.27
   1  13   4    2.63    0.23
  -1  13  -5    0.33    0.12
   1  13   5    0.14    0.08
   1  13   6    0.70    0.13
  -1  13  -6    0.92    0.16
  -1  13  -7    0.26    0.11
  -1  13  -7    0.34    0.08
   1  13   7    0.29    0.09
   1  13   8    3.65    0.27
  -1  13  -8    3.55    0.31
  -1  13  -8    4.04    0.22
  -1  13  -9   -0.01    0.09
   1  13   9    0.09    0.09
  -1  13  -9    0.00    0.06
   1  13  10    1.37    0.16
  -1  13 -10    1.35    0.20
  -1  13 -10    1.45    0.15
  -1  13 -11    1.59    0.22
  -1  13 -11    1.69    0.16
   1  13  11    1.42    0.17
   1  13  12    5.56    0.31
  -1  13 -12    5.43    0.39
  -1  13 -12    5.87    0.30
  -1  13 -13    0.40    0.10
   1  13  13    0.40    0.10
  -1  13 -13    0.56    0.15
  -1  13 -14    0.56    0.12
  -1  13 -14    0.54    0.16
  -1  13 -15    3.99    0.27
  -1  13 -15    3.19    0.31
  -1  13 -16    2.99    0.31
  -1  13 -16    3.05    0.24
  -1  13 -17    1.21    0.17
  -1  13 -17    1.45    0.21
  -1  13 -18    0.92    0.18
  -1  13 -19    0.68    0.15
  -1  13 -20    0.18    0.10
  -1  13 -21    0.71    0.18
  -1  13 -22    0.14    0.12
  -1  13 -23    3.74    0.36
   1  14 -20    1.80    0.26
   1  14 -19    1.02    0.21
   1  14 -18    2.90    0.33
   1  14 -17    0.12    0.11
   1  14 -16    0.19    0.13
   1  14 -15   -0.29    0.16
   1  14 -14   -0.10    0.12
  -1  14  13    0.46    0.12
   1  14 -13    0.54    0.16
   1  14 -12    6.90    0.45
  -1  14  12    6.81    0.37
  -1  14  11    1.74    0.20
   1  14 -11    1.25    0.20
  -1  14  10    6.78    0.39
   1  14 -10    6.72    0.43
  -1  14   9    8.31    0.42
   1  14  -9    8.45    0.49
  -1  14   8    1.07    0.17
   1  14  -8    0.96    0.18
  -1  14   7    0.32    0.11
   1  14  -7    0.19    0.12
  -1  14   6    1.64    0.19
   1  14  -6    2.03    0.24
  -1  14   5    0.20    0.10
   1  14  -5    0.08    0.09
  -1  14   4   11.76    0.52
   1  14  -4   12.17    0.55
   1  14  -3    6.08    0.39
  -1  14   3    7.17    0.41
   1  14  -2    3.16    0.29
  -1  14   2    3.18    0.28
  -1  14   1    1.86    0.22
   1  14  -1    2.09    0.24
  -1  14   0   -0.05    0.10
   1  14   0   -0.17    0.12
  -1  14  -1    3.68    0.30
   1  14   1    3.39    0.29
   1  14   2    2.68    0.26
  -1  14  -2    2.80    0.28
  -1  14  -3    6.17    0.40
   1  14   3    6.57    0.39
   1  14   4    2.39    0.24
  -1  14  -4    2.81    0.28
  -1  14  -5    1.86    0.24
   1  14   5    1.37    0.19
  -1  14  -6    2.68    0.18
   1  14   6    2.23    0.23
  -1  14  -6    2.25    0.26
  -1  14  -7    0.23    0.11
   1  14   7    0.12    0.10
  -1  14  -7    0.20    0.07
  -1  14  -8    0.41    0.08
   1  14   8    0.40    0.10
  -1  14  -8    0.30    0.12
   1  14   9    0.23    0.09
  -1  14  -9    0.18    0.07
  -1  14  -9    0.09    0.09
  -1  14 -10    0.09    0.06
   1  14  10    0.03    0.08
  -1  14 -10   -0.03    0.10
  -1  14 -11    1.85    0.17
  -1  14 -11    2.01    0.25
   1  14  11    1.69    0.19
   1  14  12    1.06    0.16
  -1  14 -12    1.21    0.20
  -1  14 -13    1.71    0.24
  -1  14 -14    3.97    0.35
  -1  14 -15    2.52    0.29
  -1  14 -16    0.05    0.10
  -1  14 -17    1.57    0.24
  -1  14 -18    3.48    0.34
  -1  14 -19    2.48    0.30
  -1  14 -20    2.31    0.29
   1  15 -17    0.59    0.18
   1  15 -16    0.66    0.17
   1  15 -15    5.52    0.43
   1  15 -14    3.30    0.34
   1  15 -13    1.82    0.26
  -1  15  12    2.35    0.23
   1  15 -12    2.31    0.28
   1  15 -11    0.83    0.17
  -1  15  11    0.90    0.16
   1  15 -10    0.40    0.13
  -1  15  10    0.34    0.11
  -1  15   9    1.11    0.18
   1  15  -9    1.00    0.19
  -1  15   8    1.20    0.18
   1  15  -8    0.86    0.19
  -1  15   7    6.49    0.40
   1  15  -7    5.72    0.42
  -1  15   6    0.10    0.11
   1  15  -6   -0.04    0.09
  -1  15   5    3.08    0.28
   1  15  -5    2.80    0.29
  -1  15   4   -0.09    0.11
   1  15  -4    0.04    0.10
  -1  15   3    2.01    0.24
   1  15  -3    1.73    0.23
   1  15  -2    5.76    0.39
  -1  15   2    5.80    0.39
   1  15  -1    3.80    0.33
  -1  15   1    3.97    0.33
  -1  15   0    1.83    0.23
   1  15   0    1.38    0.19
   1  15   1    5.51    0.38
  -1  15  -1    5.15    0.37
   1  15   2    4.22    0.34
  -1  15  -2    3.39    0.34
  -1  15  -3    2.53    0.28
   1  15   3    2.41    0.25
  -1  15  -4    0.20    0.13
   1  15   4    0.10    0.09
  -1  15  -5    0.21    0.12
   1  15   5    0.24    0.09
   1  15   6    1.21    0.19
  -1  15  -6    1.21    0.20
  -1  15  -7    1.35    0.22
   1  15   7    2.01    0.22
  -1  15  -8    0.24    0.12
   1  15   8    0.14    0.08
  -1  15  -9    0.92    0.20
   1  15   9    0.70    0.14
  -1  15 -10    2.14    0.27
   1  15  10    2.43    0.24
  -1  15 -11    2.50    0.29
   1  15  11    2.54    0.24
  -1  15 -12    0.06    0.10
  -1  15 -13   -0.22    0.15
  -1  15 -14    0.36    0.13
  -1  15 -15    5.74    0.45
  -1  15 -16    2.14    0.28
   1  16 -13    1.62    0.27
   1  16 -12    3.41    0.36
  -1  16  11    0.34    0.13
   1  16 -11   -0.02    0.10
   1  16 -10    5.21    0.42
  -1  16  10    5.06    0.36
  -1  16   9    0.14    0.09
   1  16  -9    0.17    0.14
   1  16  -8    0.77    0.18
  -1  16   8    0.81    0.17
  -1  16   7    0.94    0.18
   1  16  -7    1.10    0.21
   1  16  -6    0.81    0.18
  -1  16   6    1.24    0.20
   1  16  -5    0.30    0.15
  -1  16   5   -0.10    0.09
   1  16  -4    4.46    0.38
  -1  16   4    4.78    0.37
  -1  16   3    0.61    0.16
   1  16  -3    0.50    0.14
  -1  16   2    4.31    0.35
   1  16  -2    4.31    0.36
  -1  16   1    0.18    0.12
   1  16  -1    0.17    0.12
  -1  16   0    0.06    0.11
   1  16   0    0.08    0.10
  -1  16  -1    0.57    0.14
   1  16   1    0.17    0.11
   1  16   2    2.16    0.26
  -1  16  -2    2.13    0.26
   1  16   3    1.72    0.23
  -1  16  -3    1.48    0.24
  -1  16  -4    0.37    0.15
   1  16   4    0.49    0.15
   1  16   5    0.33    0.13
  -1  16  -5    0.23    0.13
   1  16   6    1.06    0.18
  -1  16  -6    1.19    0.20
   1  16   7   -0.04    0.10
  -1  16  -7    0.07    0.11
  -1  16  -8   -0.04    0.10
   1  16   8    0.09    0.12
   1  16   9    0.39    0.13
  -1  16  -9    0.42    0.13
   1  16  10    0.56    0.16
  -1  16 -10    0.29    0.14
  -1  16 -11    0.55    0.18
  -1  16 -12    0.51    0.17
  -1  17  11   -0.11    0.11
  -1  17  10    0.03    0.10
  -1  17   9    0.85    0.19
  -1  17   8    0.21    0.13
   1  17  -8    0.22    0.17
   1  17  -7    6.49    0.47
  -1  17   7    6.11    0.43
  -1  17   6    0.67    0.17
   1  17  -6    0.48    0.16
  -1  17   5    1.40    0.23
   1  17  -5    1.08    0.21
   1  17  -4    0.23    0.13
  -1  17   4    0.26    0.12
   1  17  -3    0.14    0.11
  -1  17   3    0.15    0.10
  -1  17   2    0.54    0.16
   1  17  -2    0.39    0.14
   1  17  -1    1.67    0.25
  -1  17   1    1.64    0.24
   1  17   0    0.08    0.12
  -1  17   0    0.09    0.12
   1  17   1    2.92    0.32
  -1  17  -1    3.22    0.33
  -1  17  -2    3.64    0.36
   1  17   2    3.06    0.31
   1  17   3    0.04    0.11
  -1  17  -3    0.00    0.11
   1  17   4    0.73    0.17
  -1  17  -4    0.53    0.14
  -1  17  -5    0.14    0.11
   1  17   5   -0.03    0.11
   1  17   6    0.38    0.13
  -1  17  -6    0.34    0.12
   1  17   7    0.71    0.18
  -1  17  -7    0.47    0.15
   1  17   8    0.28    0.13
  -1  17  -8    0.24    0.13
   1  17   9    0.01    0.11
  -1  18  10    0.78    0.18
  -1  18   9    0.18    0.12
  -1  18   8    0.32    0.13
  -1  18   7    0.03    0.13
  -1  18   6    1.03    0.20
  -1  18   5    0.17    0.13
  -1  18   4    3.61    0.36
  -1  18   3    0.30    0.16
  -1  18   2    8.24    0.53
   1  18  -2    7.64    0.52
  -1  18   1    0.38    0.14
   1  18  -1    0.23    0.15
   1  18   0    0.64    0.18
  -1  18   0    0.35    0.14
  -1  18  -1    0.07    0.11
   1  18   1    0.07    0.13
   1  18   2    3.71    0.37
   1  18   3    0.24    0.14
   1  18   4    5.43    0.42
   1  18   5    1.70    0.25
   1  18   6    0.66    0.16
   1  18   7    0.73    0.18
   1  18   8    0.44    0.14
   1  19   7    0.10    0.13
   2   0 -29    0.09    0.11
   2   0 -28    0.17    0.13
   2   0 -27    0.14    0.13
   2   0 -26    0.28    0.14
   2   0 -25   -0.13    0.14
   2   0 -24    1.69    0.23
   2   0 -23   -0.02    0.09
   2   0 -22   19.20    0.70
   2   0 -21    0.15    0.06
   2   0 -21    0.18    0.11
   2   0 -20    2.06    0.13
   2   0 -20    1.96    0.22
   2   0 -19    0.01    0.08
   2   0 -19   -0.01    0.04
  -2   0  19    0.00    0.04
  -2   0  18    5.09    0.20
   2   0 -18    5.73    0.33
   2   0 -18    4.98    0.20
   2   0 -17    0.00    0.08
   2   0 -17    0.09    0.05
  -2   0  17    0.03    0.04
   2   0 -16   13.39    0.33
  -2   0  16   13.86    0.31
   2   0 -16   13.86    0.48
   2   0 -15    0.01    0.04
   2   0 -15    0.01    0.07
  -2   0  15    0.02    0.03
   2   0 -14   38.38    0.66
   2   0 -14   37.70    0.75
  -2   0  14   37.87    0.51
   2   0 -14   36.61    0.52
   2   0 -13    0.13    0.09
   2   0 -13    0.10    0.08
   2   0 -13    0.19    0.06
  -2   0  13    0.01    0.03
   2   0 -12   34.38    0.59
   2   0 -12   35.18    0.67
  -2   0  12   34.03    0.47
   2   0 -12   34.48    0.49
   2   0 -11    0.01    0.05
   2   0 -11    0.01    0.05
   2   0 -11    0.09    0.04
  -2   0  11    0.03    0.03
  -2   0  11    0.04    0.05
   2   0 -10   29.23    0.55
  -2   0  10   30.09    0.43
   2   0 -10   29.71    0.44
  -2   0  10   30.17    0.55
   2   0 -10   29.63    0.51
  -2   0   9    0.00    0.03
   2   0  -9    0.02    0.03
  -2   0   9   -0.03    0.04
   2   0  -9    0.05    0.04
   2   0  -9   -0.01    0.04
  -2   0   8    5.20    0.21
  -2   0   8    4.85    0.17
   2   0  -8    5.02    0.20
   2   0  -8    5.04    0.18
   2   0  -8    5.29    0.21
   2   0  -7    0.01    0.03
   2   0  -7   -0.01    0.04
   2   0  -7   -0.02    0.04
  -2   0   7   -0.01    0.03
  -2   0   7   -0.01    0.03
   2   0  -6    2.02    0.11
   2   0  -6    1.95    0.11
  -2   0   6    1.94    0.10
  -2   0   6    1.95    0.11
   2   0  -5   -0.01    0.04
  -2   0   5   -0.01    0.03
  -2   0   5   -0.03    0.03
   2   0  -5    0.04    0.03
  -2   0   4   21.56    0.30
   2   0  -4   21.09    0.29
   2   0  -4   21.97    0.34
  -2   0   4   21.83    0.34
   2   0  -3   -0.01    0.02
   2   0  -3   -0.02    0.03
  -2   0   3   -0.01    0.02
  -2   0   3    0.00    0.03
   2   0  -2    1.18    0.08
   2   0  -2    1.20    0.05
  -2   0   2    1.12    0.08
  -2   0   2    1.21    0.05
   2   0  -1    0.01    0.03
  -2   0   1    0.02    0.03
   2   0   0  746.93    1.89
  -2   0   0  747.05    1.88
  -2   0  -1    0.06    0.04
   2   0   1    0.04    0.04
  -2   0  -2 1000.00    1.31
  -2   0  -2  999.07    2.15
  -2   0  -3    0.02    0.03
  -2   0  -3    0.07    0.03
   2   0   3    0.05    0.04
  -2   0  -4   65.43    0.54
  -2   0  -4   66.16    0.49
   2   0   4   65.95    0.54
  -2   0  -4   65.22    0.55
   2   0   5    0.05    0.04
  -2   0  -5   -0.07    0.04
  -2   0  -5   -0.03    0.03
  -2   0  -5    0.02    0.02
  -2   0  -6   38.46    0.41
   2   0   6   37.39    0.47
  -2   0  -6   37.57    0.46
  -2   0  -6   37.02    0.48
  -2   0  -7    0.04    0.04
  -2   0  -7    0.06    0.04
   2   0   7    0.01    0.03
  -2   0  -7    0.06    0.04
  -2   0  -8    6.28    0.17
  -2   0  -8    6.06    0.22
   2   0   8    5.92    0.21
  -2   0  -8    6.01    0.22
  -2   0  -9    0.09    0.05
  -2   0  -9    0.08    0.03
  -2   0  -9    0.05    0.05
   2   0   9   -0.04    0.04
  -2   0 -10   47.14    0.67
  -2   0 -10   47.87    0.67
  -2   0 -10   47.54    0.45
  -2   0 -11   -0.08    0.06
  -2   0 -11    0.06    0.03
  -2   0 -11   -0.02    0.05
  -2   0 -12   21.35    0.50
  -2   0 -12   21.50    0.30
  -2   0 -12   21.88    0.50
  -2   0 -13    0.09    0.07
  -2   0 -13   -0.01    0.03
  -2   0 -14    1.58    0.08
  -2   0 -14    2.07    0.18
  -2   0 -15    0.04    0.03
  -2   0 -15    0.10    0.04
  -2   0 -16   61.98    0.43
  -2   0 -16   61.78    1.01
  -2   0 -16   61.28    0.40
  -2   0 -17    0.06    0.02
  -2   0 -17    0.02    0.02
  -2   0 -18    5.29    0.32
  -2   0 -19   -0.16    0.10
  -2   0 -20    6.38    0.37
  -2   0 -21    0.01    0.10
  -2   0 -22    6.27    0.39
  -2   0 -23    0.27    0.12
  -2   0 -24    1.65    0.23
  -2   0 -25    0.20    0.13
  -2   0 -26    5.86    0.43
  -2   0 -27   -0.10    0.13
  -2   0 -28    2.66    0.31
   2  -1 -29    3.55    0.37
   2   1 -29    3.95    0.38
   2   1 -28    0.35    0.16
   2  -1 -28    0.09    0.12
   2   1 -27    1.18    0.22
   2  -1 -27    0.91    0.19
   2   1 -26    0.19    0.12
   2  -1 -26    0.30    0.14
   2  -1 -25    3.91    0.35
   2   1 -25    4.07    0.36
   2  -1 -24    0.21    0.14
   2   1 -24    0.14    0.12
   2   1 -23    0.18    0.11
   2  -1 -23    0.08    0.10
   2   1 -22    6.38    0.40
   2  -1 -22    6.61    0.41
   2   1 -22    7.16    0.26
   2   1 -21    7.77    0.43
   2  -1 -21    8.42    0.45
   2   1 -21    7.42    0.27
   2  -1 -21    8.14    0.23
   2   1 -20    0.08    0.08
   2  -1 -20    0.21    0.06
   2   1 -20    0.03    0.04
   2  -1 -20    0.31    0.10
   2  -1 -19    3.07    0.15
  -2  -1  19    3.40    0.17
   2   1 -19    2.82    0.25
   2   1 -19    2.88    0.17
   2  -1 -19    2.99    0.26
  -2   1  19    3.16    0.14
   2  -1 -18    0.17    0.05
   2   1 -18   -0.07    0.09
   2   1 -18    0.14    0.06
   2  -1 -18    0.07    0.09
  -2   1  18    0.06    0.03
  -2  -1  18    0.14    0.06
   2   1 -17   20.45    0.61
   2  -1 -17   19.81    0.37
   2   1 -17   19.89    0.42
   2  -1 -17   20.83    0.61
  -2   1  17   20.51    0.36
  -2  -1  17   20.36    0.41
  -2  -1  16    1.13    0.10
   2   1 -16    1.03    0.10
   2   1 -16    0.89    0.13
   2  -1 -16    1.05    0.15
  -2   1  16    0.99    0.08
   2  -1 -16    1.07    0.09
  -2   1  15    0.03    0.03
   2   1 -15    0.09    0.07
   2  -1 -15    0.06    0.08
   2   1 -15    0.07    0.04
   2  -1 -15    0.10    0.04
  -2  -1  15    0.11    0.05
  -2   1  14    0.36    0.05
   2   1 -14    0.29    0.08
   2   1 -14    0.42    0.07
   2  -1 -14    0.15    0.07
   2   1 -14    0.30    0.07
   2  -1 -14    0.34    0.08
  -2  -1  14    0.25    0.05
   2  -1 -14    0.39    0.06
   2   1 -13   24.54    0.50
   2  -1 -13   25.01    0.53
   2  -1 -13   23.95    0.41
   2   1 -13   23.95    0.44
   2   1 -13   24.72    0.58
  -2  -1  13   24.90    0.43
  -2   1  13   24.42    0.39
   2  -1 -13   25.45    0.58
   2  -1 -12    0.12    0.07
   2  -1 -12    0.05    0.04
   2   1 -12    0.04    0.04
   2   1 -12    0.01    0.04
   2  -1 -12    0.13    0.06
  -2   1  12   -0.04    0.04
   2   1 -12   -0.01    0.06
  -2  -1  12    0.02    0.03
   2   1 -11    4.69    0.23
   2  -1 -11    4.75    0.18
   2   1 -11    4.61    0.18
   2  -1 -11    4.64    0.23
  -2   1  11    4.92    0.17
   2  -1 -11    4.65    0.22
  -2  -1  11    4.79    0.19
   2   1 -11    5.14    0.22
  -2   1  10   16.18    0.31
   2  -1 -10   15.61    0.40
   2  -1 -10   15.87    0.32
  -2  -1  10   16.06    0.33
  -2   1  10   15.94    0.41
   2   1 -10   16.59    0.34
   2   1 -10   15.89    0.40
   2   1 -10   16.39    0.37
   2  -1 -10   15.89    0.39
  -2   1   9   49.97    0.68
  -2  -1   9   49.94    0.57
  -2   1   9   49.34    0.53
   2   1  -9   49.33    0.58
   2  -1  -9   48.06    0.55
   2   1  -9   48.46    0.67
   2  -1  -9   48.16    0.67
   2  -1  -9   48.59    0.64
   2   1  -9   48.68    0.61
  -2   1   8    0.47    0.06
   2  -1  -8    0.45    0.06
   2  -1  -8    0.41    0.07
  -2   1   8    0.51    0.07
   2   1  -8    0.48    0.07
   2   1  -8    0.33    0.05
   2   1  -8    0.40    0.07
  -2  -1   8    0.46    0.06
   2  -1  -8    0.44    0.06
  -2   1   7    1.44    0.11
   2  -1  -7    1.32    0.10
   2  -1  -7    1.36    0.09
   2   1  -7    1.39    0.11
  -2   1   7    1.40    0.09
   2   1  -7    1.50    0.10
  -2  -1   7    1.42    0.09
   2  -1  -7    1.40    0.11
  -2   1   6   58.29    0.62
   2  -1  -6   57.67    0.60
   2   1  -6   58.87    0.59
   2   1  -6   58.38    0.60
  -2  -1   6   57.77    0.58
   2  -1  -6   59.20    0.58
  -2   1   6   57.56    0.58
   2  -1  -5  131.21    0.84
   2   1  -5  131.71    0.83
   2   1  -5  133.46    0.87
  -2   1   5  132.42    0.86
  -2   1   5  129.09    0.85
  -2  -1   5  131.72    0.85
   2  -1  -5  133.56    0.87
  -2   1   4    2.72    0.11
   2  -1  -4    2.61    0.13
  -2  -1   4    2.74    0.12
   2   1  -4    3.02    0.13
  -2   1   4    2.40    0.12
   2   1  -4    2.63    0.11
  -2  -1   3   30.60    0.39
  -2   1   3   29.88    0.40
   2   1  -3   30.75    0.31
   2  -1  -3   29.72    0.40
   2   1  -3   29.92    0.40
  -2   1   3   29.92    0.34
   2   1  -2   13.82    0.27
  -2  -1   2   14.71    0.27
  -2   1   2   14.10    0.28
   2  -1  -2   13.96    0.28
   2  -1  -1   59.87    0.56
  -2   1   1   58.84    0.56
   2   1  -1   59.75    0.54
  -2  -1   1   60.95    0.54
  -2  -1   0  115.34    0.73
   2  -1   0  112.53    0.76
  -2   1   0  114.90    0.77
   2   1   0  114.12    0.74
  -2   1  -1   32.02    0.41
   2   1   1   32.58    0.39
  -2  -1  -1   32.20    0.38
   2  -1   1   31.39    0.40
  -2  -1  -2  429.85    1.16
   2   1   2  433.24    1.39
  -2  -1  -3   52.11    0.37
  -2   1  -3   51.40    0.52
   2   1   3   51.34    0.48
  -2  -1  -3   51.33    0.44
   2   1   3   52.28    0.38
  -2  -1  -3   52.38    0.47
   2   1   4   20.29    0.30
  -2   1  -4   20.60    0.33
  -2  -1  -4   20.91    0.29
   2   1   4   21.33    0.30
   2   1   4   20.75    0.28
  -2  -1  -4   20.49    0.28
  -2   1  -4   20.76    0.32
  -2  -1  -4   20.58    0.30
   2   1   5    1.45    0.08
   2   1   5    1.59    0.08
  -2  -1  -5    1.56    0.08
  -2   1  -5    1.51    0.09
   2   1   5    1.61    0.09
  -2  -1  -5    1.49    0.09
  -2   1  -5    1.55    0.10
  -2  -1  -5    1.54    0.09
   2   1   6   14.37    0.29
  -2  -1  -6   14.03    0.23
   2   1   6   14.16    0.28
  -2  -1  -6   14.27    0.28
  -2   1  -6   14.30    0.30
  -2  -1  -6   14.36    0.29
  -2   1  -6   14.48    0.28
   2   1   6   14.23    0.24
  -2  -1  -7   26.72    0.42
  -2   1  -7   27.17    0.38
  -2  -1  -7   27.05    0.43
   2   1   7   26.44    0.42
  -2   1  -7   26.24    0.43
   2   1   7   26.34    0.31
  -2  -1  -7   26.84    0.31
   2  -1   7   26.51    0.43
  -2   1  -7   26.49    0.43
   2   1   7   26.81    0.42
  -2  -1  -8    4.94    0.13
   2   1   8    4.85    0.19
   2  -1   8    5.12    0.20
  -2   1  -8    4.55    0.19
  -2  -1  -8    4.82    0.19
  -2  -1  -8    5.07    0.20
   2   1   8    4.68    0.19
  -2   1  -8    4.95    0.20
  -2  -1  -9   30.85    0.51
  -2   1  -9   31.11    0.52
   2  -1   9   32.47    0.52
   2   1   9   30.78    0.52
  -2   1  -9   31.71    0.53
  -2  -1  -9   31.05    0.32
   2   1   9   31.03    0.50
  -2  -1  -9   30.63    0.52
  -2   1 -10    0.19    0.06
  -2  -1 -10    0.27    0.07
  -2  -1 -10    0.25    0.07
  -2  -1 -10    0.19    0.03
  -2   1 -10    0.11    0.06
   2   1  10    0.18    0.06
  -2  -1 -11   51.37    0.74
  -2   1 -11   50.84    0.74
  -2   1 -11   51.05    0.75
  -2  -1 -11   50.96    0.37
   2   1  11   49.89    0.73
  -2  -1 -11   52.45    0.74
  -2   1 -12   15.00    0.42
  -2   1 -12   15.57    0.30
  -2  -1 -12   15.89    0.19
  -2   1 -12   16.18    0.44
  -2  -1 -12   16.14    0.44
  -2  -1 -13   59.39    0.87
  -2   1 -13   58.83    0.58
  -2   1 -13   61.61    0.87
  -2   1 -13   59.98    0.88
  -2  -1 -14    1.40    0.16
  -2   1 -14    1.28    0.16
  -2   1 -14    1.49    0.16
  -2   1 -14    1.06    0.09
  -2  -1 -15   14.24    0.47
  -2   1 -15   14.19    0.28
  -2   1 -15   14.08    0.47
  -2   1 -15   13.76    0.26
  -2   1 -15   14.58    0.46
  -2   1 -16    2.74    0.13
  -2  -1 -16    2.52    0.21
  -2   1 -16    3.05    0.23
  -2   1 -16    2.72    0.12
  -2  -1 -17    0.08    0.08
  -2   1 -17    0.17    0.04
  -2   1 -17    0.14    0.10
  -2   1 -17    0.19    0.04
  -2   1 -18    5.41    0.16
  -2   1 -18    5.21    0.32
  -2   1 -18    5.23    0.16
  -2  -1 -18    5.21    0.32
  -2  -1 -19    0.09    0.08
  -2   1 -19    0.04    0.03
  -2   1 -19    0.01    0.08
  -2  -1 -20    0.27    0.12
  -2   1 -20    0.07    0.09
  -2   1 -21    5.31    0.36
  -2  -1 -21    5.84    0.37
  -2   1 -22    1.34    0.20
  -2  -1 -22    1.47    0.21
  -2  -1 -23    1.79    0.23
  -2   1 -23    1.62    0.22
  -2  -1 -24    0.30    0.13
  -2   1 -24    0.52    0.15
  -2  -1 -25    1.41    0.22
  -2   1 -25    1.02    0.18
  -2  -1 -26    0.23    0.11
  -2   1 -26    0.15    0.10
  -2  -1 -27    0.04    0.11
  -2   1 -27   -0.07    0.10
  -2  -1 -28    0.11    0.10
  -2   1 -28   -0.05    0.12
   2   2 -29    0.46    0.19
   2   2 -28    0.45    0.17
   2  -2 -28    1.00    0.22
   2   2 -27    2.01    0.27
   2  -2 -27    1.87    0.27
   2   2 -26    0.64    0.17
   2  -2 -26    0.83    0.19
   2  -2 -25    0.40    0.14
   2   2 -25    0.31    0.15
   2   2 -24   11.58    0.58
   2  -2 -24   12.62    0.59
   2  -2 -23    0.15    0.12
   2   2 -23    0.10    0.11
   2   2 -22    2.91    0.28
   2  -2 -22    2.52    0.27
   2   2 -22    2.79    0.18
   2   2 -21    3.24    0.19
   2  -2 -21    3.50    0.30
   2   2 -21    3.58    0.30
   2   2 -20    0.78    0.10
   2   2 -20    0.93    0.16
   2  -2 -20    0.88    0.16
   2   2 -19    0.59    0.13
   2   2 -19    0.46    0.08
   2  -2 -19    0.40    0.12
   2   2 -18    1.92    0.15
   2  -2 -18    1.77    0.19
  -2   2  18    1.74    0.10
   2   2 -18    1.68    0.19
  -2  -2  18    1.87    0.14
  -2  -2  17    0.37    0.08
  -2   2  17    0.23    0.04
   2  -2 -17    0.28    0.10
   2   2 -17    0.36    0.07
   2   2 -17    0.19    0.08
   2  -2 -16   19.35    0.58
   2   2 -16   18.96    0.58
  -2   2  16   18.90    0.34
   2   2 -16   18.97    0.43
  -2  -2  16   19.07    0.42
   2  -2 -16   19.01    0.35
   2   2 -15    7.13    0.35
   2  -2 -15    7.29    0.22
   2  -2 -15    7.12    0.35
  -2   2  15    7.17    0.21
   2   2 -15    6.92    0.26
  -2  -2  15    7.31    0.26
   2   2 -14   45.41    0.82
   2  -2 -14   44.06    0.53
   2   2 -14   43.86    0.63
   2   2 -14   44.27    0.67
   2  -2 -14   45.47    0.81
  -2   2  14   43.15    0.52
  -2  -2  14   43.82    0.62
  -2   2  13    0.04    0.04
   2  -2 -13    0.11    0.08
   2   2 -13    0.02    0.05
   2  -2 -13    0.07    0.08
   2   2 -13    0.08    0.09
   2   2 -13    0.05    0.06
   2  -2 -13    0.10    0.05
  -2  -2  13    0.08    0.05
   2   2 -12   18.98    0.41
   2  -2 -12   17.91    0.34
  -2   2  12   18.60    0.34
   2  -2 -12   17.69    0.48
   2   2 -12   18.12    0.39
  -2  -2  12   18.43    0.38
   2  -2 -12   18.50    0.46
   2   2 -12   18.42    0.49
   2  -2 -11   20.33    0.46
   2   2 -11   19.82    0.48
   2  -2 -11   20.38    0.48
   2   2 -11   20.35    0.41
  -2   2  11   19.14    0.35
   2   2 -11   20.02    0.41
  -2  -2  11   20.10    0.39
   2  -2 -11   19.59    0.35
  -2   2  10   17.43    0.44
  -2   2  10   16.87    0.33
   2   2 -10   17.85    0.44
   2  -2 -10   17.53    0.33
   2   2 -10   16.85    0.36
   2  -2 -10   17.16    0.42
  -2  -2  10   17.57    0.36
   2   2 -10   17.09    0.36
   2  -2 -10   17.09    0.41
   2   2  -9    1.91    0.13
   2  -2  -9    1.79    0.11
   2   2  -9    1.71    0.13
   2   2  -9    1.77    0.12
  -2   2   9    1.69    0.11
  -2  -2   9    1.90    0.12
   2  -2  -9    1.66    0.13
  -2   2   9    1.81    0.14
   2  -2  -9    1.74    0.13
  -2   2   8   96.84    0.94
   2  -2  -8   96.56    0.77
  -2   2   8   92.82    0.76
  -2  -2   8   95.11    0.82
   2   2  -8   96.41    0.83
   2   2  -8   95.30    0.79
   2  -2  -8   96.57    0.90
   2   2  -8   96.06    0.90
   2  -2  -7    4.57    0.19
   2  -2  -7    4.71    0.17
  -2  -2   7    4.31    0.17
   2   2  -7    4.63    0.18
  -2   2   7    4.38    0.19
  -2   2   7    4.75    0.17
   2  -2  -6    0.61    0.06
  -2  -2   6    0.61    0.07
  -2   2   6    0.61    0.07
  -2   2   6    0.65    0.07
   2  -2  -6    0.64    0.07
   2   2  -6    0.67    0.07
   2  -2  -5    3.51    0.15
  -2  -2   5    3.18    0.14
  -2   2   5    3.18    0.14
  -2   2   5    3.16    0.14
   2   2  -5    3.35    0.15
  -2   2   4    6.65    0.20
  -2  -2   4    6.98    0.20
   2   2  -4    6.62    0.20
   2  -2  -4    6.68    0.20
   2   2  -3    2.98    0.13
  -2   2   3    3.02    0.14
  -2  -2   3    3.11    0.13
  -2  -2   2    3.13    0.13
   2   2  -2    3.12    0.14
  -2   2   2    3.19    0.14
   2   2  -1   56.92    0.55
  -2  -2   1   58.14    0.55
  -2   2   1   56.85    0.58
  -2   2   0   13.35    0.28
  -2  -2   0   13.80    0.26
   2   2   0   12.98    0.26
   2   2   1  104.32    0.72
  -2  -2  -1  105.98    0.70
  -2  -2  -1  103.62    0.48
  -2  -2  -2    7.19    0.18
   2   2   2    6.48    0.18
  -2  -2  -2    6.75    0.14
   2   2   3   49.95    0.42
   2   2   3   50.13    0.42
   2   2   3   49.31    0.48
  -2  -2  -3   50.34    0.46
  -2  -2  -3   49.25    0.43
  -2  -2  -4    5.60    0.15
   2   2   4    5.52    0.16
   2   2   4    5.16    0.15
  -2  -2  -4    5.43    0.16
   2   2   4    5.61    0.16
   2   2   5    1.01    0.08
  -2  -2  -5    1.21    0.08
  -2  -2  -5    1.25    0.07
   2   2   5    1.07    0.07
  -2   2  -5    1.47    0.10
   2   2   5    1.23    0.08
  -2  -2  -6    4.04    0.12
   2   2   6    3.76    0.16
   2   2   6    3.90    0.13
   2   2   6    4.20    0.16
  -2   2  -6    4.09    0.17
  -2  -2  -6    4.09    0.16
  -2  -2  -7   11.08    0.27
   2   2   7   11.08    0.21
  -2  -2  -7   10.60    0.27
  -2   2  -7   11.03    0.28
  -2  -2  -7   11.10    0.19
   2   2   7   10.86    0.28
   2   2   7   11.34    0.27
   2   2   8   21.90    0.42
  -2  -2  -8   21.59    0.41
  -2  -2  -8   22.52    0.42
   2   2   8   21.64    0.28
  -2   2  -8   22.83    0.42
   2   2   8   22.10    0.40
  -2  -2  -8   21.74    0.26
   2   2   9    0.25    0.06
   2  -2   9    0.18    0.06
   2   2   9    0.23    0.04
   2   2   9    0.28    0.06
  -2  -2  -9    0.14    0.03
  -2   2  -9    0.19    0.06
  -2  -2  -9    0.15    0.06
  -2  -2 -10   65.13    0.40
  -2   2 -10   68.34    0.83
   2   2  10   65.46    0.81
  -2  -2 -10   64.45    0.80
  -2   2 -10   68.44    0.81
  -2   2 -11    7.88    0.29
   2   2  11    7.70    0.30
  -2   2 -11    7.18    0.29
  -2  -2 -11    8.18    0.30
  -2  -2 -11    7.01    0.11
  -2   2 -12    8.23    0.32
  -2  -2 -12    7.87    0.31
  -2   2 -12    8.25    0.31
  -2  -2 -13    1.35    0.14
  -2   2 -13    1.62    0.15
  -2   2 -13    1.39    0.15
  -2  -2 -14    2.43    0.19
  -2   2 -14    1.83    0.17
  -2   2 -14    2.37    0.19
  -2  -2 -15    4.38    0.26
  -2   2 -15    4.56    0.27
  -2   2 -15    4.81    0.27
  -2   2 -16   18.10    0.56
  -2  -2 -16   17.85    0.54
  -2   2 -16   18.30    0.35
  -2   2 -17    0.17    0.11
  -2  -2 -17    0.14    0.10
  -2   2 -17    0.05    0.04
  -2  -2 -18   18.98    0.59
  -2   2 -18   18.72    0.61
  -2   2 -18   19.22    0.36
  -2  -2 -19    0.23    0.11
  -2   2 -19    0.16    0.05
  -2   2 -19    0.18    0.10
  -2   2 -20    1.27    0.18
  -2  -2 -20    1.76    0.21
  -2   2 -20    1.44    0.10
  -2  -2 -21    0.60    0.14
  -2   2 -21    0.72    0.15
  -2   2 -22    1.95    0.23
  -2  -2 -22    1.91    0.23
  -2   2 -23    0.08    0.10
  -2  -2 -23    0.02    0.09
  -2  -2 -24    0.07    0.10
  -2   2 -24   -0.10    0.12
  -2  -2 -25   -0.14    0.11
  -2   2 -25   -0.13    0.12
  -2   2 -26    0.72    0.17
  -2  -2 -26    0.90    0.19
  -2  -2 -27    0.25    0.14
  -2   2 -27    0.08    0.10
  -2  -2 -28    0.51    0.15
  -2   2 -28    0.46    0.15
   2   3 -28    1.14    0.23
   2   3 -27    1.38    0.24
   2   3 -26    0.39    0.17
   2   3 -25    1.11    0.21
   2   3 -24   -0.05    0.13
   2   3 -23   -0.03    0.05
   2   3 -23   -0.13    0.12
   2   3 -22    2.59    0.27
   2   3 -22    2.61    0.19
   2   3 -21   -0.11    0.12
   2   3 -21   -0.05    0.07
   2   3 -20    1.01    0.12
   2   3 -20    0.90    0.15
   2   3 -19    9.89    0.34
   2   3 -19   10.62    0.48
   2   3 -18    1.71    0.15
   2   3 -18    2.17    0.23
  -2   3  18    2.02    0.11
  -2   3  17   18.61    0.33
   2   3 -17   18.95    0.46
   2   3 -17   18.69    0.60
   2   3 -16    2.47    0.17
  -2   3  16    2.53    0.13
   2   3 -16    2.46    0.22
   2   3 -15    3.78    0.26
   2   3 -15    3.77    0.20
  -2   3  15    3.84    0.16
  -2  -3  15    3.88    0.20
   2   3 -14    0.17    0.07
  -2  -3  14    0.07    0.04
   2   3 -14    0.24    0.09
  -2   3  14    0.08    0.04
  -2   3  13   15.51    0.31
   2   3 -13   15.27    0.37
   2   3 -13   15.31    0.47
   2  -3 -13   15.72    0.44
   2   3 -13   14.57    0.38
  -2  -3  13   15.26    0.38
   2   3 -12   12.21    0.34
  -2   3  12   12.03    0.28
  -2  -3  12   12.67    0.34
   2   3 -12   13.06    0.42
   2   3 -12   12.23    0.32
  -2  -3  12   12.85    0.34
   2  -3 -12   12.64    0.39
  -2   3  11   10.85    0.27
   2   3 -11   10.55    0.31
  -2  -3  11   10.79    0.31
  -2  -3  11   10.60    0.29
   2  -3 -11   10.59    0.34
   2   3 -11   11.65    0.38
   2   3 -11   11.10    0.29
  -2   3  10   12.47    0.29
   2  -3 -10   12.99    0.37
  -2  -3  10   12.69    0.30
  -2  -3  10   12.44    0.33
   2   3 -10   12.41    0.33
   2   3 -10   12.38    0.30
  -2   3   9    2.76    0.14
   2   3  -9    2.74    0.15
  -2   3   9    2.88    0.18
   2   3  -9    2.64    0.14
  -2  -3   9    2.91    0.16
   2  -3  -9    2.74    0.17
  -2  -3   9    2.94    0.14
   2   3  -8   17.36    0.37
  -2   3   8   17.33    0.35
  -2  -3   8   18.23    0.38
   2   3  -8   17.05    0.32
   2  -3  -8   17.87    0.40
  -2   3   8   17.70    0.42
  -2   3   7    3.87    0.19
   2   3  -7    4.35    0.19
  -2  -3   7    3.82    0.17
  -2   3   7    3.80    0.16
   2  -3  -7    3.80    0.18
  -2   3   6   15.99    0.33
   2  -3  -6   16.15    0.35
  -2  -3   6   16.79    0.35
   2   3  -6   16.04    0.35
  -2   3   5   39.05    0.52
   2   3  -5   39.98    0.53
  -2  -3   5   39.56    0.53
   2  -3  -5   38.79    0.53
  -2   3   4    0.68    0.08
  -2  -3   4    0.76    0.08
   2   3  -4    0.81    0.09
   2   3  -3   72.97    0.69
  -2  -3   3   73.26    0.69
  -2  -3   2    1.90    0.11
   2   3  -2    2.01    0.12
   2   3  -1    3.77    0.15
  -2  -3   1    3.85    0.15
  -2  -3   0  124.94    0.84
   2   3   0  122.91    0.84
  -2  -3   0  122.59    0.40
   2   3   1   20.65    0.34
  -2  -3  -1   20.61    0.21
  -2  -3  -1   20.72    0.34
  -2  -3  -2    0.82    0.05
  -2  -3  -2    0.90    0.07
   2   3   2    0.95    0.05
   2   3   2    0.94    0.08
   2   3   3   14.97    0.23
  -2  -3  -3   14.77    0.24
   2   3   3   15.01    0.28
  -2  -3  -3   14.95    0.27
   2   3   4   21.39    0.30
  -2  -3  -4   21.32    0.32
   2   3   4   20.73    0.33
   2   3   5   31.11    0.39
  -2  -3  -5   31.43    0.38
   2   3   5   31.78    0.40
   2   3   5   31.72    0.44
  -2  -3  -6   13.07    0.23
   2   3   6   13.46    0.31
   2   3   6   12.72    0.24
  -2   3  -6   12.82    0.30
   2   3   6   13.40    0.28
   2   3   7    0.99    0.09
   2   3   7    0.98    0.07
  -2  -3  -7    0.93    0.06
   2   3   7    0.90    0.08
  -2   3  -7    0.93    0.09
   2   3   8    1.28    0.07
  -2   3  -8    1.06    0.10
  -2  -3  -8    1.26    0.07
   2   3   8    1.19    0.11
   2   3   8    1.33    0.10
   2   3   9    2.95    0.10
   2   3   9    2.93    0.17
  -2  -3  -9    3.10    0.10
  -2   3  -9    2.94    0.16
   2   3   9    3.20    0.17
   2   3  10    0.30    0.04
  -2   3 -10    0.34    0.07
   2   3  10    0.30    0.07
  -2  -3 -10    0.32    0.03
   2   3  11    6.22    0.12
  -2   3 -11    6.74    0.27
  -2   3 -12   33.53    0.62
  -2   3 -13    7.01    0.32
  -2   3 -13    7.11    0.30
  -2   3 -14    2.75    0.21
  -2  -3 -14    2.82    0.21
  -2   3 -14    2.86    0.20
  -2  -3 -15    0.02    0.07
  -2   3 -15    0.01    0.07
  -2   3 -15   -0.04    0.09
  -2   3 -16    2.22    0.21
  -2   3 -16    2.62    0.22
  -2  -3 -16    2.21    0.20
  -2   3 -16    2.39    0.15
  -2   3 -17    3.26    0.25
  -2   3 -17    2.93    0.16
  -2  -3 -17    3.20    0.25
  -2   3 -17    3.35    0.26
  -2  -3 -18    7.62    0.39
  -2   3 -18    8.25    0.41
  -2   3 -18    8.14    0.27
  -2   3 -19    3.04    0.26
  -2  -3 -19    3.11    0.26
  -2   3 -19    3.01    0.16
  -2  -3 -20    0.18    0.10
  -2   3 -20    0.12    0.09
  -2   3 -20    0.17    0.06
  -2   3 -21    0.04    0.09
  -2  -3 -21    0.19    0.11
  -2   3 -22    3.15    0.29
  -2   3 -23    1.20    0.19
  -2   3 -24    1.54    0.22
  -2   3 -25   -0.06    0.11
  -2   3 -26   -0.01    0.12
  -2   3 -27    0.22    0.13
  -2   3 -28    0.52    0.17
   2   4 -28    0.24    0.11
   2   4 -27   -0.05    0.12
   2   4 -26    0.41    0.13
   2   4 -25    0.15    0.12
   2   4 -24    3.32    0.32
   2   4 -23    0.09    0.09
   2   4 -23   -0.01    0.06
   2   4 -22    1.03    0.18
   2   4 -22    0.96    0.13
   2   4 -21    0.74    0.11
   2   4 -21    0.62    0.14
   2   4 -20   10.92    0.51
   2   4 -20   10.11    0.37
   2   4 -19   11.32    0.50
   2   4 -19   10.73    0.38
   2   4 -18    3.79    0.23
   2   4 -18    3.59    0.29
   2   4 -17    1.00    0.12
   2   4 -17    0.93    0.16
  -2   4  17    0.93    0.08
  -2   4  16   20.22    0.36
   2   4 -16   19.38    0.48
   2   4 -16   21.13    0.62
   2   4 -15    5.84    0.32
  -2   4  15    5.97    0.20
   2   4 -15    6.14    0.27
  -2   4  14   26.09    0.43
   2   4 -14   27.71    0.66
   2   4 -14   26.68    0.55
   2   4 -13    0.25    0.07
  -2   4  13    0.31    0.06
   2   4 -13    0.35    0.07
   2   4 -13    0.19    0.08
   2   4 -12    2.02    0.13
   2  -4 -12    2.28    0.17
  -2   4  12    2.09    0.13
   2   4 -12    2.20    0.16
  -2  -4  12    2.16    0.14
  -2   4  11    6.24    0.22
   2   4 -11    6.19    0.25
  -2  -4  11    6.32    0.22
   2  -4 -11    6.76    0.29
  -2  -4  11    6.50    0.25
   2   4 -11    6.16    0.21
   2   4 -10    0.04    0.04
   2  -4 -10   -0.03    0.06
  -2  -4  10    0.01    0.03
   2   4 -10    0.05    0.05
  -2   4  10    0.11    0.05
  -2  -4  10    0.16    0.06
  -2  -4   9   12.54    0.27
  -2   4   9   12.66    0.31
   2   4  -9   13.19    0.36
  -2  -4   9   12.37    0.34
   2   4  -9   12.49    0.28
   2  -4  -9   12.43    0.36
  -2   4   8   50.77    0.63
  -2   4   8   51.92    0.75
  -2  -4   8   52.44    0.69
   2   4  -8   51.90    0.69
   2  -4  -8   52.55    0.71
  -2  -4   8   52.49    0.51
   2   4  -7    8.63    0.28
  -2  -4   7    8.94    0.19
  -2   4   7    8.24    0.26
  -2  -4   7    8.57    0.28
   2  -4  -7    8.63    0.28
  -2   4   6   67.13    0.72
  -2  -4   6   66.38    0.75
  -2  -4   6   65.57    0.47
   2  -4  -6   67.29    0.74
   2   4  -6   64.64    0.75
   2   4  -5   12.83    0.33
  -2  -4   5   12.95    0.18
  -2  -4   5   13.06    0.33
   2  -4  -5   13.03    0.32
   2   4  -4   34.36    0.53
  -2  -4   4   34.36    0.52
   2  -4  -4   33.32    0.49
  -2  -4   4   33.28    0.24
   2   4  -3   50.33    0.63
  -2  -4   3   49.85    0.61
   2   4  -2   41.30    0.56
  -2  -4   2   40.70    0.54
   2   4  -1    0.07    0.05
  -2  -4   1    0.02    0.04
   2   4   0    9.25    0.25
  -2  -4   0    9.08    0.25
   2   4   1    4.73    0.09
   2   4   1    4.64    0.18
  -2  -4  -1    4.71    0.18
  -2  -4  -2   32.07    0.45
   2   4   2   32.35    0.45
   2   4   2   31.25    0.29
   2   4   3    2.10    0.11
  -2  -4  -3    2.19    0.12
   2   4   3    2.12    0.09
   2   4   4    0.54    0.06
   2   4   4    0.48    0.05
  -2  -4  -4    0.46    0.05
   2   4   5    3.42    0.13
  -2  -4  -5    3.40    0.14
   2   4   5    3.07    0.13
  -2   4  -6    0.64    0.08
   2   4   6    0.56    0.06
   2   4   6    0.60    0.06
  -2  -4  -6    0.58    0.06
   2   4   7    3.75    0.14
   2   4   7    3.90    0.17
  -2   4  -7    3.80    0.17
   2   4   7    3.57    0.18
  -2  -4  -7    3.69    0.13
   2   4   8   29.82    0.48
   2   4   8   30.32    0.54
   2   4   8   29.54    0.38
  -2   4  -8   30.31    0.51
  -2  -4  -8   29.80    0.37
   2   4   9    0.94    0.10
   2   4   9    0.79    0.06
  -2   4  -9    0.75    0.09
   2   4   9    0.71    0.09
  -2  -4  -9    0.79    0.06
   2   4  10   29.11    0.35
  -2   4 -10   30.58    0.55
   2   4  11    4.12    0.12
  -2   4 -11    4.26    0.22
   2   4  12    3.79    0.10
  -2   4 -12    3.73    0.21
  -2   4 -13    3.25    0.21
  -2   4 -14    5.78    0.29
  -2   4 -15    2.95    0.22
  -2   4 -15    2.38    0.21
  -2   4 -16    7.85    0.36
  -2   4 -16    7.17    0.27
  -2   4 -16    7.15    0.37
  -2   4 -17    0.48    0.11
  -2   4 -17    0.69    0.15
  -2   4 -17    0.62    0.09
  -2   4 -18   18.40    0.62
  -2   4 -18   18.05    0.58
  -2   4 -19    4.22    0.31
  -2   4 -19    3.40    0.19
  -2   4 -20    4.01    0.31
  -2   4 -20    4.15    0.21
  -2   4 -21    0.01    0.10
  -2   4 -21    0.02    0.05
  -2   4 -22    0.05    0.09
  -2   4 -23    1.61    0.23
  -2   4 -24    3.77    0.35
  -2   4 -25    0.35    0.16
  -2   4 -26    3.23    0.34
  -2   4 -27    0.04    0.13
  -2   4 -28    0.02    0.11
   2   5 -28    0.85    0.21
   2   5 -27    3.21    0.35
   2   5 -26    0.06    0.11
   2   5 -25    3.62    0.36
   2   5 -24    1.48    0.23
   2   5 -23    0.46    0.14
   2   5 -23    0.72    0.13
   2   5 -22    7.40    0.34
   2   5 -22    7.22    0.45
   2   5 -21    2.20    0.19
   2   5 -21    2.49    0.27
   2   5 -20   -0.11    0.09
   2   5 -20    0.08    0.06
   2   5 -19   21.94    0.57
   2   5 -19   22.51    0.72
   2   5 -18    0.13    0.11
   2   5 -18    0.24    0.08
   2   5 -17    0.44    0.09
  -2   5  17    0.46    0.07
   2   5 -17    0.60    0.13
  -2   5  16   14.73    0.33
   2   5 -16   14.49    0.52
   2   5 -16   14.67    0.45
  -2   5  15    0.33    0.06
   2   5 -15    0.50    0.10
   2   5 -15    0.33    0.11
  -2   5  14    0.31    0.06
   2   5 -14    0.36    0.08
  -2   5  13    4.33    0.19
   2   5 -13    4.28    0.23
  -2  -5  13    4.09    0.19
  -2   5  12    9.30    0.28
   2   5 -12    9.22    0.25
   2   5 -12    8.79    0.33
  -2  -5  12    9.16    0.27
   2  -5 -11    1.60    0.15
  -2   5  11    1.60    0.12
   2   5 -11    1.42    0.10
   2   5 -11    1.69    0.15
  -2  -5  11    1.81    0.12
  -2   5  10    0.04    0.04
   2   5 -10    0.05    0.06
   2   5 -10    0.01    0.03
  -2  -5  10    0.02    0.03
   2  -5 -10    0.00    0.06
   2   5  -9   16.40    0.42
  -2   5   9   16.71    0.39
   2  -5  -9   17.31    0.43
   2   5  -9   16.65    0.30
  -2  -5   9   16.07    0.30
   2   5  -8    3.64    0.20
  -2   5   8    3.52    0.18
  -2  -5   8    3.38    0.13
   2  -5  -8    3.41    0.19
   2   5  -7   12.53    0.36
   2  -5  -7   12.81    0.35
  -2  -5   7   11.75    0.21
  -2  -5   7   12.20    0.35
   2   5  -6   14.72    0.38
  -2  -5   6   14.81    0.21
  -2  -5   6   14.78    0.38
   2  -5  -6   15.00    0.36
   2   5  -5   14.55    0.37
  -2  -5   5   14.58    0.18
  -2  -5   5   14.44    0.36
   2  -5  -5   13.99    0.34
   2  -5  -4   10.37    0.28
   2   5  -4   10.72    0.32
  -2  -5   4   10.58    0.31
   2   5  -3   33.42    0.54
   2  -5  -3   32.75    0.48
  -2  -5   3   33.24    0.54
   2   5  -2   13.10    0.34
  -2  -5   2   13.33    0.34
   2   5  -1   90.80    0.87
  -2  -5   1   91.48    0.87
   2   5   0    9.82    0.28
  -2  -5   0    9.64    0.28
   2   5   1   10.15    0.28
   2   5   1   10.42    0.14
  -2  -5  -1   10.76    0.29
   2   5   2    0.14    0.05
   2   5   2    0.21    0.03
  -2  -5  -2    0.24    0.05
   2   5   3   23.81    0.30
   2   5   3   23.39    0.41
  -2  -5  -3   23.94    0.41
   2   5   4    2.79    0.12
   2   5   4    2.82    0.14
  -2  -5  -4    2.76    0.14
   2   5   5   49.29    0.58
   2   5   5   50.66    0.52
  -2  -5  -5   50.20    0.57
   2   5   6    9.30    0.24
   2   5   6    9.01    0.24
  -2  -5  -6    9.43    0.24
   2   5   7    0.56    0.07
  -2   5  -7    0.53    0.08
   2   5   7    0.66    0.07
  -2  -5  -7    0.61    0.07
   2   5   8   35.41    0.62
  -2   5  -8   34.98    0.56
   2   5   8   35.59    0.53
   2   5   8   35.07    0.46
   2   5   9    6.90    0.25
   2   5   9    6.64    0.20
  -2   5  -9    6.72    0.26
   2   5  10    4.02    0.15
  -2   5 -10    4.04    0.21
   2   5  11    0.08    0.03
  -2   5 -11    0.05    0.05
   2   5  12    0.58    0.05
  -2   5 -12    0.63    0.10
  -2   5 -13    6.77    0.30
   2   5  13    6.45    0.14
  -2   5 -14    7.43    0.33
  -2   5 -15   12.38    0.43
  -2   5 -16    2.86    0.22
  -2   5 -16    3.03    0.20
  -2   5 -17    4.41    0.28
  -2   5 -17    4.19    0.30
  -2   5 -17    3.64    0.22
  -2   5 -18    0.38    0.12
  -2   5 -18    0.19    0.07
  -2   5 -18    0.18    0.10
  -2   5 -19   11.52    0.52
  -2   5 -19   10.74    0.37
  -2   5 -20    0.50    0.16
  -2   5 -20    0.25    0.08
  -2   5 -21   12.27    0.56
  -2   5 -21   11.96    0.39
  -2   5 -22    2.25    0.27
  -2   5 -23   14.52    0.65
  -2   5 -24    0.18    0.14
  -2   5 -25    0.14    0.14
  -2   5 -26    0.92    0.20
  -2   5 -27    0.54    0.18
   2   6 -27    0.08    0.14
   2   6 -26    0.27    0.16
   2   6 -25    0.15    0.11
   2   6 -24    1.35    0.16
   2   6 -24    1.47    0.22
   2   6 -23    0.84    0.14
   2   6 -23    0.73    0.19
   2   6 -22    8.15    0.49
   2   6 -22    8.92    0.40
   2   6 -21    2.61    0.27
   2   6 -21    2.42    0.21
   2   6 -20    0.27    0.13
   2   6 -20    0.01    0.06
   2   6 -19   12.71    0.55
   2   6 -19   12.31    0.45
   2   6 -18    9.42    0.39
   2   6 -18    9.81    0.47
   2   6 -17    1.04    0.13
   2   6 -17    0.77    0.14
  -2   6  16    1.29    0.11
   2   6 -16    1.45    0.16
  -2   6  15    0.88    0.10
   2   6 -15    0.86    0.12
  -2   6  14    7.78    0.27
   2   6 -14    8.05    0.34
  -2   6  13   19.71    0.43
   2   6 -13   19.16    0.52
  -2  -6  13   19.75    0.41
  -2   6  12    0.63    0.09
   2   6 -12    0.80    0.13
  -2  -6  12    0.62    0.08
  -2   6  11    2.32    0.16
   2   6 -11    2.28    0.18
   2   6 -11    2.40    0.12
  -2  -6  11    2.55    0.14
  -2   6  10    4.52    0.22
   2   6 -10    4.61    0.24
  -2  -6  10    4.26    0.16
   2   6 -10    4.25    0.15
   2  -6 -10    4.72    0.24
   2  -6  -9    4.04    0.22
  -2  -6   9    4.08    0.15
   2   6  -9    3.64    0.21
   2   6  -9    3.84    0.14
   2  -6  -8    1.78    0.14
   2   6  -8    1.73    0.09
   2   6  -8    2.11    0.16
  -2  -6   8    1.84    0.09
   2  -6  -7   14.04    0.38
   2   6  -7   13.54    0.40
   2   6  -6   46.59    0.72
   2  -6  -6   47.77    0.66
   2   6  -5    6.18    0.26
   2  -6  -5    6.16    0.23
   2   6  -4    2.93    0.18
   2  -6  -4    2.99    0.16
   2   6  -3   36.36    0.61
   2  -6  -3   36.15    0.52
  -2  -6   3   36.63    0.61
   2  -6  -2    0.92    0.09
  -2  -6   2    1.10    0.11
   2   6  -2    0.88    0.11
   2  -6  -1   20.98    0.36
   2   6  -1   21.57    0.46
  -2  -6   1   22.23    0.46
   2   6   0   63.86    0.77
  -2  -6   0   65.13    0.77
   2   6   1   12.49    0.17
   2   6   1   12.77    0.34
  -2  -6  -1   13.07    0.34
   2   6   2    3.67    0.11
   2   6   2    3.59    0.18
  -2  -6  -2    3.74    0.18
   2   6   3    3.78    0.12
   2   6   3    3.44    0.18
  -2  -6  -3    3.61    0.18
   2   6   4    0.91    0.07
   2   6   4    0.84    0.09
  -2  -6  -4    0.96    0.09
   2   6   5   14.04    0.28
   2   6   5   13.62    0.33
   2   6   6   12.94    0.29
   2   6   6   12.86    0.32
   2   6   7    3.15    0.16
  -2   6  -7    3.22    0.17
   2   6   7    3.15    0.16
  -2   6  -8   50.40    0.68
   2   6   8   50.18    0.60
   2   6   8   51.49    0.66
   2   6   9    5.62    0.20
  -2   6  -9    5.79    0.24
  -2   6 -10   11.38    0.36
   2   6  10   10.94    0.27
   2   6  11   19.19    0.34
  -2   6 -11   19.25    0.47
  -2   6 -12    0.20    0.08
   2   6  12    0.05    0.03
   2   6  13    1.65    0.09
  -2   6 -13    1.84    0.16
  -2   6 -14    1.38    0.15
   2   6  14    1.16    0.07
  -2   6 -15    2.93    0.21
  -2   6 -15    2.87    0.22
  -2   6 -16    1.09    0.14
  -2   6 -16    1.17    0.13
  -2   6 -17    0.23    0.08
  -2   6 -17    0.09    0.08
  -2   6 -18    3.50    0.26
  -2   6 -18    3.59    0.23
  -2   6 -19    0.09    0.07
  -2   6 -19    0.04    0.08
  -2   6 -19   -0.11    0.11
  -2   6 -20    1.24    0.15
  -2   6 -20    1.00    0.15
  -2   6 -20    1.14    0.18
  -2   6 -21    0.01    0.10
  -2   6 -21    0.06    0.06
  -2   6 -22    1.45    0.23
  -2   6 -23    1.74    0.26
  -2   6 -24    4.30    0.37
  -2   6 -25    0.52    0.16
  -2   6 -26    0.89    0.19
   2   7 -26    1.43    0.25
   2   7 -25    2.46    0.31
   2   7 -24    3.59    0.36
   2   7 -24    3.78    0.28
   2   7 -23    0.03    0.08
   2   7 -23    0.27    0.14
   2   7 -22    1.50    0.23
   2   7 -22    1.83    0.20
   2   7 -21    4.49    0.29
   2   7 -21    4.44    0.36
   2   7 -20    0.96    0.14
   2   7 -20    1.37    0.22
   2   7 -19    7.73    0.37
   2   7 -19    7.80    0.45
   2   7 -18    4.69    0.29
   2   7 -17    1.40    0.16
   2   7 -16    0.08    0.06
   2   7 -15    0.47    0.11
  -2   7  15    0.41    0.08
  -2   7  14    0.11    0.06
   2   7 -14    0.30    0.09
  -2   7  13    3.85    0.21
  -2  -7  13    4.15    0.19
   2   7 -13    3.80    0.25
  -2   7  12    0.85    0.11
   2   7 -12    1.15    0.15
  -2  -7  12    0.99    0.09
  -2  -7  11    3.96    0.17
   2   7 -11    3.79    0.24
  -2   7  11    3.90    0.21
   2   7 -10    0.04    0.03
   2   7 -10    0.03    0.06
   2  -7  -9   11.97    0.38
   2   7  -9   11.15    0.39
   2   7  -9   11.43    0.21
   2  -7  -8    2.58    0.18
   2   7  -8    2.81    0.20
   2   7  -8    2.54    0.10
   2  -7  -7    1.40    0.12
   2   7  -7    1.49    0.15
   2   7  -6    5.50    0.27
   2  -7  -6    5.83    0.24
   2  -7  -5    0.47    0.08
   2   7  -5    0.36    0.08
   2  -7  -4   21.67    0.43
   2   7  -4   21.68    0.51
   2  -7  -3    5.32    0.21
   2   7  -3    5.19    0.25
   2   7  -2   12.26    0.37
   2  -7  -2   12.23    0.30
   2   7  -1   70.58    0.88
   2  -7  -1   71.33    0.68
   2  -7   0    0.01    0.04
   2   7   0    0.18    0.08
   2   7   1   15.26    0.40
   2   7   2    3.13    0.19
   2   7   3   17.77    0.42
   2   7   4    3.28    0.19
   2   7   5   77.18    0.69
   2   7   5   78.18    0.86
   2   7   6    3.42    0.16
   2   7   6    3.32    0.18
   2   7   7   13.85    0.35
   2   7   7   14.09    0.33
  -2   7  -8    4.48    0.21
   2   7   8    4.45    0.20
   2   7   8    4.55    0.20
  -2   7  -9    0.76    0.10
   2   7   9    0.79    0.09
   2   7  10    7.17    0.24
  -2   7 -10    7.93    0.30
   2   7  11    6.90    0.23
  -2   7 -11    6.84    0.29
   2   7  12    0.11    0.04
  -2   7 -12    0.04    0.06
   2   7  13    1.91    0.11
  -2   7 -13    1.97    0.17
   2   7  14    0.05    0.03
  -2   7 -14    0.03    0.06
  -2   7 -15    1.43    0.16
  -2   7 -15    1.64    0.17
   2   7  15    1.67    0.09
  -2   7 -16    3.93    0.26
  -2   7 -16    3.92    0.25
  -2   7 -17    0.02    0.06
  -2   7 -17    0.01    0.07
  -2   7 -18    9.62    0.40
  -2   7 -18   10.63    0.45
  -2   7 -19    0.47    0.11
  -2   7 -19    0.30    0.09
  -2   7 -20    0.62    0.13
  -2   7 -20    0.38    0.12
  -2   7 -20    0.56    0.11
  -2   7 -21    1.73    0.24
  -2   7 -21    1.61    0.17
  -2   7 -22    0.38    0.14
  -2   7 -22    0.67    0.12
  -2   7 -23    1.97    0.26
  -2   7 -24    0.40    0.15
  -2   7 -25    0.44    0.15
  -2   7 -26    1.38    0.25
   2   8 -26   -0.02    0.11
   2   8 -25    1.17    0.23
   2   8 -24    6.57    0.48
   2   8 -24    5.74    0.36
   2   8 -23    4.69    0.40
   2   8 -23    4.87    0.33
   2   8 -22   11.04    0.49
   2   8 -22   10.97    0.58
   2   8 -21    1.05    0.16
   2   8 -21    0.99    0.20
   2   8 -20    0.17    0.11
   2   8 -20    0.07    0.09
   2   8 -19    2.17    0.22
   2   8 -18    3.21    0.26
   2   8 -17    5.16    0.32
   2   8 -16    0.78    0.14
   2   8 -15    0.28    0.09
   2   8 -14    8.48    0.39
   2   8 -13    0.00    0.07
   2   8 -12    0.79    0.13
   2   8 -11    8.14    0.37
   2   8 -10    1.44    0.17
   2   8  -9   10.08    0.40
   2   8  -9   10.72    0.17
   2   8  -8    7.34    0.34
   2   8  -8    7.16    0.14
   2  -8  -7    0.08    0.06
   2   8  -7   -0.05    0.07
   2  -8  -6    8.90    0.31
   2   8  -6    9.13    0.36
   2  -8  -5    6.55    0.25
   2   8  -5    6.42    0.30
   2   8  -4    0.11    0.07
   2  -8  -4    0.07    0.05
   2   8  -3    2.85    0.20
   2  -8  -3    2.55    0.15
   2  -8  -2   16.99    0.36
   2   8  -2   16.79    0.47
   2   8  -1   20.95    0.52
   2  -8  -1   21.00    0.39
   2   8   0   36.31    0.66
   2  -8   0   35.47    0.47
   2   8   1   25.57    0.55
   2  -8   1   25.88    0.39
   2   8   2   18.84    0.47
   2  -8   2   18.23    0.31
   2  -8   3    4.00    0.14
   2   8   3    4.13    0.22
   2   8   4   25.07    0.53
   2   8   5    1.22    0.13
   2   8   6   12.71    0.37
   2   8   7   19.75    0.45
   2   8   7   20.42    0.41
  -2   8  -8   12.20    0.36
   2   8   8   12.29    0.34
   2   8   8   12.38    0.36
   2   8   9    4.33    0.21
  -2   8  -9    4.28    0.22
   2   8  10    0.04    0.04
  -2   8 -10    0.08    0.05
   2   8  11    0.10    0.05
  -2   8 -11    0.08    0.06
  -2   8 -12    0.15    0.07
   2   8  12    0.19    0.05
   2   8  13    3.89    0.18
  -2   8 -13    3.80    0.24
  -2   8 -14    3.74    0.25
   2   8  14    3.57    0.17
  -2   8 -14    3.66    0.24
  -2   8 -15    0.07    0.07
   2   8  15    0.01    0.03
  -2   8 -15    0.01    0.06
  -2   8 -16    0.33    0.09
  -2   8 -16    0.42    0.10
  -2   8 -17    1.57    0.18
  -2   8 -17    1.75    0.18
  -2   8 -18    2.76    0.24
  -2   8 -18    2.03    0.20
  -2   8 -19    0.09    0.08
  -2   8 -19   -0.01    0.07
  -2   8 -20    0.49    0.11
  -2   8 -20    0.50    0.11
  -2   8 -21    0.17    0.10
  -2   8 -21   -0.11    0.12
  -2   8 -21    0.02    0.09
  -2   8 -22    0.03    0.10
  -2   8 -22   -0.06    0.08
  -2   8 -23    0.25    0.11
  -2   8 -24    1.45    0.25
  -2   8 -25    0.35    0.15
   2   9 -25    1.71    0.26
   2   9 -24    1.09    0.22
   2   9 -24    1.14    0.18
   2   9 -23    0.69    0.19
   2   9 -23    0.72    0.16
   2   9 -22    1.10    0.17
   2   9 -22    1.21    0.22
   2   9 -21    3.75    0.34
   2   9 -21    3.67    0.29
   2   9 -20    2.92    0.26
   2   9 -19    4.99    0.33
   2   9 -18    4.52    0.32
   2   9 -17   11.03    0.48
   2   9 -16    4.12    0.30
   2   9 -15    0.05    0.09
   2   9 -14    0.56    0.12
   2   9 -13    7.79    0.39
   2   9 -12    7.48    0.38
   2   9 -11   -0.03    0.07
   2   9 -10    0.16    0.07
   2   9  -9    5.84    0.32
   2   9  -8    0.03    0.07
   2   9  -7    0.15    0.08
   2   9  -6    0.78    0.12
   2   9  -5   21.95    0.59
   2   9  -4   49.94    0.87
   2  -9  -4   48.82    0.68
   2  -9  -3   57.65    0.70
   2   9  -3   56.96    0.91
   2   9  -3   54.80    0.30
   2  -9  -2    6.02    0.22
   2   9  -2    5.50    0.10
   2   9  -2    6.08    0.30
   2  -9  -1    3.95    0.17
   2   9  -1    3.67    0.23
   2   9   0   10.53    0.39
   2  -9   0   10.74    0.27
   2  -9   1    0.05    0.04
   2   9   1    0.02    0.07
   2   9   2    1.90    0.17
   2  -9   2    1.77    0.10
   2   9   3    8.78    0.34
   2  -9   3    8.01    0.19
   2   9   4   21.08    0.52
   2  -9   4   20.44    0.29
   2  -9   5   33.44    0.34
   2   9   5   34.40    0.66
   2   9   6   12.96    0.40
   2  -9   6   12.02    0.19
   2   9   7   17.02    0.45
   2   9   8    3.90    0.22
  -2   9  -8    4.21    0.22
   2   9   9    0.07    0.05
  -2   9  -9    0.04    0.06
   2   9  10    0.42    0.08
  -2   9 -10    0.34    0.08
   2   9  11    3.30    0.19
  -2   9 -11    3.51    0.22
  -2   9 -12    0.15    0.08
   2   9  12    0.11    0.06
  -2   9 -13   13.77    0.45
   2   9  13   13.57    0.37
  -2   9 -14    0.47    0.12
   2   9  14    0.27    0.06
  -2   9 -14    0.48    0.12
  -2   9 -15    3.19    0.23
  -2   9 -15    3.08    0.24
  -2   9 -16    0.22    0.09
  -2   9 -16    0.53    0.11
  -2   9 -17    0.07    0.09
  -2   9 -17    0.06    0.09
  -2   9 -18    1.76    0.20
  -2   9 -18    2.03    0.21
  -2   9 -19    1.28    0.18
  -2   9 -19    1.26    0.18
  -2   9 -20    0.94    0.16
  -2   9 -20    0.73    0.14
  -2   9 -21    3.40    0.29
  -2   9 -21    3.40    0.28
  -2   9 -22    1.48    0.24
  -2   9 -22    1.57    0.19
  -2   9 -23    0.20    0.14
  -2   9 -24    0.75    0.19
   2  10 -24    1.40    0.24
   2  10 -24    1.14    0.19
   2  10 -23    1.69    0.25
   2  10 -23    1.79    0.22
   2  10 -22    0.24    0.09
   2  10 -22    0.04    0.11
   2  10 -21    1.52    0.20
   2  10 -20    2.36    0.25
   2  10 -19    1.19    0.18
   2  10 -18    0.12    0.11
   2  10 -17    6.16    0.38
   2  10 -16    6.90    0.39
   2  10 -15    0.69    0.13
   2  10 -14    0.78    0.15
   2  10 -13    5.41    0.34
   2  10 -12    3.32    0.27
   2  10 -11    2.70    0.24
   2  10 -10   -0.06    0.09
   2  10  -9    0.93    0.15
   2  10  -8    4.73    0.30
   2  10  -7    0.02    0.08
   2  10  -6    4.82    0.30
   2  10  -5   10.71    0.18
   2  10  -5   11.55    0.45
   2  10  -4    6.21    0.12
   2  10  -4    6.84    0.34
   2  10  -3   12.15    0.45
   2  10  -3   11.37    0.15
   2  10  -2    7.75    0.13
   2  10  -2    8.09    0.37
   2  10  -1    0.24    0.10
   2  10   0   20.51    0.57
   2  10   1   36.19    0.74
   2 -10   2    6.58    0.19
   2  10   2    6.68    0.32
   2 -10   3    3.84    0.13
   2  10   3    3.70    0.24
   2 -10   4    0.37    0.05
   2  10   4    0.14    0.06
   2  10   5    4.79    0.26
   2  10   6   -0.05    0.06
   2  10   7   28.33    0.62
  -2  10  -8   10.12    0.34
   2  10   8    9.71    0.37
  -2  10  -9    9.59    0.35
   2  10   9    9.82    0.36
   2  10  10   11.96    0.39
  -2  10 -10   11.69    0.39
   2  10  11    0.06    0.06
  -2  10 -11    0.11    0.06
  -2  10 -12    0.32    0.08
   2  10  12    0.36    0.08
  -2  10 -13    0.76    0.14
  -2  10 -13    0.84    0.13
   2  10  13    0.70    0.10
  -2  10 -14    0.09    0.08
  -2  10 -14    0.09    0.06
   2  10  14    0.22    0.07
  -2  10 -15    2.27    0.23
  -2  10 -15    2.53    0.21
  -2  10 -16    0.07    0.09
  -2  10 -16    0.42    0.12
  -2  10 -17   14.64    0.54
  -2  10 -17   13.49    0.54
  -2  10 -18    3.05    0.26
  -2  10 -18    2.88    0.26
  -2  10 -19    1.59    0.20
  -2  10 -19    1.70    0.21
  -2  10 -20    1.24    0.18
  -2  10 -20    1.12    0.17
  -2  10 -21    1.33    0.19
  -2  10 -21    1.47    0.20
  -2  10 -22    0.71    0.15
  -2  10 -23    0.04    0.10
   2  11 -25    1.00    0.20
   2  11 -24   -0.08    0.11
   2  11 -23    0.48    0.13
   2  11 -23    0.11    0.10
   2  11 -22    0.16    0.09
   2  11 -21    0.37    0.13
   2  11 -20    2.67    0.27
   2  11 -19    0.29    0.12
   2  11 -18    0.49    0.13
   2  11 -17    2.69    0.27
   2  11 -16    0.21    0.10
   2  11 -15    0.18    0.10
   2  11 -14    0.72    0.15
   2  11 -13    7.12    0.41
   2  11 -12    2.31    0.24
   2  11 -11    8.20    0.43
   2  11 -10    1.27    0.17
   2  11  -9    1.44    0.18
   2  11  -8   -0.03    0.08
   2  11  -7    5.48    0.34
   2  11  -6    2.37    0.22
   2  11  -5   17.97    0.24
   2  11  -5   18.36    0.59
   2  11  -5   16.63    0.18
   2  11  -4    1.38    0.18
   2  11  -4    1.10    0.07
   2  11  -4    1.00    0.05
   2  11  -3    8.87    0.21
   2  11  -3    9.55    0.43
   2  11  -3    8.65    0.14
   2  11  -2   13.21    0.18
   2  11  -2   14.01    0.51
   2  11  -1    4.65    0.29
   2  11   0    0.96    0.15
   2  11   1    4.33    0.28
   2  11   2    0.11    0.09
   2  11   3    2.19    0.20
   2  11   4    5.66    0.31
   2  11   5    4.71    0.28
   2  11   6   18.75    0.55
   2  11   7   19.33    0.55
   2  11   8    0.10    0.07
  -2  11  -8    0.15    0.08
  -2  11  -9    0.83    0.11
   2  11   9    0.66    0.11
   2  11  10    0.17    0.07
  -2  11 -10    0.27    0.08
  -2  11 -11    2.18    0.18
   2  11  11    1.88    0.17
  -2  11 -12    0.06    0.09
  -2  11 -12    0.03    0.06
   2  11  12    0.12    0.06
  -2  11 -13    1.16    0.14
   2  11  13    1.13    0.13
  -2  11 -13    1.16    0.17
  -2  11 -14    0.14    0.09
  -2  11 -14    0.23    0.09
  -2  11 -15    0.50    0.13
  -2  11 -15    0.90    0.14
  -2  11 -16    0.74    0.13
  -2  11 -16    0.72    0.14
  -2  11 -17   -0.04    0.09
  -2  11 -17   -0.02    0.08
  -2  11 -18    0.09    0.08
  -2  11 -18    0.12    0.10
  -2  11 -19    0.13    0.09
  -2  11 -19    0.18    0.11
  -2  11 -20   -0.07    0.10
  -2  11 -20    0.14    0.09
  -2  11 -21    4.26    0.33
  -2  11 -21    4.33    0.34
  -2  11 -22    2.52    0.27
  -2  11 -22    3.25    0.30
   2  12 -25    0.12    0.14
   2  12 -24    0.22    0.12
   2  12 -23    0.60    0.16
   2  12 -22    0.08    0.11
   2  12 -21    2.04    0.25
   2  12 -20    0.98    0.20
   2  12 -19    0.10    0.10
   2  12 -18    0.13    0.11
   2  12 -17    0.66    0.16
   2  12 -16    0.98    0.18
   2  12 -15    4.13    0.33
   2  12 -14    6.30    0.41
   2  12 -13    1.48    0.22
   2  12 -12    7.58    0.43
   2  12 -11   -0.07    0.09
   2  12 -10    1.53    0.21
   2  12  -9    7.87    0.43
   2  12  -8    1.03    0.17
   2  12  -7    1.22    0.17
   2  12  -6    0.09    0.07
   2  12  -5   14.49    0.21
   2  12  -5   15.25    0.57
   2  12  -4    2.86    0.26
   2  12  -4    2.27    0.08
   2  12  -3   20.58    0.23
   2  12  -3   21.25    0.65
   2  12  -2   24.29    0.26
   2  12  -2   24.99    0.71
   2  12  -1   10.79    0.47
   2  12   0    0.10    0.09
   2  12   1   14.29    0.52
   2  12   2    2.39    0.22
   2  12   3    0.12    0.08
   2  12   4   -0.08    0.08
   2  12   5    2.25    0.21
   2  12   6   14.59    0.51
   2  12   7    7.71    0.37
  -2  12  -8    0.07    0.07
   2  12   8    0.10    0.08
  -2  12  -9    3.56    0.22
   2  12   9    3.25    0.24
   2  12  10    2.54    0.21
  -2  12 -10    2.78    0.26
  -2  12 -10    2.88    0.21
  -2  12 -11    0.01    0.10
   2  12  11    0.20    0.08
  -2  12 -11    0.27    0.09
  -2  12 -12    0.10    0.10
  -2  12 -12    0.15    0.07
   2  12  12    0.21    0.08
  -2  12 -13    0.08    0.08
  -2  12 -13   -0.09    0.07
   2  12  13   -0.01    0.06
  -2  12 -14   -0.14    0.08
  -2  12 -14    0.10    0.08
  -2  12 -15    1.75    0.23
  -2  12 -15    1.68    0.19
  -2  12 -16    3.88    0.28
  -2  12 -16    3.70    0.33
  -2  12 -17    1.30    0.19
  -2  12 -17    1.09    0.20
  -2  12 -18    0.25    0.10
  -2  12 -18    0.35    0.12
  -2  12 -19    0.35    0.11
  -2  12 -19    0.21    0.12
  -2  12 -20   -0.13    0.11
  -2  12 -20    0.29    0.13
  -2  12 -21    0.45    0.13
  -2  12 -21    0.75    0.17
  -2  12 -22    0.04    0.10
   2  13 -22    0.24    0.13
   2  13 -21    0.41    0.15
   2  13 -20    1.44    0.22
   2  13 -19    0.44    0.15
   2  13 -18    1.15    0.21
   2  13 -17    1.30    0.22
   2  13 -16    0.37    0.13
   2  13 -15    0.70    0.16
   2  13 -14    0.41    0.15
   2  13 -13    3.47    0.32
   2  13 -12    4.82    0.37
   2  13 -11    5.70    0.39
   2  13 -10    5.22    0.37
   2  13  -9    2.81    0.27
   2  13  -8    0.10    0.10
   2  13  -7    0.00    0.08
   2  13  -6   -0.09    0.10
   2  13  -5    4.40    0.32
   2  13  -4    0.25    0.09
   2  13  -3    4.92    0.34
   2  13  -2    8.40    0.43
   2  13  -1    2.13    0.23
   2  13   0    4.54    0.32
   2  13   1    3.71    0.29
   2  13   2    1.19    0.17
   2  13   3    2.75    0.24
   2  13   4    0.99    0.16
   2  13   5    0.22    0.09
   2  13   6    0.03    0.07
   2  13   7    0.25    0.10
  -2  13  -8    1.27    0.14
  -2  13  -8    1.41    0.21
   2  13   8    1.01    0.15
  -2  13  -9    2.16    0.24
  -2  13  -9    2.42    0.19
   2  13   9    2.37    0.22
   2  13  10    0.10    0.07
  -2  13 -10   -0.01    0.11
  -2  13 -10    0.05    0.06
  -2  13 -11    0.60    0.14
   2  13  11    0.55    0.12
  -2  13 -11    0.69    0.12
   2  13  12    2.93    0.23
  -2  13 -12    2.72    0.28
  -2  13 -12    3.53    0.25
  -2  13 -13    6.03    0.41
  -2  13 -13    6.37    0.34
  -2  13 -14    9.99    0.52
  -2  13 -14    9.29    0.41
  -2  13 -15    2.19    0.27
  -2  13 -15    2.30    0.22
  -2  13 -16    2.47    0.24
  -2  13 -16    1.90    0.25
  -2  13 -17    0.55    0.14
  -2  13 -17    0.69    0.17
  -2  13 -18    0.10    0.10
  -2  13 -18    0.03    0.10
  -2  13 -19    0.38    0.11
  -2  13 -19    0.49    0.14
  -2  13 -20    0.80    0.17
  -2  13 -20    0.87    0.19
  -2  13 -21    2.04    0.26
  -2  13 -22    0.83    0.19
   2  14 -19    0.15    0.11
   2  14 -18    0.08    0.10
   2  14 -17    0.04    0.10
   2  14 -16    0.52    0.18
   2  14 -15    2.81    0.30
  -2  14  14    0.50    0.13
   2  14 -14    0.51    0.15
  -2  14  13    1.97    0.22
   2  14 -13    1.77    0.24
   2  14 -12    4.95    0.39
   2  14 -11    0.83    0.18
   2  14 -10    3.93    0.34
   2  14  -9    2.82    0.29
   2  14  -8    5.35    0.39
   2  14  -7    6.53    0.42
   2  14  -6    0.24    0.11
   2  14  -5    0.20    0.10
   2  14  -4    0.39    0.12
   2  14  -3    1.41    0.20
   2  14  -2    0.20    0.11
   2  14  -1   12.98    0.56
   2  14   0    0.00    0.09
   2  14   1    0.61    0.14
   2  14   2    0.39    0.10
   2  14   3    3.33    0.28
   2  14   4    6.94    0.40
   2  14   5    0.05    0.09
  -2  14  -6    0.74    0.18
   2  14   6    0.55    0.12
   2  14   7    4.85    0.32
  -2  14  -7    4.79    0.26
  -2  14  -7    4.75    0.37
   2  14   8    1.13    0.17
  -2  14  -8    1.17    0.14
  -2  14  -8    0.96    0.18
  -2  14  -9    6.06    0.31
   2  14   9    6.16    0.37
  -2  14  -9    6.05    0.41
  -2  14 -10    1.71    0.23
  -2  14 -10    1.80    0.18
   2  14  10    1.66    0.20
  -2  14 -11    3.09    0.23
   2  14  11    3.35    0.27
  -2  14 -11    3.30    0.32
  -2  14 -12    0.83    0.13
  -2  14 -12    0.85    0.18
  -2  14 -13    2.85    0.24
  -2  14 -13    2.17    0.27
  -2  14 -14    0.34    0.11
  -2  14 -14    0.20    0.10
  -2  14 -15    2.71    0.24
  -2  14 -15    2.47    0.30
  -2  14 -16    3.06    0.32
  -2  14 -17    4.67    0.39
  -2  14 -18    1.07    0.20
  -2  14 -19    0.32    0.13
   2  15 -16    4.03    0.38
   2  15 -15    0.19    0.13
   2  15 -14    0.58    0.19
   2  15 -13    5.05    0.41
  -2  15  13    4.34    0.32
   2  15 -12    5.18    0.42
  -2  15  12    5.49    0.36
   2  15 -11    3.89    0.37
  -2  15  11    3.89    0.32
   2  15 -10    4.58    0.39
  -2  15  10    5.27    0.36
  -2  15   9    0.16    0.09
   2  15  -9    0.11    0.11
  -2  15   8    0.05    0.09
   2  15  -8    0.20    0.11
   2  15  -7   -0.08    0.10
   2  15  -6    0.80    0.17
   2  15  -5    0.04    0.10
   2  15  -4    0.79    0.16
   2  15  -3    0.07    0.11
   2  15  -2    1.96    0.25
   2  15  -1    1.16    0.19
   2  15   0    0.70    0.16
  -2  15  -1    0.17    0.12
   2  15   1    0.04    0.11
  -2  15  -2    1.22    0.20
   2  15   2    1.08    0.17
  -2  15  -3    1.32    0.21
   2  15   3    1.36    0.20
   2  15   4    5.81    0.38
  -2  15  -4    5.96    0.42
   2  15   5    4.28    0.34
  -2  15  -5    4.06    0.35
  -2  15  -6    5.57    0.41
   2  15   6    5.03    0.35
  -2  15  -7    0.08    0.12
  -2  15  -7    0.11    0.08
   2  15   7    0.00    0.09
  -2  15  -8    1.36    0.22
  -2  15  -8    1.15    0.15
   2  15   8    1.04    0.17
  -2  15  -9    0.69    0.18
   2  15   9    0.40    0.12
  -2  15  -9    0.50    0.11
  -2  15 -10    1.38    0.24
   2  15  10    1.51    0.20
  -2  15 -11    0.35    0.15
  -2  15 -12    3.10    0.33
  -2  15 -13    3.01    0.33
  -2  15 -14    5.82    0.44
  -2  15 -15    2.35    0.31
  -2  15 -16    0.89    0.22
  -2  16  12    0.55    0.16
   2  16 -12    0.74    0.20
  -2  16  11    0.00    0.09
   2  16 -11    0.06    0.10
  -2  16  10   -0.02    0.10
   2  16 -10   -0.04    0.11
  -2  16   9    1.18    0.20
   2  16  -9    0.57    0.17
  -2  16   8    1.34    0.21
   2  16  -8    1.22    0.20
   2  16  -7    3.30    0.33
  -2  16   7    4.15    0.34
  -2  16   6    1.36    0.22
   2  16  -6    1.23    0.23
  -2  16   5    0.26    0.12
   2  16  -5    0.22    0.11
  -2  16   4    0.02    0.10
   2  16  -4    0.00    0.10
  -2  16   3    0.71    0.18
   2  16  -3    0.58    0.15
  -2  16   2    0.37    0.14
   2  16  -2    0.10    0.10
  -2  16   1    0.55    0.17
   2  16  -1    0.32    0.13
  -2  16   0    2.44    0.28
   2  16   0    2.56    0.28
  -2  16  -1    0.84    0.18
   2  16   1    0.79    0.16
  -2  16  -2    0.00    0.11
   2  16   2    0.05    0.10
  -2  16  -3    1.68    0.24
   2  16   3    1.35    0.21
  -2  16  -4    1.92    0.26
   2  16   4    1.75    0.23
  -2  16  -5    0.65    0.17
   2  16   5    0.33    0.11
  -2  16  -6    0.64    0.17
   2  16   6    0.48    0.13
  -2  16  -7    0.41    0.15
   2  16   7    0.28    0.12
  -2  16  -8    0.64    0.18
   2  16   8    0.81    0.17
   2  16   9    5.38    0.38
  -2  16  -9    5.21    0.42
   2  16  10    1.17    0.19
  -2  16 -10    1.11    0.23
  -2  16 -11    2.43    0.30
  -2  17  11    0.16    0.12
  -2  17  10    1.54    0.22
  -2  17   9    0.29    0.15
  -2  17   8    0.52    0.16
  -2  17   7    0.52    0.15
   2  17  -7    0.47    0.17
  -2  17   6    0.65    0.17
   2  17  -6    1.10    0.23
  -2  17   5    0.62    0.17
   2  17  -5    0.84    0.19
  -2  17   4    2.63    0.30
   2  17  -4    2.94    0.33
  -2  17   3    0.09    0.12
   2  17  -3    0.03    0.10
  -2  17   2   -0.03    0.10
   2  17  -2    0.14    0.13
  -2  17   1    1.76    0.25
   2  17  -1    2.34    0.28
  -2  17   0    0.24    0.12
   2  17   0    0.12    0.10
  -2  17  -1    0.39    0.15
   2  17   1    0.15    0.10
  -2  17  -2    0.63    0.17
   2  17   2    0.97    0.20
  -2  17  -3    0.09    0.13
   2  17   3    0.26    0.13
   2  17   4    3.78    0.34
  -2  17  -4    3.65    0.37
  -2  17  -5    1.21    0.22
   2  17   5    1.63    0.24
  -2  17  -6    2.22    0.29
   2  17   6    2.83    0.30
   2  17   7    0.11    0.12
   2  17   8    0.38    0.14
   2  17   9    0.14    0.11
  -2  18  10    0.10    0.13
  -2  18   9    0.14    0.13
  -2  18   8    0.82    0.18
  -2  18   7    0.19    0.13
  -2  18   6    0.37    0.15
  -2  18   5    0.12    0.12
  -2  18   4    0.88    0.20
  -2  18   3    0.37    0.15
  -2  18   2   -0.29    0.17
  -2  18   1    0.89    0.20
   2  18  -1    0.85    0.20
   2  18   0    3.04    0.34
   2  18   1    5.64    0.44
   2  18   2    1.63    0.25
   2  18   3    1.06    0.21
   2  18   4    2.17    0.27
   2  18   5    0.08    0.12
   2  18   6    0.27    0.13
   2  18   7    0.87    0.20
   2  18   8    0.13    0.13
   3   0 -29    0.66    0.19
   3   0 -28    0.26    0.15
   3   0 -27    0.74    0.19
   3   0 -26   -0.10    0.12
   3   0 -25    2.18    0.26
   3   0 -24   -0.20    0.13
   3   0 -23    0.03    0.12
   3   0 -22    0.06    0.05
   3   0 -22   -0.17    0.14
   3   0 -21    0.48    0.13
   3   0 -21    0.59    0.09
   3   0 -20    0.15    0.11
   3   0 -20   -0.01    0.06
   3   0 -19   32.19    0.59
   3   0 -19   33.89    0.84
  -3   0  19   32.09    0.57
   3   0 -18    0.05    0.07
   3   0 -18    0.09    0.10
  -3   0  18    0.03    0.05
   3   0 -17    4.53    0.29
   3   0 -17    4.47    0.27
  -3   0  17    4.41    0.21
   3   0 -17    4.41    0.22
   3   0 -16    0.00    0.05
   3   0 -16    0.08    0.08
  -3   0  16    0.01    0.04
   3   0 -16    0.12    0.08
   3   0 -15    6.10    0.29
   3   0 -15    6.14    0.25
  -3   0  15    6.48    0.25
   3   0 -15    5.87    0.31
   3   0 -14    0.09    0.08
  -3   0  14   -0.03    0.04
   3   0 -14    0.02    0.05
   3   0 -14   -0.03    0.07
   3   0 -13   40.32    0.74
   3   0 -13   38.19    0.61
  -3   0  13   39.66    0.59
   3   0 -13   39.13    0.69
   3   0 -12    0.02    0.05
   3   0 -12    0.12    0.07
  -3   0  12   -0.01    0.03
   3   0 -12    0.06    0.05
   3   0 -11   22.19    0.51
   3   0 -11   22.10    0.45
  -3   0  11   23.15    0.44
   3   0 -11   22.56    0.50
   3   0 -10    0.02    0.06
  -3   0  10    0.03    0.05
   3   0 -10    0.03    0.05
   3   0 -10    0.07    0.06
  -3   0  10   -0.02    0.03
  -3   0   9   50.91    0.69
  -3   0   9   51.65    0.65
   3   0  -9   51.15    0.67
   3   0  -9   51.64    0.69
   3   0  -8    0.02    0.05
   3   0  -8    0.01    0.05
  -3   0   8    0.00    0.03
  -3   0   8   -0.03    0.03
   3   0  -7    0.00    0.04
  -3   0   7   -0.02    0.04
  -3   0   7    0.04    0.03
   3   0  -7    0.02    0.03
   3   0  -6    0.04    0.03
   3   0  -6    0.01    0.04
  -3   0   6   -0.02    0.03
  -3   0   6    0.01    0.03
   3   0  -5   14.57    0.34
  -3   0   5   13.79    0.33
   3   0  -5   14.02    0.27
  -3   0   5   14.01    0.27
  -3   0   4    0.02    0.03
   3   0  -4   -0.01    0.02
  -3   0   4   -0.04    0.02
   3   0  -4    0.00    0.04
   3   0  -3   39.93    0.55
  -3   0   3   38.68    0.54
  -3   0   3   40.49    0.37
   3   0  -3   39.03    0.36
  -3   0   2    0.00    0.02
  -3   0   2    0.03    0.04
   3   0  -2   -0.02    0.04
   3   0  -1   54.39    0.64
  -3   0   1   53.65    0.62
   3   0   0    0.01    0.04
  -3   0   0    0.08    0.04
   3   0   1  128.01    0.97
  -3   0  -1  129.83    0.96
   3   0   2   -0.01    0.04
  -3   0  -2   -0.01    0.01
  -3   0  -2   -0.06    0.05
  -3   0  -3   72.42    0.71
  -3   0  -3   71.99    0.43
   3   0   3   71.70    0.71
   3   0   4   -0.05    0.05
  -3   0  -4   -0.01    0.03
  -3   0  -4    0.02    0.02
  -3   0  -5   50.04    0.58
   3   0   5   50.49    0.58
  -3   0  -5   48.72    0.47
  -3   0  -5   50.45    0.57
  -3   0  -6    0.01    0.04
   3   0   6    0.00    0.03
  -3   0  -6   -0.04    0.04
  -3   0  -6    0.02    0.04
  -3   0  -7   63.05    0.65
  -3   0  -7   61.40    0.63
  -3   0  -7   62.51    0.70
  -3   0  -8    0.01    0.03
  -3   0  -8    0.02    0.04
  -3   0  -8   -0.04    0.04
  -3   0  -9    2.80    0.14
  -3   0  -9    3.17    0.17
  -3   0  -9    3.01    0.17
  -3   0 -10    0.02    0.04
  -3   0 -10    0.00    0.03
  -3   0 -10   -0.04    0.06
  -3   0 -11   14.91    0.31
  -3   0 -11   15.07    0.40
  -3   0 -11   14.97    0.41
  -3   0 -12    0.16    0.09
  -3   0 -12    0.11    0.05
  -3   0 -12    0.18    0.09
  -3   0 -13   68.97    0.95
  -3   0 -13   66.94    0.92
  -3   0 -13   65.57    0.63
  -3   0 -14    0.21    0.10
  -3   0 -14    0.10    0.05
  -3   0 -14    0.28    0.11
  -3   0 -15   29.26    0.67
  -3   0 -15   30.11    0.68
  -3   0 -15   28.16    0.39
  -3   0 -16    0.08    0.04
  -3   0 -16    0.01    0.08
  -3   0 -16    0.12    0.09
  -3   0 -17    0.10    0.03
  -3   0 -17    0.16    0.09
  -3   0 -18   -0.18    0.11
  -3   0 -18    0.03    0.02
  -3   0 -19    2.70    0.24
  -3   0 -20    0.04    0.09
  -3   0 -21    0.07    0.09
  -3   0 -22    0.01    0.09
  -3   0 -23    0.34    0.13
  -3   0 -24    0.05    0.09
  -3   0 -25    0.47    0.15
  -3   0 -26    0.12    0.11
  -3   0 -27   -0.09    0.12
  -3   0 -28    0.22    0.14
   3   1 -29    0.36    0.16
   3  -1 -29    0.25    0.17
   3  -1 -28    1.97    0.28
   3   1 -28    1.82    0.27
   3   1 -27    0.12    0.14
   3  -1 -27    0.25    0.13
   3   1 -26    0.12    0.12
   3  -1 -26    0.02    0.10
   3   1 -25    0.00    0.11
   3  -1 -25   -0.01    0.10
   3  -1 -24    6.31    0.42
   3   1 -24    5.70    0.41
   3  -1 -23    0.73    0.16
   3   1 -23    0.78    0.18
   3   1 -22    9.98    0.50
   3   1 -22   10.35    0.36
   3  -1 -22    9.74    0.50
   3   1 -21    3.75    0.22
   3  -1 -21    3.80    0.20
   3  -1 -21    4.00    0.32
   3   1 -21    3.72    0.31
   3  -1 -20   14.41    0.38
   3   1 -20   13.99    0.41
   3   1 -20   15.43    0.59
   3  -1 -20   15.19    0.58
   3  -1 -19    3.23    0.18
   3   1 -19    3.38    0.20
   3  -1 -19    3.17    0.26
   3   1 -19    3.68    0.29
   3  -1 -18    5.65    0.34
   3   1 -18    5.68    0.26
   3  -1 -18    5.82    0.25
  -3   1  18    5.67    0.23
   3   1 -18    5.98    0.35
   3  -1 -17    0.70    0.14
   3   1 -17    0.72    0.13
   3   1 -17    0.71    0.10
  -3   1  17    0.77    0.09
   3  -1 -17    0.86    0.10
   3   1 -17    0.58    0.12
   3  -1 -17    0.99    0.14
   3   1 -16    9.44    0.36
   3  -1 -16    9.47    0.38
   3  -1 -16   10.10    0.42
   3   1 -16    8.88    0.40
  -3   1  16    9.02    0.29
   3  -1 -16    8.92    0.30
  -3  -1  16    8.52    0.30
   3   1 -16    9.12    0.32
   3  -1 -15    2.64    0.20
   3  -1 -15    2.54    0.17
  -3   1  15    2.34    0.15
   3  -1 -15    2.75    0.22
  -3  -1  15    2.58    0.16
   3   1 -15    2.51    0.17
   3   1 -15    2.53    0.21
   3   1 -15    2.55    0.19
   3   1 -14   38.60    0.64
   3   1 -14   38.77    0.75
  -3  -1  14   38.19    0.61
  -3   1  14   38.95    0.58
   3  -1 -14   37.68    0.75
   3   1 -14   39.28    0.69
   3  -1 -14   38.37    0.61
   3  -1 -14   38.67    0.72
   3  -1 -13    1.92    0.18
   3   1 -13    2.34    0.19
  -3  -1  13    2.19    0.15
   3  -1 -13    2.03    0.14
   3   1 -13    2.13    0.16
  -3   1  13    2.07    0.14
   3   1 -13    2.37    0.17
   3  -1 -13    2.24    0.18
  -3   1  12   11.44    0.31
   3   1 -12   11.51    0.38
   3  -1 -12   11.44    0.33
   3   1 -12   11.48    0.34
  -3  -1  12   11.81    0.33
   3  -1 -12   11.39    0.38
   3   1 -12   10.81    0.35
   3  -1 -12   11.49    0.37
   3   1 -11    0.10    0.05
   3  -1 -11    0.15    0.05
   3   1 -11    0.10    0.05
   3   1 -11    0.13    0.04
   3  -1 -11    0.07    0.05
   3  -1 -11   -0.02    0.07
  -3   1  11    0.02    0.04
  -3  -1  11    0.05    0.04
   3   1 -10    2.94    0.17
   3  -1 -10    2.75    0.17
   3   1 -10    2.95    0.18
  -3  -1  10    2.83    0.16
  -3   1  10    2.79    0.15
  -3   1  10    3.01    0.18
   3  -1 -10    2.98    0.17
   3   1 -10    2.78    0.17
   3  -1 -10    2.53    0.17
   3  -1  -9   13.31    0.36
  -3   1   9   13.30    0.36
  -3   1   9   13.39    0.34
   3   1  -9   12.98    0.34
   3  -1  -9   13.65    0.35
   3   1  -9   13.28    0.35
  -3  -1   9   13.24    0.34
   3  -1  -9   13.40    0.37
   3  -1  -8    0.16    0.06
  -3   1   8    0.12    0.05
   3  -1  -8    0.16    0.05
  -3   1   8    0.14    0.04
   3   1  -8    0.12    0.05
   3   1  -8    0.15    0.05
   3   1  -7   19.42    0.41
  -3   1   7   19.13    0.38
   3  -1  -7   18.02    0.37
  -3   1   7   18.24    0.39
   3  -1  -7   18.40    0.40
   3   1  -7   18.42    0.37
  -3  -1   7   18.54    0.39
  -3  -1   6   13.23    0.32
   3  -1  -6   12.97    0.33
   3   1  -6   12.78    0.28
  -3   1   6   13.65    0.30
   3   1  -6   12.83    0.33
  -3   1   6   13.13    0.33
   3   1  -5   19.21    0.40
  -3   1   5   18.74    0.39
   3   1  -5   18.33    0.31
   3  -1  -5   19.24    0.40
  -3  -1   5   19.01    0.38
  -3   1   5   19.15    0.33
  -3   1   4    0.04    0.04
   3   1  -4    0.07    0.05
  -3   1   4    0.06    0.03
   3   1  -4    0.07    0.03
  -3  -1   4    0.08    0.04
   3  -1  -4    0.02    0.04
   3  -1  -3    1.46    0.12
  -3   1   3    1.64    0.12
   3   1  -3    1.53    0.11
  -3   1   3    1.62    0.08
  -3  -1   3    1.51    0.11
   3   1  -3    1.60    0.07
   3  -1  -2    7.42    0.24
   3   1  -2    7.80    0.13
  -3  -1   2    7.67    0.24
   3   1  -2    7.69    0.24
  -3   1   2    7.89    0.25
   3  -1  -1    5.05    0.20
  -3   1   1    4.59    0.19
   3   1  -1    4.89    0.19
  -3  -1   1    4.68    0.19
   3   1   0   39.43    0.53
  -3   1   0   40.28    0.55
  -3  -1   0   39.32    0.52
   3  -1   0   38.99    0.55
  -3   1  -1   13.61    0.32
   3  -1   1   13.36    0.32
   3   1   1   13.38    0.31
  -3  -1  -1   13.39    0.31
  -3   1  -2  328.70    1.59
   3   1   2  322.21    1.51
  -3  -1  -2  329.00    1.48
   3  -1   2  322.05    1.55
   3  -1   3   79.53    0.77
  -3  -1  -3   80.16    0.72
   3   1   3   78.88    0.74
  -3  -1  -3   79.02    0.63
  -3   1  -3   80.31    0.78
  -3  -1  -4   82.08    0.68
   3   1   4   84.26    0.76
  -3  -1  -4   83.14    0.53
  -3  -1  -4   84.98    0.74
  -3   1  -4   84.46    0.80
  -3   1  -5   74.28    0.75
   3   1   5   74.49    0.70
  -3  -1  -5   74.43    0.69
  -3  -1  -5   73.30    0.57
  -3   1  -5   71.87    0.69
  -3  -1  -5   72.84    0.67
  -3   1  -6    1.65    0.12
  -3  -1  -6    1.46    0.09
   3   1   6    1.62    0.10
  -3  -1  -6    1.83    0.11
  -3   1  -6    1.75    0.12
  -3  -1  -6    1.80    0.12
  -3   1  -7    0.41    0.07
  -3   1  -7    0.48    0.07
  -3  -1  -7    0.49    0.06
   3   1   7    0.46    0.07
  -3  -1  -7    0.34    0.07
  -3  -1  -7    0.30    0.06
   3   1   7    0.26    0.05
  -3   1  -7    0.33    0.06
  -3  -1  -8   70.16    0.77
   3   1   8   70.20    0.76
  -3   1  -8   69.29    0.74
  -3   1  -8   69.07    0.72
  -3  -1  -8   69.15    0.64
  -3  -1  -8   68.89    0.72
  -3   1  -8   69.20    0.79
   3   1   8   68.97    0.65
  -3  -1  -9   12.99    0.33
  -3   1  -9   13.14    0.32
  -3  -1  -9   12.58    0.27
  -3   1  -9   12.95    0.35
  -3  -1  -9   13.47    0.36
  -3   1  -9   12.86    0.35
  -3   1 -10   53.09    0.63
  -3   1 -10   51.84    0.72
  -3  -1 -10   53.05    0.54
  -3  -1 -10   55.62    0.76
  -3  -1 -10   52.67    0.70
  -3   1 -10   54.68    0.75
  -3   1 -11    6.34    0.27
  -3  -1 -11    6.61    0.19
  -3  -1 -11    6.76    0.27
  -3   1 -11    6.72    0.23
  -3   1 -11    6.43    0.27
  -3  -1 -11    6.95    0.29
  -3   1 -12   12.49    0.40
  -3  -1 -12   11.47    0.37
  -3   1 -12   11.57    0.37
  -3   1 -12   12.27    0.31
  -3  -1 -12   11.83    0.39
  -3  -1 -12   11.88    0.24
  -3  -1 -13    7.58    0.31
  -3   1 -13    7.49    0.32
  -3   1 -13    7.41    0.31
  -3  -1 -13    7.41    0.19
  -3   1 -13    7.23    0.23
  -3  -1 -13    7.75    0.33
  -3  -1 -14    0.34    0.04
  -3   1 -14    0.44    0.07
  -3  -1 -14    0.44    0.10
  -3   1 -14    0.49    0.10
  -3   1 -14    0.38    0.10
  -3  -1 -14    0.26    0.09
  -3  -1 -15    3.66    0.24
  -3   1 -15    3.85    0.17
  -3   1 -15    3.70    0.25
  -3   1 -15    3.69    0.25
  -3  -1 -15    3.61    0.12
  -3  -1 -16    7.85    0.16
  -3   1 -16    8.52    0.25
  -3  -1 -16    8.56    0.38
  -3   1 -16    9.30    0.40
  -3   1 -16    9.01    0.39
  -3   1 -17    0.03    0.04
  -3  -1 -17    0.17    0.09
  -3   1 -17    0.04    0.08
  -3   1 -17    0.01    0.07
  -3  -1 -18    2.04    0.21
  -3   1 -18    1.94    0.20
  -3   1 -18    2.14    0.11
  -3  -1 -19    0.38    0.11
  -3   1 -19    0.22    0.09
  -3   1 -19    0.38    0.05
  -3  -1 -20    0.40    0.12
  -3   1 -20    0.35    0.10
  -3  -1 -21    0.19    0.11
  -3   1 -21    0.25    0.08
  -3   1 -22    1.30    0.19
  -3  -1 -22    1.14    0.19
  -3  -1 -23    0.92    0.17
  -3   1 -23    0.71    0.15
  -3  -1 -24    3.12    0.30
  -3   1 -24    2.85    0.29
  -3  -1 -25    0.89    0.17
  -3   1 -25    0.94    0.18
  -3  -1 -26    1.16    0.20
  -3   1 -26    1.19    0.20
  -3  -1 -27    0.49    0.17
  -3   1 -27    0.37    0.15
  -3   1 -28    3.57    0.36
  -3  -1 -28    3.51    0.36
   3   2 -28    0.10    0.12
   3   2 -27    1.49    0.24
   3   2 -26    0.26    0.14
   3  -2 -26    0.12    0.12
   3   2 -25    4.93    0.39
   3  -2 -25    4.61    0.37
   3  -2 -24    0.43    0.16
   3   2 -24    0.31    0.14
   3   2 -23    0.86    0.17
   3   2 -23    0.93    0.12
   3  -2 -23    1.19    0.22
   3  -2 -22   11.03    0.53
   3   2 -22   11.19    0.39
   3   2 -22   11.66    0.55
   3   2 -21    2.06    0.24
   3   2 -21    2.05    0.17
   3  -2 -21    1.90    0.23
   3   2 -20    0.12    0.07
   3  -2 -20    0.01    0.11
   3   2 -20    0.19    0.11
   3  -2 -19    5.33    0.22
   3   2 -19    5.02    0.34
   3   2 -19    4.96    0.26
   3  -2 -19    5.24    0.34
   3  -2 -18    0.08    0.05
   3   2 -18    0.14    0.06
   3   2 -18    0.05    0.09
  -3   2  18    0.03    0.05
   3  -2 -18    0.11    0.08
   3  -2 -17    3.33    0.26
   3  -2 -17    3.34    0.25
   3   2 -17    3.19    0.22
   3   2 -17    2.85    0.25
   3  -2 -17    2.97    0.17
  -3   2  17    3.41    0.18
   3   2 -17    3.14    0.20
   3   2 -16    2.85    0.20
   3  -2 -16    2.87    0.17
   3  -2 -16    2.70    0.21
   3   2 -16    2.72    0.18
  -3   2  16    2.67    0.16
   3   2 -16    3.12    0.24
   3  -2 -16    2.87    0.23
   3   2 -15    0.57    0.11
   3  -2 -15    0.74    0.09
   3   2 -15    0.71    0.11
   3  -2 -15    0.60    0.13
   3  -2 -15    0.68    0.13
   3   2 -15    0.73    0.11
  -3   2  15    0.64    0.08
   3  -2 -14   19.50    0.54
   3   2 -14   19.44    0.54
   3  -2 -14   18.49    0.42
  -3   2  14   19.22    0.41
   3   2 -14   19.70    0.47
   3   2 -14   18.95    0.47
   3  -2 -14   18.59    0.52
   3   2 -13    7.41    0.33
  -3   2  13    7.82    0.26
   3   2 -13    7.48    0.29
   3  -2 -13    7.50    0.33
  -3  -2  13    7.54    0.28
   3  -2 -13    7.17    0.26
   3   2 -13    7.38    0.29
   3  -2 -13    7.65    0.32
   3  -2 -12   22.70    0.46
   3  -2 -12   23.20    0.55
  -3   2  12   22.60    0.45
   3   2 -12   23.38    0.55
  -3  -2  12   23.07    0.48
   3   2 -12   22.98    0.49
   3   2 -12   23.04    0.49
   3  -2 -12   22.76    0.54
   3  -2 -11   83.39    0.99
  -3  -2  11   83.55    0.90
   3   2 -11   81.45    0.98
   3   2 -11   80.81    0.90
   3  -2 -11   80.50    0.85
  -3   2  11   81.20    0.84
   3   2 -11   81.98    0.90
   3  -2 -11   81.11    0.97
  -3   2  10    3.65    0.21
   3  -2 -10    4.23    0.20
  -3   2  10    3.52    0.18
   3   2 -10    3.88    0.21
   3   2 -10    3.91    0.21
  -3  -2  10    4.16    0.20
   3  -2 -10    4.01    0.22
  -3   2   9    8.93    0.31
  -3   2   9    7.98    0.27
   3   2  -9    8.26    0.28
   3  -2  -9    8.10    0.27
   3   2  -9    8.39    0.28
   3  -2  -9    8.14    0.30
  -3  -2   9    8.67    0.28
   3   2  -8    4.84    0.21
   3  -2  -8    4.77    0.20
  -3  -2   8    4.69    0.20
   3   2  -8    4.71    0.21
  -3   2   8    4.88    0.22
  -3   2   8    4.79    0.20
   3  -2  -7    2.68    0.16
   3   2  -7    2.67    0.14
  -3   2   7    2.74    0.16
  -3   2   7    2.84    0.16
  -3  -2   7    2.81    0.16
   3   2  -7    2.90    0.16
  -3   2   6    0.05    0.03
   3  -2  -6    0.08    0.05
  -3   2   6    0.06    0.04
  -3  -2   6    0.05    0.03
   3   2  -6    0.13    0.05
   3   2  -6    0.02    0.03
   3  -2  -5    0.21    0.06
  -3   2   5    0.17    0.05
  -3   2   5    0.14    0.04
  -3  -2   5    0.18    0.05
   3   2  -5    0.07    0.03
   3   2  -5    0.14    0.05
  -3   2   4    1.95    0.13
   3   2  -4    2.23    0.14
  -3  -2   4    1.99    0.13
   3  -2  -4    2.11    0.14
  -3   2   3    3.35    0.17
   3  -2  -3    3.53    0.17
   3   2  -3    3.45    0.17
  -3  -2   3    3.43    0.16
   3  -2  -2    4.50    0.19
   3   2  -2    4.28    0.18
  -3  -2   2    4.32    0.18
  -3   2   2    4.34    0.19
   3  -2  -1   11.00    0.30
  -3   2   1   10.55    0.30
   3   2  -1   10.63    0.29
  -3  -2   1   11.09    0.29
  -3   2   0   12.34    0.32
   3   2   0   12.40    0.31
  -3  -2   0   12.21    0.29
   3   2   1   24.27    0.42
  -3  -2  -1   24.79    0.41
  -3   2  -1   23.99    0.45
   3   2   2  340.04    0.90
  -3   2  -2  341.30    1.68
   3   2   2  340.43    1.55
  -3  -2  -2  341.73    1.51
  -3  -2  -2  339.18    1.16
  -3   2  -3   16.35    0.37
   3   2   3   15.98    0.22
   3   2   3   16.93    0.35
  -3  -2  -3   16.51    0.33
  -3  -2  -3   16.22    0.28
   3   2   4   16.84    0.26
  -3  -2  -4   16.95    0.33
  -3   2  -4   17.42    0.38
   3   2   4   16.39    0.34
  -3  -2  -4   16.91    0.30
   3   2   5   61.19    0.55
   3   2   5   61.87    0.64
  -3   2  -5   61.83    0.72
  -3  -2  -5   62.36    0.62
  -3  -2  -5   60.19    0.61
  -3  -2  -6   33.44    0.48
  -3  -2  -6   33.98    0.45
   3   2   6   34.01    0.47
  -3   2  -6   33.72    0.53
   3   2   6   32.89    0.44
  -3   2  -6   33.48    0.51
   3   2   6   33.35    0.47
  -3  -2  -7    8.12    0.25
   3   2   7    8.22    0.25
   3   2   7    8.01    0.23
  -3  -2  -7    7.72    0.21
  -3   2  -7    8.06    0.26
   3   2   7    8.08    0.23
  -3   2  -7    8.01    0.26
  -3  -2  -8   11.57    0.25
   3   2   8   11.43    0.26
   3   2   8   12.26    0.31
  -3  -2  -8   11.37    0.32
   3   2   8   11.51    0.30
  -3  -2  -8   10.97    0.29
  -3   2  -8   11.83    0.32
  -3   2  -8   11.60    0.32
   3   2   9    2.30    0.15
  -3  -2  -9    2.06    0.14
   3   2   9    2.02    0.11
  -3  -2  -9    2.18    0.15
  -3   2  -9    1.98    0.14
  -3  -2  -9    1.97    0.10
  -3   2  -9    2.21    0.15
  -3  -2 -10    0.45    0.07
   3   2  10    0.56    0.06
  -3  -2 -10    0.50    0.05
  -3   2 -10    0.70    0.09
   3   2  10    0.52    0.08
  -3  -2 -10    0.84    0.10
  -3   2 -10    0.55    0.08
  -3   2 -10    0.54    0.08
  -3  -2 -11    1.07    0.12
  -3   2 -11    1.14    0.11
  -3  -2 -11    1.03    0.07
  -3   2 -11    1.24    0.13
  -3  -2 -11    1.26    0.13
   3   2  11    1.08    0.11
  -3   2 -11    1.10    0.12
  -3   2 -12    8.79    0.33
  -3   2 -12    9.53    0.29
  -3  -2 -12    9.74    0.35
  -3  -2 -12    8.69    0.32
  -3   2 -12    8.97    0.34
  -3  -2 -12    8.85    0.20
  -3   2 -13    8.82    0.35
  -3   2 -13    8.29    0.34
  -3   2 -13    9.07    0.29
  -3  -2 -13    8.38    0.18
  -3  -2 -13    8.60    0.34
  -3   2 -14   -0.06    0.07
  -3  -2 -14    0.02    0.06
  -3   2 -14   -0.08    0.07
  -3   2 -14    0.02    0.04
  -3  -2 -14    0.01    0.02
  -3   2 -15   -0.05    0.08
  -3  -2 -15   -0.03    0.07
  -3   2 -15   -0.06    0.09
  -3   2 -15    0.01    0.04
  -3  -2 -15    0.03    0.01
  -3   2 -16    0.11    0.05
  -3   2 -16    0.11    0.07
  -3  -2 -16    0.05    0.06
  -3   2 -16   -0.02    0.08
  -3   2 -17    0.17    0.08
  -3  -2 -17    0.23    0.09
  -3   2 -17    0.11    0.08
  -3   2 -17    0.27    0.06
  -3   2 -18    1.31    0.17
  -3  -2 -18    1.47    0.18
  -3   2 -18    1.44    0.18
  -3  -2 -19    0.02    0.07
  -3   2 -19    0.03    0.08
  -3   2 -19    0.06    0.04
  -3  -2 -20    0.98    0.16
  -3   2 -20    0.66    0.14
  -3   2 -21    0.48    0.13
  -3  -2 -21    0.79    0.15
  -3  -2 -22    0.02    0.08
  -3   2 -22   -0.07    0.10
  -3  -2 -23    0.04    0.09
  -3   2 -23    0.08    0.09
  -3  -2 -24    0.09    0.08
  -3   2 -24    0.03    0.11
  -3  -2 -25    0.15    0.11
  -3   2 -25    0.17    0.11
  -3   2 -26    0.72    0.18
  -3  -2 -26    0.45    0.14
  -3   2 -27    0.05    0.11
  -3   2 -28    0.81    0.19
   3   3 -28    0.04    0.11
   3   3 -27    0.19    0.13
   3   3 -26   -0.01    0.11
   3   3 -25    0.57    0.15
   3   3 -24    1.73    0.24
   3   3 -23    0.83    0.13
   3   3 -23    1.05    0.19
   3   3 -22    8.19    0.46
   3   3 -22    7.05    0.33
   3   3 -21    2.05    0.24
   3   3 -21    1.99    0.17
   3   3 -20   -0.03    0.07
   3   3 -20    0.01    0.09
   3   3 -19   14.10    0.56
   3   3 -19   14.01    0.44
   3   3 -18    3.77    0.23
  -3   3  18    3.96    0.19
   3   3 -18    4.37    0.31
   3   3 -17   16.12    0.57
   3   3 -17   16.59    0.47
  -3   3  17   17.16    0.39
   3   3 -17   16.02    0.46
   3  -3 -17   17.19    0.54
   3   3 -16   29.83    0.61
   3  -3 -16   30.20    0.69
   3   3 -16   30.53    0.74
  -3   3  16   30.46    0.52
   3   3 -16   30.33    0.62
   3  -3 -15   14.08    0.47
   3   3 -15   14.15    0.50
  -3   3  15   13.97    0.36
   3   3 -15   13.64    0.41
   3   3 -15   14.16    0.41
   3  -3 -14   98.55    1.19
   3   3 -14   96.28    1.07
   3   3 -14   97.27    1.24
  -3   3  14   93.80    0.93
   3   3 -14   94.86    1.03
  -3   3  13    4.69    0.21
   3   3 -13    5.04    0.25
   3   3 -13    5.06    0.28
   3   3 -13    5.15    0.24
   3  -3 -13    5.05    0.27
  -3   3  12    1.59    0.12
   3   3 -12    1.62    0.14
   3   3 -12    1.48    0.14
   3   3 -12    1.45    0.13
   3  -3 -12    1.71    0.16
  -3   3  11   16.33    0.39
   3   3 -11   15.96    0.39
   3   3 -11   16.38    0.45
   3   3 -11   16.49    0.42
   3  -3 -11   16.46    0.45
  -3  -3  10    1.91    0.14
   3   3 -10    2.18    0.16
   3   3 -10    1.91    0.15
  -3   3  10    1.79    0.13
   3  -3 -10    2.09    0.16
  -3   3   9   11.17    0.32
   3   3  -9   11.23    0.34
   3   3  -9   11.45    0.34
  -3   3   9   11.47    0.36
  -3  -3   9   11.11    0.33
   3  -3  -9   11.58    0.36
  -3   3   8    7.06    0.27
  -3   3   8    7.02    0.26
   3   3  -8    7.54    0.27
  -3  -3   8    7.24    0.26
   3  -3  -8    7.30    0.28
  -3   3   7   11.77    0.33
  -3   3   7   11.60    0.33
  -3  -3   7   11.57    0.33
   3   3  -7   11.70    0.34
  -3   3   6   44.08    0.65
   3   3  -6   42.96    0.63
  -3  -3   6   44.54    0.63
  -3   3   6   43.74    0.61
  -3   3   5    0.08    0.04
   3   3  -5    0.10    0.06
  -3  -3   5    0.05    0.04
   3   3  -4    8.30    0.27
  -3   3   4    8.17    0.27
  -3  -3   4    7.95    0.26
  -3   3   3    1.44    0.12
   3   3  -3    1.49    0.12
  -3  -3   3    1.42    0.11
  -3  -3   2    1.08    0.09
   3   3  -2    0.96    0.09
  -3   3   2    1.08    0.11
  -3   3   1    0.00    0.04
   3   3  -1    0.10    0.04
  -3  -3   1    0.01    0.03
  -3   3   0    7.64    0.27
   3   3   0    8.16    0.26
  -3  -3   0    8.10    0.25
  -3   3  -1    1.46    0.12
   3   3   1    1.43    0.11
  -3  -3  -1    1.58    0.11
  -3  -3  -1    1.45    0.07
  -3  -3  -2    3.20    0.11
   3   3   2    3.04    0.15
  -3  -3  -2    3.09    0.15
  -3   3  -2    3.33    0.18
   3   3   3    1.22    0.10
  -3  -3  -3    1.03    0.09
  -3  -3  -3    1.24    0.08
  -3  -3  -4   16.08    0.29
   3   3   4   15.66    0.28
  -3  -3  -4   16.01    0.32
   3   3   4   15.77    0.34
   3   3   5    4.20    0.16
  -3  -3  -5    4.20    0.16
  -3  -3  -5    4.31    0.17
   3   3   5    4.38    0.16
   3   3   5    4.46    0.18
   3   3   6   11.03    0.27
   3   3   6   11.16    0.28
  -3  -3  -6   11.02    0.28
   3   3   6   10.84    0.27
  -3  -3  -6   10.74    0.26
  -3  -3  -7    1.20    0.09
   3   3   7    1.04    0.09
  -3  -3  -7    1.20    0.10
   3   3   7    1.11    0.09
  -3   3  -7    1.39    0.12
   3   3   7    1.10    0.09
   3   3   8    9.35    0.25
   3   3   8    9.53    0.29
  -3  -3  -8   10.00    0.30
   3   3   8    9.81    0.28
  -3   3  -8    9.61    0.30
  -3  -3  -8    9.60    0.23
   3   3   9    8.34    0.23
  -3  -3  -9    8.11    0.21
  -3  -3  -9    8.79    0.30
   3   3   9    8.43    0.29
  -3   3  -9    8.52    0.29
   3   3  10   42.71    0.50
   3   3  10   43.53    0.68
  -3  -3 -10   43.07    0.46
  -3   3 -10   44.18    0.69
  -3  -3 -11    1.21    0.08
   3   3  11    1.28    0.09
  -3   3 -11    1.31    0.13
  -3  -3 -12   16.76    0.26
  -3   3 -12   17.83    0.48
  -3   3 -13   13.42    0.43
  -3  -3 -13   12.64    0.21
  -3   3 -13   12.73    0.43
  -3   3 -14    4.70    0.27
  -3   3 -14    4.74    0.27
  -3  -3 -14    4.64    0.11
  -3   3 -15    6.37    0.33
  -3   3 -15    6.21    0.32
  -3   3 -16    6.97    0.35
  -3   3 -16    6.74    0.35
  -3   3 -17    2.11    0.16
  -3   3 -17    1.89    0.20
  -3   3 -17    2.05    0.20
  -3   3 -18    2.24    0.23
  -3   3 -18    2.38    0.22
  -3   3 -19    0.05    0.05
  -3   3 -19    0.07    0.09
  -3   3 -19   -0.02    0.09
  -3   3 -20   10.16    0.49
  -3   3 -20   11.31    0.50
  -3   3 -20   10.63    0.31
  -3   3 -21    0.38    0.13
  -3   3 -22    0.03    0.09
  -3   3 -23    0.24    0.12
  -3   3 -24    0.35    0.13
  -3   3 -25    0.02    0.10
  -3   3 -26    1.98    0.27
  -3   3 -27   -0.05    0.11
  -3   3 -28    0.31    0.15
   3   4 -28    0.00    0.11
   3   4 -27    2.75    0.31
   3   4 -26   -0.01    0.12
   3   4 -25    0.42    0.13
   3   4 -24    0.39    0.14
   3   4 -23    0.42    0.09
   3   4 -23    0.48    0.15
   3   4 -22    4.54    0.27
   3   4 -22    3.89    0.34
   3   4 -21    3.27    0.29
   3   4 -21    2.75    0.22
   3   4 -20    2.32    0.24
   3   4 -20    2.22    0.19
   3   4 -19    0.26    0.09
   3   4 -19    0.43    0.13
   3   4 -18    0.69    0.16
   3   4 -18    0.60    0.11
   3   4 -17   13.70    0.41
   3   4 -17   13.55    0.52
  -3   4  17   13.62    0.35
   3   4 -17   13.09    0.43
   3   4 -16    0.63    0.11
   3   4 -16    0.28    0.07
  -3   4  16    0.32    0.07
   3   4 -16    0.33    0.10
   3  -4 -16    0.44    0.11
   3   4 -15    0.71    0.12
   3   4 -15    0.77    0.11
   3  -4 -15    0.64    0.12
  -3   4  15    0.66    0.09
   3   4 -15    0.64    0.11
   3   4 -14    0.33    0.08
   3   4 -14    0.49    0.09
   3  -4 -14    0.63    0.12
   3   4 -14    0.51    0.11
  -3   4  14    0.35    0.06
   3   4 -13    0.19    0.06
   3  -4 -13    0.26    0.10
   3   4 -13    0.11    0.07
   3   4 -13    0.11    0.06
  -3   4  13    0.22    0.06
  -3   4  12   25.92    0.51
   3   4 -12   25.23    0.56
   3   4 -12   25.91    0.59
  -3  -4  12   26.05    0.47
   3   4 -12   25.99    0.50
   3  -4 -12   27.00    0.61
   3   4 -11    5.87    0.27
   3   4 -11    5.76    0.23
  -3  -4  11    5.88    0.22
  -3   4  11    5.94    0.25
   3  -4 -11    5.77    0.28
  -3   4  10    0.08    0.05
   3  -4 -10    0.07    0.06
   3   4 -10    0.15    0.07
  -3   4   9   23.92    0.50
   3   4  -9   24.56    0.53
   3  -4  -9   25.05    0.54
  -3   4   8    7.08    0.27
  -3   4   8    7.54    0.29
   3   4  -8    7.24    0.28
   3  -4  -8    7.77    0.29
  -3   4   7    3.97    0.20
   3   4  -7    4.38    0.21
   3  -4  -7    4.14    0.21
  -3   4   6   27.04    0.52
   3   4  -6   26.89    0.52
  -3  -4   6   27.01    0.52
  -3   4   5   26.67    0.52
   3   4  -5   27.60    0.52
  -3  -4   5   27.17    0.51
  -3   4   4    0.96    0.11
   3   4  -4    1.16    0.12
  -3  -4   4    1.01    0.10
  -3   4   3   48.76    0.71
   3   4  -3   48.12    0.67
  -3  -4   3   49.08    0.67
   3   4  -2   17.34    0.39
  -3  -4   2   17.91    0.40
  -3   4   2   17.19    0.42
  -3  -4   1   59.67    0.31
  -3  -4   1   60.12    0.71
   3   4  -1   59.10    0.72
   3   4   0   15.06    0.36
  -3  -4   0   15.63    0.36
  -3  -4   0   15.31    0.18
  -3  -4  -1   11.09    0.18
   3   4   1   11.64    0.31
  -3  -4  -1   11.56    0.31
   3   4   2   12.11    0.32
  -3  -4  -2   12.18    0.21
  -3  -4  -2   12.31    0.31
  -3  -4  -3    0.10    0.02
  -3  -4  -3    0.09    0.03
   3   4   3    0.11    0.04
  -3  -4  -4    3.65    0.16
  -3  -4  -4    3.50    0.14
   3   4   4    3.61    0.17
   3   4   4    3.45    0.13
   3   4   5   29.23    0.47
  -3  -4  -5   30.06    0.43
   3   4   5   29.82    0.41
  -3  -4  -5   29.45    0.45
   3   4   6    6.89    0.23
   3   4   6    6.60    0.22
  -3  -4  -6    6.83    0.22
   3   4   6    7.15    0.21
  -3   4  -7    0.12    0.05
   3   4   7    0.00    0.04
   3   4   7    0.00    0.03
  -3  -4  -7    0.04    0.03
   3   4   7    0.04    0.03
   3   4   8    0.66    0.07
   3   4   8    0.74    0.09
  -3  -4  -8    0.59    0.06
  -3   4  -8    0.57    0.08
   3   4   8    0.64    0.07
   3   4   9    0.67    0.08
   3   4   9    0.57    0.09
  -3   4  -9    0.77    0.10
  -3  -4  -9    0.71    0.07
   3   4  10    9.20    0.24
   3   4  10    9.65    0.33
  -3  -4 -10    9.67    0.23
  -3   4 -10    9.64    0.33
   3   4  11    0.04    0.03
  -3   4 -11    0.07    0.07
  -3  -4 -11    0.06    0.03
   3   4  12   21.60    0.34
  -3  -4 -12   22.00    0.31
  -3   4 -12   21.64    0.53
   3   4  13    3.27    0.12
  -3  -4 -13    3.14    0.11
  -3   4 -13    3.14    0.22
  -3   4 -14    0.05    0.07
  -3   4 -15    6.79    0.34
  -3   4 -15    5.38    0.31
  -3   4 -16    0.67    0.13
  -3   4 -16    0.25    0.09
  -3   4 -17    6.19    0.35
  -3   4 -17    6.21    0.34
  -3   4 -18    3.03    0.26
  -3   4 -18    3.50    0.27
  -3   4 -19    5.42    0.34
  -3   4 -19    5.89    0.37
  -3   4 -19    5.23    0.25
  -3   4 -20    0.85    0.18
  -3   4 -20    1.03    0.20
  -3   4 -20    1.19    0.12
  -3   4 -21    5.68    0.38
  -3   4 -22    0.23    0.13
  -3   4 -23    2.31    0.26
  -3   4 -24    0.57    0.16
  -3   4 -25    0.90    0.20
  -3   4 -26    0.40    0.16
  -3   4 -27    0.30    0.16
   3   5 -28    0.03    0.11
   3   5 -27   -0.03    0.13
   3   5 -26    0.26    0.13
   3   5 -25    0.10    0.12
   3   5 -24    1.91    0.25
   3   5 -24    2.09    0.21
   3   5 -23    0.19    0.13
   3   5 -23    0.07    0.07
   3   5 -22    9.38    0.41
   3   5 -22    9.01    0.50
   3   5 -21    4.69    0.29
   3   5 -21    4.51    0.35
   3   5 -20    1.01    0.17
   3   5 -20    0.92    0.14
   3   5 -19    1.55    0.17
   3   5 -19    1.43    0.19
   3   5 -18    1.87    0.18
   3   5 -18    1.81    0.21
  -3   5  17    0.20    0.06
   3   5 -17    0.16    0.06
  -3   5  16    3.45    0.19
   3   5 -16    4.05    0.22
   3   5 -16    3.61    0.24
   3   5 -16    3.58    0.27
   3   5 -15    4.75    0.23
   3  -5 -15    4.63    0.28
  -3   5  15    4.32    0.21
   3   5 -15    4.70    0.26
   3   5 -15    4.70    0.29
   3  -5 -14    5.00    0.29
  -3   5  14    4.81    0.23
   3   5 -14    4.43    0.25
   3   5 -14    4.89    0.29
   3   5 -14    5.05    0.23
  -3   5  13    0.06    0.05
   3   5 -13    0.08    0.06
   3  -5 -13    0.20    0.09
  -3  -5  13    0.02    0.04
   3   5 -13    0.03    0.05
  -3  -5  12    1.26    0.10
  -3   5  12    1.34    0.13
   3  -5 -12    1.23    0.14
   3   5 -12    1.35    0.14
   3   5 -12    0.92    0.10
   3   5 -11   12.35    0.40
  -3  -5  11   11.93    0.30
  -3   5  11   12.51    0.37
   3   5 -11   12.24    0.32
   3  -5 -11   12.76    0.42
   3   5 -10    3.42    0.21
  -3  -5  10    3.58    0.16
  -3   5  10    3.59    0.20
   3  -5 -10    3.70    0.22
  -3  -5   9    9.34    0.23
  -3   5   9    9.23    0.32
   3   5  -9    9.26    0.34
   3  -5  -9    9.36    0.34
  -3   5   8   41.48    0.68
  -3  -5   8   41.23    0.43
   3   5  -8   40.29    0.69
   3  -5  -8   43.06    0.70
  -3   5   7    1.26    0.13
  -3  -5   7    1.49    0.08
   3   5  -7    1.55    0.15
   3  -5  -7    1.64    0.14
  -3   5   6  195.91    1.48
  -3  -5   6  194.57    0.75
   3   5  -6  193.36    1.47
   3  -5  -6  197.75    1.42
   3   5  -5   11.80    0.36
  -3  -5   5   10.56    0.15
  -3   5   5   10.74    0.35
   3   5  -4   26.96    0.53
  -3  -5   3    7.88    0.28
   3   5  -3    7.85    0.29
   3   5  -2   13.87    0.37
  -3  -5   2   14.53    0.38
   3   5  -1    4.70    0.22
  -3  -5   1    4.88    0.22
   3   5   0   14.50    0.37
  -3  -5   0   14.82    0.37
   3   5   1    0.22    0.06
  -3  -5  -1    0.15    0.05
   3   5   2   20.31    0.43
  -3  -5  -2   20.28    0.42
   3   5   3   19.21    0.27
   3   5   3   18.68    0.41
  -3  -5  -3   18.92    0.40
   3   5   4    0.52    0.08
   3   5   4    0.56    0.06
  -3  -5  -4    0.47    0.07
   3   5   5   40.65    0.59
   3   5   5   40.89    0.48
  -3  -5  -5   41.09    0.57
   3   5   6    9.21    0.28
  -3  -5  -6    8.95    0.26
   3   5   6    9.00    0.24
   3   5   7    0.31    0.05
   3   5   7    0.30    0.07
   3   5   7    0.19    0.05
  -3  -5  -7    0.30    0.05
   3   5   8    0.01    0.04
   3   5   8    0.00    0.04
   3   5   8    0.02    0.03
  -3   5  -8   -0.01    0.05
  -3  -5  -8    0.06    0.03
   3   5   9    0.01    0.05
   3   5   9    0.03    0.04
  -3   5  -9    0.09    0.05
  -3  -5  -9    0.08    0.04
   3   5  10    6.81    0.22
  -3   5 -10    7.41    0.30
  -3  -5 -10    7.04    0.21
   3   5  11    2.57    0.14
  -3   5 -11    2.72    0.19
  -3  -5 -11    2.63    0.13
   3   5  12    4.95    0.18
  -3   5 -12    5.12    0.26
   3   5  13   13.14    0.27
  -3   5 -13   13.02    0.43
   3   5  14    1.89    0.09
  -3   5 -14    1.91    0.17
  -3   5 -15    1.78    0.18
  -3   5 -16    2.82    0.23
  -3   5 -17    0.42    0.12
  -3   5 -17    0.47    0.12
  -3   5 -18   19.05    0.64
  -3   5 -18   20.56    0.63
  -3   5 -19    0.14    0.09
  -3   5 -19    0.18    0.12
  -3   5 -19    0.40    0.14
  -3   5 -20    7.92    0.45
  -3   5 -20    8.47    0.44
  -3   5 -20    7.46    0.32
  -3   5 -21    3.09    0.29
  -3   5 -21    2.84    0.27
  -3   5 -22    1.42    0.23
  -3   5 -23    0.20    0.13
  -3   5 -24    2.43    0.29
  -3   5 -25    2.62    0.30
  -3   5 -26    1.89    0.26
  -3   5 -27    0.27    0.13
   3   6 -27    0.54    0.19
   3   6 -26    0.03    0.12
   3   6 -25    0.27    0.11
   3   6 -24   -0.01    0.12
   3   6 -24    0.01    0.07
   3   6 -23    0.41    0.12
   3   6 -23    0.41    0.13
   3   6 -22    0.52    0.12
   3   6 -22    0.24    0.12
   3   6 -21    9.66    0.52
   3   6 -21    9.49    0.42
   3   6 -20    0.12    0.09
   3   6 -20    0.01    0.09
   3   6 -19    2.00    0.19
   3   6 -19    2.18    0.24
   3   6 -18    0.94    0.14
   3   6 -18    1.44    0.19
   3   6 -17    0.34    0.11
   3   6 -17    0.47    0.10
  -3   6  16    0.16    0.07
   3   6 -16    0.20    0.08
   3   6 -16    0.05    0.09
   3   6 -15    4.22    0.21
  -3   6  15    4.16    0.23
   3   6 -15    4.43    0.27
   3  -6 -14    0.49    0.11
   3   6 -14    0.45    0.08
   3   6 -14    0.52    0.11
   3  -6 -13    6.10    0.31
   3   6 -13    6.12    0.31
  -3  -6  13    6.14    0.23
   3   6 -13    6.05    0.23
  -3  -6  12    0.35    0.06
   3  -6 -12    0.49    0.11
   3   6 -12    0.32    0.08
   3   6 -12    0.28    0.06
   3   6 -11    5.98    0.30
   3   6 -11    6.34    0.22
  -3  -6  11    6.00    0.20
   3  -6 -11    6.01    0.29
   3   6 -10   18.17    0.50
  -3  -6  10   18.63    0.32
   3  -6 -10   19.68    0.51
   3   6  -9   25.79    0.59
  -3  -6   9   24.78    0.34
   3  -6  -9   26.25    0.58
   3  -6  -8    0.56    0.10
   3   6  -8    0.56    0.11
  -3  -6   8    0.57    0.05
   3   6  -7    1.63    0.15
  -3  -6   7    1.60    0.07
   3  -6  -7    1.58    0.14
  -3  -6   6   19.57    0.20
   3   6  -6   20.21    0.50
   3  -6  -6   20.88    0.47
   3   6  -5    6.52    0.28
   3  -6  -5    6.39    0.26
   3   6  -4    0.73    0.11
   3   6  -3   33.12    0.62
   3   6  -2   17.90    0.45
   3   6  -1   85.91    0.97
   3   6   0    0.63    0.10
   3   6   1    0.60    0.09
  -3  -6  -1    0.72    0.09
   3   6   2    0.06    0.04
  -3  -6  -2   -0.05    0.04
   3   6   3   11.95    0.35
  -3  -6  -3   11.78    0.34
   3   6   3   12.07    0.21
   3   6   4    0.03    0.04
   3   6   4    0.05    0.03
  -3  -6  -4    0.06    0.03
   3   6   5    0.05    0.03
   3   6   5    0.07    0.04
  -3  -6  -5    0.07    0.04
   3   6   6    1.51    0.12
   3   6   6    1.47    0.10
  -3  -6  -6    1.43    0.12
   3   6   7    0.31    0.05
   3   6   7    0.13    0.05
  -3  -6  -7    0.25    0.06
  -3   6  -8   12.01    0.36
   3   6   8   11.88    0.32
  -3  -6  -8   11.78    0.31
   3   6   8   11.47    0.31
  -3  -6  -9    0.34    0.07
  -3   6  -9    0.26    0.07
   3   6   9    0.28    0.06
   3   6  10    6.07    0.22
  -3   6 -10    5.87    0.27
  -3  -6 -10    5.97    0.21
   3   6  11    1.31    0.11
  -3   6 -11    1.58    0.15
  -3   6 -12    0.41    0.09
   3   6  12    0.48    0.07
   3   6  13    6.39    0.21
  -3   6 -13    6.24    0.30
   3   6  14    0.24    0.05
  -3   6 -14    0.22    0.09
   3   6  15   15.97    0.26
  -3   6 -15   16.07    0.51
  -3   6 -16    0.06    0.07
  -3   6 -17    0.68    0.13
  -3   6 -18    0.61    0.14
  -3   6 -18    0.36    0.12
  -3   6 -19    1.81    0.23
  -3   6 -19    1.81    0.18
  -3   6 -19    1.66    0.20
  -3   6 -20    0.40    0.13
  -3   6 -20    0.26    0.14
  -3   6 -20    0.21    0.08
  -3   6 -21    4.59    0.34
  -3   6 -21    4.40    0.36
  -3   6 -21    4.34    0.26
  -3   6 -22    0.87    0.19
  -3   6 -22    0.97    0.18
  -3   6 -23    4.99    0.39
  -3   6 -24    1.76    0.25
  -3   6 -25    0.12    0.10
  -3   6 -26    0.73    0.20
   3   7 -26    0.53    0.18
   3   7 -25    0.41    0.16
   3   7 -24    4.48    0.31
   3   7 -24    4.00    0.37
   3   7 -23   -0.12    0.09
   3   7 -23   -0.01    0.11
   3   7 -22    3.55    0.28
   3   7 -22    3.42    0.33
   3   7 -21    0.36    0.12
   3   7 -21    0.04    0.10
   3   7 -20    0.57    0.12
   3   7 -20    0.87    0.17
   3   7 -19    0.70    0.13
   3   7 -19    1.08    0.18
   3   7 -18    2.72    0.26
   3   7 -18    2.29    0.21
   3   7 -17    2.51    0.22
   3   7 -16    5.58    0.32
   3   7 -15    3.08    0.24
   3   7 -14    0.89    0.09
   3   7 -14    0.83    0.13
  -3  -7  14    0.96    0.10
   3  -7 -13    5.50    0.30
   3   7 -13    5.69    0.31
  -3  -7  13    5.99    0.22
   3   7 -13    6.20    0.22
   3  -7 -12    4.49    0.27
   3   7 -12    4.12    0.26
  -3  -7  12    3.96    0.17
   3   7 -12    4.32    0.18
   3  -7 -11   10.65    0.40
   3   7 -11   10.98    0.41
   3   7 -11   10.46    0.27
  -3  -7  11   10.61    0.25
   3  -7 -10    3.23    0.22
   3   7 -10    3.43    0.24
  -3  -7  10    3.54    0.14
  -3  -7   9   11.30    0.22
   3   7  -9   11.53    0.41
   3  -7  -9   12.01    0.40
   3   7  -8   17.16    0.50
   3  -7  -8   18.26    0.48
   3   7  -7    8.54    0.35
   3  -7  -7    8.62    0.32
   3   7  -6   31.67    0.66
   3  -7  -6   32.43    0.60
   3  -7  -5    0.95    0.11
   3   7  -5    0.77    0.12
   3  -7  -4    0.13    0.05
   3   7  -4    0.10    0.06
   3  -7  -3    0.69    0.10
   3   7  -3    0.77    0.12
   3   7  -2   14.62    0.43
   3   7  -1   28.31    0.59
   3   7   0    0.31    0.09
   3   7   1   17.86    0.45
   3   7   2    9.92    0.17
   3   7   2   10.09    0.34
   3   7   3    3.40    0.20
   3   7   3    3.26    0.11
   3   7   4    0.63    0.09
   3   7   4    0.62    0.06
   3   7   5    9.63    0.32
   3   7   5    9.60    0.23
  -3  -7  -6    0.07    0.05
   3   7   6    0.01    0.03
   3   7   6    0.09    0.05
   3   7   7    0.96    0.09
   3   7   7    1.07    0.11
  -3  -7  -7    1.02    0.11
   3   7   8    3.39    0.19
  -3   7  -8    3.74    0.21
  -3  -7  -8    3.58    0.18
   3   7   8    3.78    0.18
   3   7   9    6.31    0.25
  -3   7  -9    6.47    0.28
   3   7  10   26.65    0.50
  -3   7 -10   26.78    0.58
   3   7  11    0.79    0.09
  -3   7 -11    0.85    0.13
   3   7  12    4.82    0.21
  -3   7 -12    5.14    0.27
   3   7  13    1.96    0.13
  -3   7 -13    1.69    0.17
  -3   7 -14    0.35    0.11
   3   7  14    0.29    0.06
  -3   7 -15    3.90    0.26
  -3   7 -16    1.57    0.18
  -3   7 -17    0.07    0.08
  -3   7 -18    3.26    0.26
  -3   7 -18    3.17    0.24
  -3   7 -19    0.29    0.10
  -3   7 -19    0.07    0.09
  -3   7 -20    0.47    0.11
  -3   7 -20    0.32    0.10
  -3   7 -20    0.61    0.15
  -3   7 -21    0.83    0.17
  -3   7 -21    1.11    0.15
  -3   7 -21    1.18    0.19
  -3   7 -22    0.16    0.11
  -3   7 -22   -0.07    0.10
  -3   7 -23    1.68    0.25
  -3   7 -24    1.39    0.24
  -3   7 -25    1.96    0.28
   3   8 -26    0.23    0.12
   3   8 -25    1.41    0.20
   3   8 -25    1.25    0.23
   3   8 -24    2.32    0.30
   3   8 -24    2.79    0.27
   3   8 -23    0.57    0.15
   3   8 -23    0.25    0.15
   3   8 -22    0.23    0.11
   3   8 -22    0.07    0.13
   3   8 -21    1.11    0.16
   3   8 -21    1.20    0.20
   3   8 -20    0.26    0.13
   3   8 -20   -0.06    0.09
   3   8 -19   11.36    0.54
   3   8 -19   11.05    0.49
   3   8 -18    0.42    0.13
   3   8 -17    8.24    0.41
   3   8 -16    4.26    0.29
   3   8 -15    2.36    0.22
   3   8 -14    2.65    0.23
  -3  -8  14    2.51    0.15
   3   8 -13    2.59    0.13
   3   8 -13    2.66    0.23
  -3  -8  13    2.73    0.14
   3  -8 -12    0.92    0.13
   3   8 -12    0.96    0.14
   3   8 -12    0.90    0.08
   3  -8 -11    6.47    0.32
   3   8 -11    6.89    0.35
   3   8 -11    6.41    0.20
   3  -8 -10   17.46    0.51
   3   8 -10   17.00    0.54
   3   8 -10   16.51    0.32
   3  -8  -9   30.91    0.65
   3   8  -9   30.89    0.71
   3   8  -8    0.08    0.07
   3  -8  -8    0.11    0.08
   3   8  -7    2.74    0.22
   3  -8  -7    2.93    0.20
   3   8  -6    2.15    0.19
   3  -8  -6    1.98    0.16
   3  -8  -5    0.01    0.05
   3   8  -5    0.13    0.08
   3   8  -4   23.49    0.59
   3  -8  -4   23.48    0.50
   3   8  -3   21.96    0.56
   3  -8  -3   22.63    0.47
   3   8  -2    2.16    0.18
   3  -8  -2    1.84    0.14
   3   8  -1    1.67    0.16
   3  -8  -1    1.25    0.11
   3   8   0    1.13    0.14
   3   8   1    0.26    0.08
   3   8   2    5.78    0.28
   3   8   2    5.89    0.13
   3   8   3   22.30    0.53
   3   8   3   21.89    0.29
   3   8   4    2.91    0.20
   3   8   4    3.07    0.12
   3   8   5   27.31    0.57
   3   8   5   27.35    0.40
   3   8   6    5.41    0.26
   3   8   6    5.68    0.20
   3   8   7   46.88    0.73
   3   8   7   45.79    0.59
   3   8   8    0.06    0.05
   3   8   8    0.11    0.05
  -3   8  -9    0.75    0.11
   3   8   9    0.88    0.11
   3   8  10    0.40    0.08
  -3   8 -10    0.43    0.08
   3   8  11   -0.08    0.06
  -3   8 -11    0.05    0.06
   3   8  12    3.55    0.19
  -3   8 -12    3.15    0.22
   3   8  13    0.10    0.05
  -3   8 -13    0.19    0.09
   3   8  14    1.21    0.11
  -3   8 -14    1.31    0.16
  -3   8 -15    5.85    0.32
  -3   8 -16    0.33    0.11
  -3   8 -17    0.72    0.14
  -3   8 -18    0.14    0.11
  -3   8 -18    0.03    0.08
  -3   8 -19    3.19    0.25
  -3   8 -19    3.16    0.27
  -3   8 -20    4.53    0.33
  -3   8 -20    4.72    0.31
  -3   8 -21    2.60    0.26
  -3   8 -21    2.04    0.27
  -3   8 -21    2.81    0.24
  -3   8 -22    0.39    0.12
  -3   8 -22    0.58    0.16
  -3   8 -23    0.17    0.11
  -3   8 -23    0.61    0.15
  -3   8 -24   -0.02    0.11
  -3   8 -25   -0.15    0.14
   3   9 -25    3.03    0.29
   3   9 -25    2.82    0.34
   3   9 -24    2.28    0.25
   3   9 -24    2.32    0.30
   3   9 -23    0.96    0.17
   3   9 -23    0.81    0.19
   3   9 -22    0.08    0.09
   3   9 -22    0.11    0.13
   3   9 -21    0.12    0.10
   3   9 -21    0.25    0.13
   3   9 -20    0.18    0.09
   3   9 -20    0.09    0.10
   3   9 -19    0.18    0.10
   3   9 -18    3.28    0.28
   3   9 -17    4.00    0.31
   3   9 -16    3.38    0.27
   3   9 -15    0.10    0.07
   3   9 -14   -0.09    0.10
   3   9 -13    0.96    0.15
   3   9 -12    0.62    0.06
   3   9 -12    0.53    0.11
   3   9 -11    0.33    0.05
   3   9 -11    0.40    0.11
   3  -9 -10    1.51    0.16
   3   9 -10    1.77    0.19
   3   9 -10    1.77    0.10
   3  -9  -9    6.71    0.31
   3   9  -9    5.91    0.33
   3  -9  -8    1.21    0.14
   3   9  -8    1.10    0.16
   3  -9  -7   23.18    0.55
   3   9  -7   22.01    0.61
   3   9  -6   33.48    0.75
   3  -9  -6   34.45    0.65
   3   9  -5   29.93    0.70
   3  -9  -5   30.26    0.59
   3   9  -4   15.58    0.51
   3  -9  -4   15.44    0.41
   3   9  -3    2.31    0.21
   3  -9  -3    2.16    0.15
   3   9  -2    2.05    0.19
   3  -9  -2    2.14    0.15
   3   9  -1    9.57    0.39
   3  -9  -1    9.98    0.30
   3   9   0    8.69    0.37
   3  -9   0    8.61    0.27
   3   9   1    7.52    0.34
   3  -9   1    7.19    0.24
   3   9   2    4.35    0.26
   3   9   2    4.19    0.11
   3   9   3    0.43    0.05
   3   9   3    0.42    0.10
   3   9   4    4.24    0.25
   3   9   4    4.37    0.15
   3   9   5    0.09    0.04
   3   9   5    0.13    0.06
   3   9   6   -0.03    0.06
   3   9   6    0.03    0.03
   3   9   7    0.03    0.05
   3   9   7    0.02    0.04
   3   9   8    0.18    0.07
   3   9   9    8.61    0.33
  -3   9  -9    8.37    0.34
   3   9  10    1.09    0.12
  -3   9 -10    1.19    0.14
   3   9  11    1.37    0.13
  -3   9 -11    1.45    0.16
   3   9  12    1.88    0.15
  -3   9 -12    2.15    0.19
   3   9  13    4.72    0.23
  -3   9 -13    4.64    0.28
   3   9  14    1.30    0.12
  -3   9 -14    1.27    0.16
  -3   9 -15    3.23    0.25
  -3   9 -16    2.14    0.21
  -3   9 -17    9.86    0.46
  -3   9 -17   10.14    0.47
  -3   9 -18    5.13    0.33
  -3   9 -18    5.04    0.33
  -3   9 -19    4.22    0.32
  -3   9 -19    4.02    0.30
  -3   9 -20    1.56    0.20
  -3   9 -20    1.30    0.18
  -3   9 -21    0.57    0.13
  -3   9 -21    0.60    0.13
  -3   9 -22    0.28    0.11
  -3   9 -22    0.09    0.11
  -3   9 -23    0.30    0.10
  -3   9 -23    0.67    0.18
  -3   9 -24    1.70    0.27
   3  10 -25    0.39    0.14
   3  10 -24    0.07    0.09
   3  10 -24    0.46    0.17
   3  10 -23    0.90    0.18
   3  10 -23    1.00    0.21
   3  10 -22    0.35    0.11
   3  10 -22    0.50    0.14
   3  10 -21   -0.09    0.10
   3  10 -21   -0.02    0.12
   3  10 -20   -0.08    0.09
   3  10 -19    2.92    0.29
   3  10 -18   -0.08    0.09
   3  10 -17    3.74    0.30
   3  10 -16   -0.04    0.09
   3  10 -15    2.28    0.23
   3  10 -14    0.01    0.08
   3  10 -13    1.11    0.17
   3  10 -12    0.05    0.09
   3  10 -11    6.48    0.37
   3  10 -10    0.69    0.05
   3  10 -10    0.86    0.15
   3  10  -9    7.88    0.40
   3  10  -9    8.07    0.18
   3 -10  -8    4.88    0.27
   3  10  -8    4.86    0.32
   3  10  -7    3.15    0.25
   3 -10  -7    2.95    0.21
   3 -10  -6   14.48    0.43
   3  10  -6   14.60    0.53
   3 -10  -5    2.54    0.19
   3  10  -5    3.18    0.25
   3 -10  -4   13.99    0.40
   3  10  -4   13.96    0.50
   3  10  -3   12.39    0.47
   3 -10  -3   11.93    0.36
   3  10  -2   16.53    0.53
   3 -10  -2   16.84    0.41
   3  10  -1    2.99    0.24
   3 -10  -1    2.84    0.17
   3  10   0   33.09    0.75
   3 -10   0   33.93    0.54
   3  10   1    3.16    0.24
   3 -10   1    2.75    0.15
   3 -10   2    0.03    0.04
   3  10   2    0.12    0.08
   3  10   2    0.08    0.02
   3  10   3    2.86    0.22
   3 -10   3    2.77    0.14
   3  10   3    2.67    0.10
   3  10   4    0.21    0.04
   3 -10   4    0.17    0.05
   3  10   4    0.19    0.08
   3  10   5    1.48    0.16
   3  10   5    1.32    0.09
   3  10   6    1.29    0.10
   3  10   6    1.22    0.15
   3  10   7   34.26    0.53
   3  10   7   35.45    0.72
   3  10   8    0.96    0.13
   3  10   9    3.61    0.23
  -3  10  -9    3.87    0.24
  -3  10 -10    2.38    0.19
   3  10  10    2.47    0.19
   3  10  11    6.43    0.29
  -3  10 -11    6.20    0.31
   3  10  12   10.75    0.37
  -3  10 -12   10.24    0.40
   3  10  13    2.40    0.18
  -3  10 -13    2.34    0.21
  -3  10 -14    0.91    0.14
  -3  10 -15    1.55    0.18
  -3  10 -16    0.69    0.15
  -3  10 -16    0.98    0.16
  -3  10 -17    0.34    0.12
  -3  10 -17    0.15    0.10
  -3  10 -18    2.55    0.25
  -3  10 -18    2.38    0.25
  -3  10 -19    0.79    0.15
  -3  10 -19    0.54    0.15
  -3  10 -20    4.28    0.33
  -3  10 -20    4.03    0.31
  -3  10 -21    1.83    0.23
  -3  10 -21    1.66    0.21
  -3  10 -22    1.63    0.23
  -3  10 -22    1.65    0.21
  -3  10 -23    2.07    0.26
   3  11 -25    0.06    0.12
   3  11 -24    0.26    0.12
   3  11 -23    0.90    0.18
   3  11 -23    0.99    0.21
   3  11 -22    0.38    0.12
   3  11 -22    0.28    0.12
   3  11 -21    0.34    0.13
   3  11 -20    0.23    0.11
   3  11 -19   -0.07    0.10
   3  11 -18    0.13    0.11
   3  11 -17   -0.08    0.09
   3  11 -16    2.41    0.26
   3  11 -15    0.11    0.09
   3  11 -14   14.31    0.59
   3  11 -13    5.56    0.38
   3  11 -12    5.91    0.38
   3  11 -11    0.66    0.15
   3  11 -10    4.37    0.32
   3  11  -9    9.37    0.46
   3  11  -8    2.20    0.23
   3  11  -7   18.56    0.62
   3  11  -6    0.13    0.13
   3 -11  -5   36.32    0.67
   3  11  -5   35.69    0.85
   3 -11  -4    0.46    0.10
   3  11  -4    0.49    0.15
   3 -11  -3    7.86    0.29
   3  11  -3    7.91    0.40
   3 -11  -2    0.68    0.10
   3  11  -2    0.83    0.15
   3 -11  -1    1.34    0.12
   3  11  -1    1.28    0.17
   3  11   0    3.35    0.25
   3 -11   0    3.42    0.18
   3  11   1    8.94    0.40
   3 -11   1    8.48    0.27
   3  11   2    3.20    0.25
   3  11   2    2.91    0.09
   3 -11   2    3.00    0.15
   3 -11   3    0.75    0.08
   3  11   3    0.85    0.14
   3  11   3    0.82    0.06
   3 -11   4    0.09    0.04
   3  11   4    0.18    0.04
   3  11   4    0.17    0.08
   3 -11   5    0.01    0.03
   3  11   5    0.03    0.06
   3  11   6    5.61    0.31
   3 -11   6    5.48    0.17
   3 -11   7    0.07    0.04
   3  11   7    0.10    0.07
   3  11   8    7.49    0.35
   3  11   9    4.81    0.28
  -3  11  -9    4.69    0.27
  -3  11 -10    5.98    0.31
   3  11  10    5.26    0.29
  -3  11 -11    1.64    0.17
   3  11  11    1.69    0.17
   3  11  12    0.57    0.11
  -3  11 -12    0.20    0.08
  -3  11 -13    0.97    0.14
   3  11  13    1.04    0.13
  -3  11 -14    0.08    0.07
  -3  11 -15    3.78    0.31
  -3  11 -15    4.12    0.28
  -3  11 -16    0.74    0.17
  -3  11 -16    0.67    0.13
  -3  11 -17    2.81    0.25
  -3  11 -17    2.71    0.27
  -3  11 -18    0.27    0.13
  -3  11 -18    0.11    0.08
  -3  11 -19    2.32    0.25
  -3  11 -19    2.23    0.25
  -3  11 -20    0.46    0.14
  -3  11 -20    0.44    0.13
  -3  11 -21    0.27    0.12
  -3  11 -21    0.28    0.13
  -3  11 -22    0.31    0.14
  -3  11 -22    0.16    0.12
  -3  11 -23    0.15    0.13
   3  12 -24    0.23    0.13
   3  12 -23    1.23    0.23
   3  12 -22    0.85    0.17
   3  12 -21   -0.14    0.12
   3  12 -20   -0.09    0.10
   3  12 -19    1.35    0.21
   3  12 -18    1.00    0.19
   3  12 -17    0.71    0.15
   3  12 -16    0.54    0.17
   3  12 -15    0.15    0.11
   3  12 -14    0.39    0.14
   3  12 -13    9.65    0.51
   3  12 -12    8.15    0.46
   3  12 -11    6.54    0.41
   3  12 -10    3.49    0.30
   3  12  -9    3.43    0.29
   3  12  -8    0.36    0.12
   3  12  -7    1.23    0.19
   3  12  -6    5.06    0.35
   3  12  -5   11.21    0.50
   3  12  -4    0.77    0.16
   3  12  -3   10.70    0.48
   3  12  -2   20.06    0.65
   3  12  -1   11.71    0.49
   3  12   0    8.37    0.42
   3 -12   1    2.74    0.15
   3  12   1    2.63    0.24
   3 -12   2    5.02    0.19
   3  12   2    4.76    0.31
   3 -12   3    6.06    0.20
   3  12   3    6.60    0.36
   3 -12   4    0.09    0.04
   3  12   4    0.06    0.08
   3  12   5    0.00    0.07
   3  12   6    1.52    0.18
   3  12   7    0.65    0.13
  -3  12  -8    0.63    0.11
   3  12   8    0.42    0.11
  -3  12  -9    0.79    0.13
   3  12   9    0.82    0.14
   3  12  10    1.87    0.19
  -3  12 -10    1.79    0.18
   3  12  11    8.96    0.39
  -3  12 -11    9.14    0.39
   3  12  12    0.55    0.11
  -3  12 -12    0.52    0.12
  -3  12 -13    3.83    0.27
  -3  12 -14    1.68    0.23
  -3  12 -14    1.94    0.21
  -3  12 -15    1.09    0.20
  -3  12 -15    1.10    0.16
  -3  12 -16    1.00    0.19
  -3  12 -16    1.06    0.16
  -3  12 -17    0.12    0.12
  -3  12 -17   -0.04    0.08
  -3  12 -18    1.12    0.20
  -3  12 -18    0.50    0.13
  -3  12 -19    0.09    0.08
  -3  12 -19    0.17    0.11
  -3  12 -20    0.07    0.11
  -3  12 -20    0.31    0.13
  -3  12 -21    0.06    0.10
  -3  12 -21    0.22    0.13
  -3  12 -22    0.85    0.18
  -3  12 -22    0.82    0.17
  -3  12 -23    1.06    0.20
   3  13 -21    1.00    0.20
   3  13 -20    0.62    0.16
   3  13 -19   -0.02    0.10
   3  13 -18    0.14    0.10
   3  13 -17    0.38    0.13
   3  13 -16    1.22    0.20
   3  13 -15    1.10    0.20
   3  13 -14    1.10    0.19
   3  13 -13    0.29    0.12
   3  13 -12   -0.14    0.11
   3  13 -11    0.09    0.08
   3  13 -10    2.08    0.25
   3  13  -9    2.83    0.29
   3  13  -8    3.43    0.31
   3  13  -7   14.03    0.59
   3  13  -6    1.32    0.20
   3  13  -5    7.39    0.43
   3  13  -4    3.47    0.30
   3  13  -3    0.20    0.12
   3  13  -2    5.16    0.35
   3  13  -1   15.03    0.58
   3  13   0    0.14    0.13
   3  13   1   18.08    0.63
   3  13   2    4.32    0.31
   3  13   3    7.47    0.40
   3  13   4    6.75    0.39
   3  13   5    0.37    0.11
   3  13   6    3.49    0.27
   3  13   7    0.18    0.09
  -3  13  -8    0.09    0.08
   3  13   8    0.25    0.10
   3  13   9    0.51    0.11
  -3  13  -9    0.66    0.12
  -3  13 -10    0.24    0.09
   3  13  10    0.13    0.07
   3  13  11    0.57    0.13
  -3  13 -11    0.78    0.14
  -3  13 -12   -0.05    0.08
  -3  13 -13    0.40    0.13
  -3  13 -13    0.63    0.13
  -3  13 -14    1.80    0.24
  -3  13 -14    1.80    0.20
  -3  13 -15    0.11    0.13
  -3  13 -15    0.15    0.09
  -3  13 -16    1.75    0.24
  -3  13 -16    1.69    0.21
  -3  13 -17    3.17    0.28
  -3  13 -17    3.57    0.33
  -3  13 -18    1.32    0.19
  -3  13 -18    1.19    0.21
  -3  13 -19    0.51    0.15
  -3  13 -19    0.74    0.17
  -3  13 -20    0.98    0.18
  -3  13 -20    0.76    0.17
  -3  13 -21    0.34    0.14
  -3  13 -21    0.18    0.14
  -3  13 -22    0.12    0.11
  -3  13 -22    0.14    0.14
   3  14 -18    0.46    0.16
   3  14 -17    0.07    0.10
   3  14 -16    0.74    0.18
   3  14 -15    0.16    0.13
   3  14 -14    0.90    0.19
   3  14 -13    1.84    0.25
   3  14 -12    6.10    0.44
   3  14 -11    4.50    0.37
   3  14 -10    9.75    0.53
   3  14  -9    0.81    0.18
   3  14  -8    0.06    0.10
   3  14  -7    0.07    0.11
   3  14  -6    1.24    0.20
   3  14  -5    0.09    0.10
   3  14  -4    1.30    0.19
   3  14  -3    1.04    0.18
   3  14  -2    7.11    0.43
   3  14  -1    3.48    0.30
   3  14   0   -0.03    0.09
   3  14   1    3.99    0.32
   3  14   2    0.12    0.09
   3  14   3    0.81    0.16
   3  14   4    4.80    0.35
   3  14   5    6.05    0.38
   3  14   6    8.44    0.44
   3  14   7    0.37    0.12
  -3  14  -8    0.02    0.07
   3  14   8    0.12    0.08
  -3  14  -9   -0.04    0.08
   3  14   9    0.00    0.08
   3  14  10    0.31    0.12
  -3  14 -10    0.29    0.10
  -3  14 -11    1.33    0.22
   3  14  11    1.33    0.18
  -3  14 -11    1.35    0.18
  -3  14 -12    0.48    0.15
  -3  14 -12    0.30    0.09
  -3  14 -13    4.73    0.31
  -3  14 -13    4.65    0.38
  -3  14 -14    0.09    0.12
  -3  14 -14    0.23    0.10
  -3  14 -15    0.10    0.15
  -3  14 -15    0.16    0.10
  -3  14 -16    1.38    0.23
  -3  14 -16    1.48    0.20
  -3  14 -17    0.50    0.14
  -3  14 -17    0.65    0.17
  -3  14 -18    3.14    0.29
  -3  14 -18    2.95    0.31
   3  15 -15    4.54    0.41
   3  15 -14    2.46    0.30
   3  15 -13    4.26    0.38
   3  15 -12    0.77    0.18
   3  15 -11    0.29    0.14
   3  15 -10    0.33    0.14
   3  15  -9    0.61    0.16
   3  15  -8    0.60    0.16
   3  15  -7    1.55    0.23
   3  15  -6    0.04    0.10
   3  15  -5    0.37    0.13
   3  15  -4   -0.04    0.10
   3  15  -3    0.12    0.10
   3  15  -2   -0.01    0.10
   3  15  -1    1.28    0.20
   3  15   0   -0.12    0.12
   3  15   1    2.41    0.26
   3  15   2    2.26    0.25
   3  15   3   13.35    0.59
   3  15   4    2.68    0.28
   3  15   5    3.81    0.33
   3  15   6    0.27    0.13
  -3  15  -7    0.78    0.14
   3  15   7    0.70    0.16
  -3  15  -8    1.72    0.19
   3  15   8    1.82    0.22
  -3  15  -9    5.39    0.42
   3  15   9    5.17    0.36
  -3  15  -9    5.50    0.32
  -3  15 -10    0.92    0.21
   3  15  10    0.77    0.17
  -3  15 -10    0.86    0.15
  -3  15 -11    7.36    0.38
  -3  15 -11    6.20    0.45
  -3  15 -12    0.76    0.20
  -3  15 -12    0.79    0.15
  -3  15 -13    0.29    0.14
  -3  15 -13    0.30    0.11
  -3  15 -14    1.71    0.27
   3  16 -11    2.69    0.32
   3  16 -10    1.77    0.26
   3  16  -9    0.34    0.14
   3  16  -8   -0.10    0.14
   3  16  -7    0.22    0.14
   3  16  -6    0.50    0.14
   3  16  -5    0.35    0.13
   3  16  -4    0.67    0.15
   3  16  -3    0.60    0.17
   3  16  -2    3.96    0.35
   3  16  -1    0.17    0.12
   3  16   0    2.23    0.27
   3  16   1    0.03    0.10
   3  16   2    0.28    0.14
   3  16   3    0.52    0.15
   3  16   4    2.53    0.28
   3  16   5    0.59    0.16
  -3  16  -6   11.75    0.61
   3  16   6   11.05    0.56
  -3  16  -7    1.10    0.22
   3  16   7    1.05    0.21
   3  16   8    2.95    0.30
  -3  16  -8    3.43    0.35
  -3  16  -9    0.17    0.15
   3  16   9    0.06    0.10
  -3  16 -10    0.76    0.20
  -3  17  11    0.19    0.13
  -3  17  10    0.20    0.12
  -3  17   9    1.52    0.23
  -3  17   8    0.20    0.12
   3  17  -6    1.51    0.24
   3  17  -5    0.80    0.19
   3  17  -4   -0.06    0.10
   3  17  -3    0.00    0.12
   3  17  -2    0.13    0.13
   3  17  -1    0.20    0.13
   3  17   0    0.09    0.11
  -3  17  -1    2.43    0.30
   3  17   1    2.15    0.28
  -3  17  -2    3.42    0.37
   3  17   2    2.16    0.27
  -3  17  -3    6.04    0.46
   3  17   3    5.42    0.42
  -3  17  -4    2.46    0.31
   3  17   4    2.48    0.29
   3  17   5    0.26    0.10
   3  17   6    0.39    0.15
   3  17   7    1.38    0.23
   3  17   8   -0.09    0.12
  -3  18  10    1.09    0.21
  -3  18   9    0.14    0.12
  -3  18   8    0.23    0.13
  -3  18   7    0.26    0.15
  -3  18   6    0.11    0.15
   3  18   1    0.10    0.12
   3  18   2    0.37    0.14
   3  18   3    0.31    0.16
   3  18   4    1.10    0.21
   3  18   5   -0.06    0.11
   3  18   6    3.44    0.35
   3  18   7    0.31    0.15
   4   0 -28    3.42    0.35
   4   0 -27   -0.06    0.10
   4   0 -26   -0.06    0.13
   4   0 -25    0.16    0.14
   4   0 -24    2.04    0.25
   4   0 -23    0.00    0.10
   4   0 -22   25.46    0.80
   4   0 -22   25.60    0.60
   4   0 -21    0.11    0.09
   4   0 -21    0.04    0.11
   4   0 -20    5.43    0.32
   4   0 -20    5.90    0.29
   4   0 -20    5.08    0.34
   4   0 -19    0.09    0.09
   4   0 -19    0.21    0.12
   4   0 -19   -0.01    0.06
   4   0 -18    0.57    0.10
   4   0 -18    0.52    0.12
   4   0 -17   -0.03    0.07
   4   0 -17    0.06    0.08
   4   0 -17   -0.12    0.10
   4   0 -16    1.10    0.14
   4   0 -16    1.04    0.14
   4   0 -16    1.18    0.15
   4   0 -15   -0.07    0.08
   4   0 -15   -0.04    0.06
   4   0 -15    0.03    0.05
   4   0 -14    7.83    0.34
   4   0 -14    7.97    0.32
   4   0 -14    8.70    0.36
   4   0 -13    0.06    0.07
   4   0 -13   -0.06    0.07
   4   0 -13    0.04    0.06
   4   0 -12    2.46    0.18
   4   0 -12    2.24    0.17
   4   0 -12    2.28    0.18
   4   0 -11    0.06    0.06
   4   0 -11    0.01    0.05
   4   0 -10   13.28    0.39
   4   0 -10   13.47    0.38
  -4   0  10   13.86    0.38
  -4   0   9    0.03    0.05
   4   0  -9   -0.02    0.04
   4   0  -9    0.11    0.06
  -4   0   9    0.02    0.04
  -4   0   8    6.11    0.23
  -4   0   8    6.36    0.26
   4   0  -8    6.11    0.23
   4   0  -8    5.76    0.25
   4   0  -7   -0.05    0.04
   4   0  -7    0.03    0.05
  -4   0   7    0.02    0.04
  -4   0   7   -0.01    0.03
  -4   0   6    5.32    0.24
  -4   0   6    5.16    0.18
   4   0  -6    4.89    0.23
   4   0  -6    5.03    0.18
  -4   0   5   -0.01    0.04
   4   0  -5    0.04    0.03
   4   0  -5   -0.01    0.05
  -4   0   5    0.02    0.03
   4   0  -4   76.80    0.90
  -4   0   4   77.75    0.58
  -4   0   4   75.61    0.87
   4   0  -3    0.02    0.06
  -4   0   3    0.09    0.03
  -4   0   3    0.01    0.04
  -4   0   2    3.01    0.09
   4   0  -2    3.11    0.18
  -4   0   2    2.86    0.17
   4   0  -1    0.03    0.04
  -4   0   1    0.13    0.06
   4   0   0   94.43    0.98
  -4   0   0   93.97    0.95
   4   0   1    0.05    0.06
  -4   0  -1    0.05    0.06
  -4   0  -2  135.34    1.13
   4   0   2  133.00    1.14
  -4   0  -3    0.29    0.04
   4   0   3    0.09    0.07
  -4   0  -3    0.32    0.10
   4   0   4  229.29    1.48
  -4   0  -4  229.23    0.87
  -4   0  -5    0.21    0.08
  -4   0  -5    0.16    0.04
  -4   0  -5    0.28    0.08
  -4   0  -6    4.53    0.16
   4   0   6    4.83    0.21
  -4   0  -6    4.76    0.21
  -4   0  -6    4.47    0.20
  -4   0  -7   -0.02    0.04
  -4   0  -7    0.00    0.03
  -4   0  -7    0.03    0.04
  -4   0  -8    9.39    0.27
  -4   0  -8    9.78    0.30
  -4   0  -8    9.41    0.31
  -4   0  -9    0.01    0.05
  -4   0  -9   -0.01    0.04
  -4   0  -9    0.02    0.03
  -4   0 -10    0.01    0.04
  -4   0 -10    0.03    0.05
  -4   0 -10    0.10    0.06
  -4   0 -11   -0.05    0.04
  -4   0 -11    0.04    0.05
  -4   0 -11    0.00    0.05
  -4   0 -12    1.19    0.14
  -4   0 -12    1.20    0.11
  -4   0 -12    1.17    0.12
  -4   0 -13   -0.03    0.07
  -4   0 -13   -0.01    0.04
  -4   0 -13    0.03    0.06
  -4   0 -14    2.20    0.18
  -4   0 -14    2.46    0.20
  -4   0 -14    1.89    0.13
  -4   0 -15   -0.05    0.08
  -4   0 -15    0.08    0.05
  -4   0 -15    0.05    0.07
  -4   0 -16    3.24    0.23
  -4   0 -16    3.89    0.26
  -4   0 -17    0.08    0.08
  -4   0 -17   -0.13    0.09
  -4   0 -18    8.97    0.42
  -4   0 -18    8.61    0.41
  -4   0 -19    0.05    0.08
  -4   0 -20    2.39    0.24
  -4   0 -21   -0.10    0.08
  -4   0 -22   -0.15    0.10
  -4   0 -23    0.10    0.11
  -4   0 -24    8.47    0.49
  -4   0 -25    0.15    0.13
  -4   0 -26    2.03    0.26
  -4   0 -27    0.03    0.13
  -4   0 -28    1.85    0.27
   4  -1 -28    0.20    0.16
   4   1 -28    0.07    0.14
   4  -1 -27    4.05    0.38
   4   1 -27    4.34    0.39
   4  -1 -26    0.48    0.16
   4   1 -26    0.65    0.19
   4   1 -25    7.83    0.50
   4  -1 -25    8.61    0.51
   4  -1 -24    0.48    0.17
   4   1 -24    0.35    0.16
   4   1 -23    8.03    0.47
   4   1 -23    7.65    0.35
   4  -1 -23    7.28    0.45
   4   1 -22   -0.03    0.10
   4  -1 -22    0.20    0.08
   4   1 -22    0.09    0.09
   4  -1 -22    0.03    0.10
   4  -1 -21    7.47    0.32
   4  -1 -21    7.81    0.43
   4   1 -21    7.74    0.34
   4   1 -21    7.10    0.42
   4   1 -20    3.35    0.26
   4   1 -20    3.70    0.24
   4  -1 -20    3.85    0.29
   4  -1 -20    3.37    0.28
   4  -1 -20    3.88    0.23
   4   1 -20    3.30    0.28
   4   1 -19    5.09    0.30
   4  -1 -19    5.04    0.31
   4  -1 -19    4.87    0.33
   4   1 -19    4.83    0.27
   4  -1 -19    4.76    0.25
   4   1 -19    4.61    0.32
   4  -1 -18    1.10    0.16
   4   1 -18    1.34    0.16
   4   1 -18    1.21    0.14
   4  -1 -18    1.20    0.17
   4  -1 -18    1.05    0.13
   4   1 -18    1.26    0.18
   4   1 -17    2.15    0.21
   4  -1 -17    2.21    0.21
   4   1 -17    2.41    0.19
   4  -1 -17    2.40    0.19
   4   1 -17    2.26    0.20
   4  -1 -17    2.64    0.22
   4   1 -16    0.84    0.13
   4  -1 -16    0.89    0.14
   4  -1 -16    0.91    0.12
   4  -1 -16    0.82    0.13
   4   1 -16    0.72    0.11
   4   1 -16    0.86    0.13
   4   1 -15    0.25    0.08
   4  -1 -15    0.15    0.09
   4  -1 -15    0.40    0.08
   4   1 -15    0.22    0.07
   4  -1 -15    0.16    0.08
   4   1 -15    0.23    0.09
   4  -1 -14    7.23    0.31
   4   1 -14    7.24    0.31
   4   1 -14    7.76    0.34
   4  -1 -14    7.54    0.34
   4   1 -14    7.59    0.33
   4  -1 -14    8.00    0.34
   4  -1 -13    1.18    0.14
   4   1 -13    1.15    0.13
   4   1 -13    1.24    0.14
   4   1 -13    1.15    0.13
   4  -1 -13    1.19    0.14
   4  -1 -13    1.09    0.12
   4   1 -12   -0.08    0.08
   4  -1 -12    0.01    0.08
   4  -1 -12    0.08    0.06
   4  -1 -12    0.04    0.06
   4   1 -12   -0.01    0.07
   4   1 -12    0.12    0.07
   4  -1 -11    0.59    0.10
   4  -1 -11    0.63    0.09
   4   1 -11    0.52    0.09
   4   1 -11    0.66    0.10
   4  -1 -11    0.64    0.10
   4  -1 -10    4.46    0.22
   4  -1 -10    4.21    0.22
   4   1 -10    4.03    0.22
  -4   1  10    4.27    0.22
  -4   1  10    4.36    0.22
   4   1 -10    4.24    0.21
   4  -1  -9    2.43    0.18
   4   1  -9    2.45    0.16
   4   1  -9    2.26    0.17
   4  -1  -9    2.61    0.16
  -4   1   9    2.53    0.16
  -4   1   9    2.68    0.17
   4   1  -8    3.25    0.17
  -4   1   8    3.34    0.18
   4   1  -8    3.10    0.19
  -4   1   8    3.00    0.18
   4  -1  -8    3.41    0.20
   4  -1  -7    2.94    0.19
   4   1  -7    2.79    0.15
  -4  -1   7    2.96    0.18
  -4   1   7    2.85    0.18
   4   1  -7    2.69    0.17
  -4   1   7    3.11    0.16
   4  -1  -6    5.06    0.24
  -4   1   6    5.38    0.24
  -4   1   6    5.53    0.20
  -4  -1   6    5.32    0.23
   4   1  -6    5.04    0.18
   4   1  -6    5.21    0.24
  -4  -1   5    2.48    0.16
  -4   1   5    2.94    0.13
   4   1  -5    2.86    0.12
   4  -1  -5    2.99    0.18
  -4   1   5    2.89    0.18
   4   1  -5    2.75    0.18
  -4   1   4    1.10    0.08
  -4   1   4    1.11    0.11
   4   1  -4    1.06    0.11
   4   1  -4    1.18    0.07
   4  -1  -4    1.13    0.12
  -4  -1   4    0.99    0.10
  -4   1   3   16.98    0.27
   4   1  -3   16.50    0.23
  -4   1   3   16.20    0.41
   4   1  -3   16.57    0.42
  -4  -1   3   16.43    0.40
   4  -1  -3   17.18    0.42
  -4   1   2   13.06    0.22
  -4   1   2   12.85    0.36
   4  -1  -2   13.32    0.37
  -4  -1   2   13.01    0.36
   4   1  -2   13.46    0.37
   4  -1  -1   33.54    0.59
   4   1  -1   34.98    0.59
  -4   1   1   34.61    0.60
  -4  -1   1   35.02    0.58
  -4   1   0    4.99    0.23
  -4  -1   0    5.00    0.22
   4   1   0    4.88    0.22
   4  -1   0    5.08    0.23
  -4   1  -1   11.53    0.34
   4   1   1   10.57    0.32
  -4  -1  -1   11.20    0.32
   4  -1   1   10.60    0.33
   4  -1   2   74.56    0.86
   4   1   2   74.81    0.85
  -4   1  -2   74.74    0.87
  -4  -1  -2   73.79    0.82
  -4   1  -3    1.39    0.13
   4  -1   3    1.32    0.12
   4   1   3    1.28    0.12
  -4  -1  -3    1.34    0.12
   4  -1   4  155.44    1.24
   4   1   4  157.44    1.22
  -4   1  -4  160.02    1.26
  -4  -1  -4  156.94    1.17
  -4  -1  -4  156.53    1.02
  -4  -1  -5   29.56    0.34
  -4  -1  -5   31.12    0.52
  -4   1  -5   30.22    0.55
  -4  -1  -5   30.23    0.48
   4   1   5   30.76    0.54
  -4  -1  -6    9.01    0.28
  -4   1  -6    9.59    0.24
  -4  -1  -6    9.57    0.22
   4   1   6    9.50    0.30
  -4   1  -6    9.55    0.31
  -4   1  -6    9.32    0.29
  -4  -1  -6    9.13    0.28
  -4   1  -7    3.23    0.18
   4   1   7    3.25    0.18
  -4   1  -7    2.96    0.15
  -4  -1  -7    3.12    0.14
  -4  -1  -7    3.18    0.17
  -4   1  -7    2.94    0.17
  -4  -1  -7    3.15    0.17
  -4   1  -8    0.18    0.06
  -4  -1  -8    0.19    0.05
  -4  -1  -8    0.17    0.05
  -4  -1  -8    0.18    0.07
  -4   1  -8    0.13    0.05
   4   1   8    0.17    0.06
  -4   1  -8    0.06    0.04
  -4   1  -9    0.20    0.06
   4   1   9    0.09    0.04
  -4   1  -9    0.13    0.05
  -4  -1  -9    0.12    0.05
  -4  -1  -9    0.12    0.03
  -4  -1  -9    0.14    0.06
  -4   1  -9    0.13    0.05
  -4  -1 -10    3.50    0.20
  -4   1 -10    3.61    0.19
  -4  -1 -10    3.91    0.19
  -4  -1 -10    3.54    0.17
  -4   1 -10    3.70    0.19
  -4   1 -10    3.51    0.20
  -4   1 -11    0.31    0.07
  -4  -1 -11    0.29    0.07
  -4  -1 -11    0.37    0.06
  -4   1 -11    0.10    0.06
  -4  -1 -11    0.22    0.07
  -4   1 -11    0.24    0.07
  -4  -1 -12    1.98    0.17
  -4  -1 -12    1.64    0.14
  -4   1 -12    1.65    0.15
  -4  -1 -12    1.73    0.12
  -4   1 -12    1.58    0.13
  -4   1 -12    1.69    0.16
  -4  -1 -13    9.69    0.35
  -4   1 -13    9.84    0.36
  -4  -1 -13   10.34    0.38
  -4   1 -13   10.10    0.31
  -4   1 -13    9.96    0.38
  -4  -1 -13   10.04    0.27
  -4   1 -14    1.02    0.14
  -4  -1 -14    1.25    0.10
  -4  -1 -14    0.96    0.13
  -4   1 -14    0.93    0.10
  -4  -1 -14    1.34    0.15
  -4   1 -14    1.02    0.14
  -4  -1 -15    2.01    0.18
  -4   1 -15    1.97    0.14
  -4   1 -15    1.79    0.18
  -4  -1 -15    1.77    0.11
  -4   1 -15    1.50    0.17
  -4  -1 -15    2.21    0.20
  -4  -1 -16    1.49    0.17
  -4   1 -16    1.55    0.13
  -4  -1 -16    1.58    0.17
  -4   1 -16    1.62    0.17
  -4   1 -16    1.84    0.19
  -4  -1 -17    0.26    0.09
  -4   1 -17    0.35    0.11
  -4   1 -17    0.22    0.10
  -4   1 -18    0.14    0.08
  -4   1 -18    0.16    0.09
  -4  -1 -18    0.04    0.08
  -4   1 -19    0.50    0.11
  -4   1 -19    0.74    0.14
  -4  -1 -19    0.51    0.12
  -4  -1 -20    0.75    0.14
  -4   1 -20    0.99    0.16
  -4  -1 -21    1.57    0.20
  -4   1 -21    1.59    0.20
  -4  -1 -22    0.09    0.09
  -4   1 -22    0.16    0.12
  -4   1 -23    2.01    0.24
  -4  -1 -23    2.16    0.25
  -4   1 -24    0.26    0.12
  -4  -1 -24    0.43    0.14
  -4  -1 -25    0.03    0.11
  -4   1 -25    0.11    0.12
  -4  -1 -26    0.14    0.12
  -4   1 -26    0.43    0.16
  -4   1 -27   -0.13    0.13
  -4  -1 -27   -0.03    0.11
  -4   1 -28    0.27    0.13
  -4  -1 -28    0.07    0.11
   4   2 -28    3.72    0.38
   4   2 -27   -0.05    0.11
   4   2 -26    0.07    0.12
   4   2 -25    0.05    0.13
   4   2 -24    3.28    0.32
   4   2 -23    1.22    0.16
   4   2 -23    1.23    0.21
   4  -2 -22   24.52    0.79
   4   2 -22   25.45    0.81
   4   2 -22   25.18    0.64
   4  -2 -21    0.47    0.15
   4   2 -21    0.65    0.13
   4   2 -21    0.55    0.15
   4  -2 -21    0.61    0.11
   4  -2 -20    8.81    0.45
   4   2 -20    9.56    0.41
   4  -2 -20    8.90    0.43
   4   2 -20    8.94    0.45
   4   2 -20    9.04    0.38
   4  -2 -20    8.86    0.34
   4  -2 -19    0.46    0.09
   4  -2 -19    0.43    0.13
   4   2 -19    0.57    0.13
   4   2 -19    0.36    0.10
   4  -2 -19    0.33    0.14
   4   2 -19    0.60    0.14
   4  -2 -18    1.70    0.16
   4   2 -18    1.53    0.16
   4   2 -18    1.37    0.16
   4  -2 -18    1.83    0.21
   4  -2 -18    1.77    0.19
   4   2 -18    1.61    0.19
   4  -2 -17   31.14    0.74
   4  -2 -17   29.78    0.61
   4   2 -17   29.83    0.75
   4   2 -17   30.22    0.66
   4  -2 -17   31.28    0.76
   4   2 -17   31.16    0.69
   4  -2 -16    0.94    0.13
   4  -2 -16    1.16    0.17
   4  -2 -16    1.00    0.15
   4   2 -16    0.61    0.11
   4   2 -16    0.73    0.13
   4   2 -16    0.79    0.14
   4  -2 -15   10.91    0.37
   4   2 -15   11.49    0.44
   4   2 -15   10.83    0.39
   4   2 -15   11.66    0.40
   4  -2 -15   11.77    0.44
   4  -2 -14   17.11    0.46
   4   2 -14   17.76    0.53
   4   2 -14   17.32    0.49
   4   2 -14   17.59    0.49
   4  -2 -14   17.47    0.52
   4   2 -13    0.85    0.12
   4  -2 -13    0.83    0.12
   4  -2 -13    0.87    0.13
   4   2 -13    0.70    0.11
   4   2 -13    0.69    0.12
   4  -2 -12   23.85    0.54
   4   2 -12   24.47    0.57
   4   2 -12   23.80    0.56
   4  -2 -12   24.69    0.59
   4  -2 -11    1.77    0.15
   4  -2 -11    1.38    0.15
   4   2 -11    1.67    0.15
   4   2 -11    1.79    0.16
   4  -2 -10    4.27    0.23
   4   2 -10    4.04    0.21
   4   2 -10    4.19    0.23
   4  -2  -9   23.67    0.52
  -4   2   9   24.52    0.51
   4   2  -9   23.63    0.48
   4   2  -9   23.66    0.54
  -4   2   9   23.78    0.52
  -4   2   8   12.71    0.36
   4   2  -8   12.36    0.33
  -4   2   8   12.43    0.38
   4  -2  -8   12.69    0.38
   4   2  -8   12.49    0.39
   4  -2  -7   41.27    0.68
  -4   2   7   42.16    0.61
  -4   2   7   42.10    0.69
   4   2  -7   42.31    0.69
   4   2  -7   42.21    0.57
   4   2  -6    2.67    0.18
  -4   2   6    2.74    0.15
  -4   2   6    2.50    0.17
  -4  -2   6    2.28    0.16
   4   2  -6    2.47    0.13
   4  -2  -6    2.81    0.18
  -4   2   5   11.41    0.28
   4  -2  -5   11.60    0.36
  -4   2   5   11.18    0.36
   4   2  -5   11.09    0.25
  -4  -2   5   11.19    0.34
   4   2  -5   10.72    0.34
   4  -2  -4   14.66    0.40
  -4  -2   4   14.50    0.38
   4   2  -4   13.94    0.26
  -4   2   4   14.59    0.40
   4   2  -4   14.57    0.40
  -4   2   4   14.51    0.30
   4  -2  -3    0.09    0.06
   4   2  -3    0.12    0.06
  -4  -2   3    0.05    0.04
   4   2  -3    0.18    0.03
   4  -2  -2    7.33    0.28
   4   2  -2    7.57    0.14
   4   2  -2    7.37    0.28
  -4  -2   2    8.03    0.28
  -4   2   2    7.35    0.29
   4  -2  -1   16.95    0.43
   4   2  -1   17.33    0.42
  -4   2   1   18.24    0.45
  -4  -2   1   17.60    0.41
   4  -2   0   34.15    0.60
  -4   2   0   34.50    0.61
   4   2   0   33.87    0.58
  -4  -2   0   34.75    0.57
  -4   2  -1    4.54    0.23
   4   2   1    4.51    0.22
  -4  -2  -1    4.68    0.21
  -4   2  -2  164.02    1.34
  -4  -2  -2  163.57    1.21
   4   2   2  162.92    1.26
  -4   2  -3    3.11    0.20
   4   2   3    2.86    0.17
   4   2   3    2.94    0.09
  -4  -2  -3    3.19    0.18
  -4  -2  -3    3.29    0.14
   4   2   4  119.77    0.64
  -4   2  -4  124.19    1.15
   4   2   4  123.22    1.08
  -4  -2  -4  122.72    1.03
  -4  -2  -4  122.52    0.89
  -4  -2  -5    0.24    0.06
  -4   2  -5    0.26    0.08
   4   2   5    0.15    0.06
   4   2   5    0.27    0.04
  -4  -2  -5    0.36    0.07
  -4   2  -6   15.82    0.41
   4   2   6   15.36    0.29
  -4  -2  -6   15.99    0.37
  -4  -2  -6   15.50    0.35
   4   2   6   15.28    0.38
  -4   2  -7   15.76    0.41
   4   2   7   15.60    0.38
  -4  -2  -7   15.70    0.36
   4   2   7   14.96    0.31
  -4   2  -7   16.05    0.39
  -4  -2  -7   15.70    0.37
  -4  -2  -8   20.69    0.44
  -4   2  -8   20.37    0.47
   4   2   8   20.41    0.43
   4   2   8   20.06    0.38
  -4  -2  -8   19.75    0.40
  -4   2  -8   20.35    0.46
  -4   2  -9    8.58    0.31
   4   2   9    8.40    0.27
  -4  -2  -9    9.12    0.31
   4   2   9    8.49    0.27
  -4   2  -9    8.57    0.29
  -4  -2  -9    8.88    0.26
  -4   2  -9    8.59    0.31
   4   2  10    0.33    0.07
  -4  -2 -10    0.43    0.07
  -4   2 -10    0.36    0.08
  -4  -2 -10    0.35    0.06
  -4  -2 -10    0.50    0.09
  -4   2 -10    0.51    0.08
  -4   2 -10    0.41    0.08
  -4   2 -11    0.45    0.08
  -4   2 -11    0.38    0.08
  -4  -2 -11    0.33    0.06
  -4   2 -11    0.19    0.06
  -4  -2 -11    0.42    0.08
  -4  -2 -11    0.41    0.09
  -4  -2 -12    4.99    0.24
  -4   2 -12    4.79    0.25
  -4  -2 -12    5.13    0.27
  -4   2 -12    4.66    0.23
  -4  -2 -12    4.95    0.19
  -4   2 -12    4.86    0.27
  -4  -2 -13    3.74    0.22
  -4   2 -13    4.06    0.22
  -4   2 -13    3.78    0.23
  -4  -2 -13    4.13    0.25
  -4  -2 -13    4.06    0.16
  -4   2 -13    4.07    0.25
  -4  -2 -14    0.65    0.10
  -4   2 -14    0.65    0.09
  -4  -2 -14    0.59    0.11
  -4  -2 -14    0.62    0.06
  -4   2 -14    0.62    0.11
  -4   2 -14    0.63    0.11
  -4  -2 -15    2.97    0.22
  -4   2 -15    3.17    0.19
  -4   2 -15    3.66    0.26
  -4   2 -15    3.56    0.25
  -4  -2 -15    3.27    0.13
  -4   2 -16    2.10    0.20
  -4   2 -16    2.02    0.19
  -4  -2 -16    1.80    0.18
  -4   2 -16    2.21    0.17
  -4  -2 -17    3.38    0.25
  -4   2 -17    3.93    0.28
  -4   2 -17    3.43    0.26
  -4  -2 -18    5.19    0.31
  -4   2 -18    4.70    0.31
  -4   2 -18    5.41    0.33
  -4  -2 -19    0.35    0.12
  -4   2 -19    0.57    0.13
  -4   2 -19    0.20    0.10
  -4  -2 -20    2.16    0.22
  -4   2 -20    2.63    0.25
  -4   2 -20    2.41    0.24
  -4   2 -21    0.28    0.12
  -4  -2 -21    0.60    0.14
  -4  -2 -22    0.12    0.09
  -4   2 -22    0.09    0.09
  -4  -2 -23    0.12    0.11
  -4   2 -23    0.04    0.10
  -4  -2 -24    2.49    0.27
  -4   2 -24    2.61    0.28
  -4   2 -25    1.00    0.19
  -4   2 -26    3.56    0.34
  -4   2 -27    0.78    0.19
  -4   2 -28    0.83    0.20
   4   3 -28   -0.16    0.16
   4   3 -27    0.84    0.19
   4   3 -26    0.23    0.12
   4   3 -25    1.87    0.26
   4   3 -24    0.12    0.07
   4   3 -24    0.04    0.10
   4   3 -23   -0.11    0.08
   4   3 -23   -0.13    0.10
   4   3 -22    0.94    0.14
   4   3 -22    1.01    0.17
   4   3 -21    0.07    0.07
   4   3 -21    0.24    0.13
   4   3 -20    0.08    0.08
   4   3 -20    0.10    0.08
   4   3 -20    0.17    0.10
   4   3 -19    3.59    0.25
   4   3 -19    3.67    0.25
   4  -3 -19    3.31    0.27
   4   3 -19    3.76    0.29
   4   3 -18    9.12    0.38
   4  -3 -18    8.94    0.41
   4   3 -18    9.28    0.39
   4   3 -18    9.83    0.46
   4  -3 -17   16.35    0.55
   4   3 -17   16.33    0.57
   4   3 -17   15.99    0.50
   4   3 -17   16.81    0.50
   4   3 -16   14.71    0.52
   4   3 -16   14.93    0.48
   4   3 -16   14.66    0.46
   4  -3 -16   14.76    0.51
   4  -3 -15    5.47    0.27
   4   3 -15    5.77    0.32
   4   3 -15    5.86    0.30
   4   3 -15    5.75    0.28
   4  -3 -15    4.88    0.30
   4   3 -14   10.64    0.40
   4   3 -14   10.32    0.41
   4  -3 -14   11.05    0.37
   4   3 -14   10.13    0.36
   4  -3 -14   10.50    0.41
   4  -3 -13    8.09    0.31
   4   3 -13    7.82    0.34
   4   3 -13    7.56    0.31
   4  -3 -13    7.73    0.35
   4   3 -13    8.13    0.35
   4  -3 -12    0.52    0.09
   4  -3 -12    0.36    0.09
   4   3 -12    0.57    0.10
   4   3 -12    0.29    0.07
   4   3 -11    6.89    0.29
   4   3 -11    7.09    0.31
   4  -3 -11    6.87    0.29
   4  -3 -11    6.59    0.31
   4  -3 -10    6.00    0.27
   4   3 -10    5.88    0.26
   4   3 -10    5.71    0.28
   4  -3 -10    6.05    0.29
   4  -3  -9   27.16    0.56
  -4   3   9   27.26    0.56
   4   3  -9   26.78    0.52
   4   3  -9   26.76    0.58
   4  -3  -8    9.29    0.33
  -4   3   8    9.11    0.32
   4   3  -8    9.42    0.30
   4   3  -8    9.14    0.34
  -4   3   7    4.78    0.22
   4   3  -7    4.98    0.20
   4   3  -7    5.65    0.26
   4  -3  -7    5.12    0.25
  -4   3   6   75.57    0.82
   4  -3  -6   75.03    0.92
   4   3  -6   74.38    0.93
  -4   3   6   74.48    0.94
  -4   3   5    2.68    0.18
   4   3  -5    2.81    0.19
  -4   3   4   12.34    0.39
   4   3  -4   11.54    0.36
  -4   3   3   75.59    0.94
   4   3  -3   76.11    0.91
  -4  -3   3   75.28    0.88
   4   3  -2    4.52    0.23
  -4   3   2    3.81    0.22
  -4  -3   2    4.26    0.21
  -4   3   1   28.66    0.58
   4   3  -1   28.04    0.54
  -4  -3   1   29.10    0.53
  -4   3   0    0.62    0.10
   4   3   0    0.82    0.10
  -4  -3   0    0.88    0.10
  -4   3  -1   19.95    0.48
   4   3   1   19.77    0.45
  -4  -3  -1   19.69    0.43
  -4  -3  -1   19.27    0.29
  -4   3  -2   34.34    0.63
   4   3   2   33.65    0.58
  -4  -3  -2   34.18    0.56
  -4  -3  -2   33.75    0.41
  -4   3  -3    0.96    0.11
   4   3   3    0.96    0.06
  -4  -3  -3    1.11    0.11
   4   3   3    0.97    0.11
  -4  -3  -3    0.87    0.07
  -4   3  -4    0.05    0.05
  -4  -3  -4    0.11    0.04
   4   3   4    0.13    0.07
   4   3   4    0.08    0.03
  -4  -3  -4    0.08    0.05
   4   3   5   18.65    0.32
  -4   3  -5   19.75    0.48
   4   3   5   19.35    0.43
  -4  -3  -5   19.07    0.41
  -4  -3  -5   19.27    0.37
  -4  -3  -6   19.02    0.38
  -4   3  -6   19.24    0.48
   4   3   6   18.82    0.34
   4   3   6   18.96    0.42
  -4  -3  -6   19.41    0.40
  -4  -3  -7    6.70    0.24
   4   3   7    6.73    0.22
   4   3   7    6.65    0.25
  -4  -3  -7    7.03    0.24
  -4   3  -7    6.53    0.26
   4   3   8    2.79    0.16
   4   3   8    2.70    0.15
  -4  -3  -8    2.88    0.15
  -4   3  -8    2.89    0.18
  -4  -3  -8    2.83    0.16
   4   3   9    0.04    0.05
  -4  -3  -9    0.07    0.04
   4   3   9    0.09    0.05
  -4   3  -9   -0.01    0.06
  -4  -3  -9   -0.01    0.06
   4   3  10   10.78    0.30
  -4  -3 -10   10.37    0.34
  -4  -3 -10   10.42    0.28
  -4   3 -10   10.40    0.36
   4   3  10   10.16    0.32
  -4   3 -11    0.24    0.08
   4   3  11    0.12    0.05
  -4  -3 -11    0.24    0.07
   4   3  11    0.21    0.06
  -4  -3 -11    0.22    0.05
   4   3  12    4.94    0.19
  -4   3 -12    5.14    0.27
  -4  -3 -12    5.54    0.27
  -4  -3 -12    4.97    0.18
  -4   3 -12    5.17    0.27
  -4   3 -13    6.81    0.32
  -4  -3 -13    6.55    0.20
  -4   3 -13    6.47    0.31
  -4   3 -14    0.02    0.06
  -4  -3 -14    0.07    0.04
  -4   3 -15    0.23    0.09
  -4  -3 -15    0.16    0.04
  -4   3 -15    0.24    0.10
  -4   3 -16    1.15    0.15
  -4   3 -16    0.80    0.13
  -4   3 -17    0.02    0.08
  -4   3 -17   -0.11    0.08
  -4   3 -18   -0.10    0.07
  -4   3 -18   -0.10    0.11
  -4   3 -19    0.10    0.08
  -4   3 -19    0.15    0.09
  -4   3 -20    0.41    0.13
  -4   3 -20    0.44    0.13
  -4   3 -21    1.62    0.21
  -4   3 -21    1.50    0.21
  -4   3 -22   -0.13    0.11
  -4   3 -23    1.07    0.20
  -4   3 -24   -0.08    0.11
  -4   3 -25    0.07    0.10
  -4   3 -26    1.42    0.24
  -4   3 -27    0.22    0.13
   4   4 -28    1.20    0.23
   4   4 -27    0.36    0.17
   4   4 -26    0.09    0.10
   4   4 -25    0.17    0.12
   4   4 -24    1.32    0.18
   4   4 -24    1.40    0.23
   4   4 -23    1.27    0.17
   4   4 -23    1.24    0.21
   4   4 -22   -0.05    0.08
   4   4 -22   -0.02    0.10
   4   4 -21    0.52    0.11
   4   4 -21    0.42    0.10
   4   4 -20    1.23    0.18
   4   4 -20    1.47    0.17
   4   4 -19    3.45    0.24
   4  -4 -19    3.20    0.27
   4   4 -19    2.93    0.27
   4   4 -19    3.19    0.24
   4   4 -18    0.78    0.13
   4   4 -18    0.90    0.14
   4  -4 -18    0.62    0.15
   4   4 -18    0.78    0.16
   4  -4 -17   33.85    0.80
   4   4 -17   33.04    0.74
   4   4 -17   33.66    0.82
   4   4 -17   33.99    0.69
   4   4 -16    0.17    0.08
   4  -4 -16    0.33    0.12
   4   4 -16    0.26    0.09
   4   4 -16    0.21    0.09
   4   4 -15    0.22    0.06
   4  -4 -15    0.40    0.12
   4   4 -15    0.35    0.10
   4   4 -15    0.07    0.07
   4   4 -14   21.83    0.60
   4   4 -14   22.31    0.58
   4   4 -14   21.82    0.53
   4  -4 -14   22.78    0.62
   4  -4 -13    0.03    0.07
   4   4 -13   -0.02    0.08
   4   4 -13    0.04    0.08
   4   4 -13    0.13    0.09
   4   4 -12   32.75    0.67
   4   4 -12   33.11    0.69
   4  -4 -12   33.55    0.71
   4  -4 -11    1.10    0.14
   4   4 -11    1.34    0.14
   4   4 -11    1.31    0.13
   4  -4 -10    0.08    0.06
   4   4 -10    0.05    0.05
   4   4 -10    0.10    0.05
   4  -4  -9    0.83    0.12
   4   4  -9    0.94    0.12
   4   4  -8   31.07    0.63
  -4   4   7    3.68    0.20
   4   4  -7    3.57    0.22
   4   4  -6   72.09    0.93
   4   4  -5    3.89    0.23
   4   4  -4   47.24    0.75
   4   4  -3    0.60    0.10
   4   4  -2    0.34    0.07
   4   4  -1    3.26    0.19
   4   4   0    1.01    0.11
  -4  -4   0    0.99    0.11
  -4  -4   0    1.02    0.06
   4   4   1   11.28    0.35
  -4  -4  -1   10.76    0.21
  -4  -4  -1   11.18    0.33
   4   4   2    9.40    0.31
  -4  -4  -2    9.91    0.31
  -4  -4  -2    9.61    0.21
   4   4   3    0.53    0.08
  -4  -4  -3    0.55    0.06
  -4  -4  -3    0.51    0.07
  -4  -4  -4    1.15    0.09
   4   4   4    1.14    0.09
   4   4   4    1.15    0.11
  -4  -4  -4    1.03    0.10
   4   4   5    5.22    0.19
  -4  -4  -5    4.95    0.19
   4   4   5    5.28    0.23
  -4  -4  -5    5.24    0.22
   4   4   6    5.83    0.21
  -4  -4  -6    5.73    0.21
   4   4   6    5.94    0.24
  -4  -4  -6    5.98    0.23
   4   4   7    7.37    0.25
   4   4   7    7.26    0.27
  -4  -4  -7    7.42    0.25
  -4  -4  -7    7.68    0.26
   4   4   8    6.34    0.24
  -4  -4  -8    6.81    0.26
  -4   4  -8    6.20    0.26
  -4  -4  -8    5.86    0.22
   4   4   8    6.08    0.24
  -4  -4  -9    2.09    0.15
  -4  -4  -9    2.02    0.13
  -4   4  -9    1.74    0.15
   4   4   9    1.92    0.14
   4   4   9    2.06    0.14
   4   4  10   10.50    0.31
   4   4  10   10.73    0.34
  -4  -4 -10   10.97    0.29
  -4   4 -10   11.25    0.38
   4   4  11    2.32    0.15
  -4  -4 -11    2.28    0.13
  -4   4 -11    2.30    0.18
   4   4  12    9.40    0.28
  -4  -4 -12    9.39    0.26
  -4   4 -12    9.87    0.38
   4   4  13    2.47    0.14
  -4  -4 -13    2.07    0.12
  -4   4 -13    2.54    0.20
  -4   4 -14    0.97    0.14
  -4  -4 -14    0.78    0.07
  -4   4 -14    0.81    0.13
  -4   4 -15    1.25    0.16
  -4   4 -15    1.26    0.16
  -4   4 -16   10.33    0.43
  -4   4 -16    9.77    0.43
  -4   4 -17    0.16    0.10
  -4   4 -17    0.02    0.07
  -4   4 -18    6.58    0.38
  -4   4 -18    6.58    0.38
  -4   4 -19    0.85    0.16
  -4   4 -19    0.67    0.15
  -4   4 -20    1.24    0.18
  -4   4 -20    1.09    0.18
  -4   4 -21    0.39    0.13
  -4   4 -21    0.40    0.14
  -4   4 -22    0.55    0.14
  -4   4 -22    0.41    0.13
  -4   4 -23    0.18    0.11
  -4   4 -24   -0.15    0.13
  -4   4 -25    2.51    0.29
  -4   4 -26    3.10    0.34
  -4   4 -27    0.71    0.18
   4   5 -27    2.08    0.29
   4   5 -26    0.14    0.12
   4   5 -25    2.82    0.32
   4   5 -24    0.76    0.14
   4   5 -24    0.80    0.18
   4   5 -23   -0.05    0.08
   4   5 -23   -0.10    0.12
   4   5 -22   -0.08    0.08
   4   5 -22   -0.04    0.10
   4   5 -21    0.18    0.09
   4   5 -21    0.53    0.12
   4   5 -20    0.03    0.07
   4   5 -20    0.09    0.09
   4   5 -19    2.08    0.19
   4   5 -19    1.97    0.21
   4   5 -19    2.07    0.23
   4   5 -18    1.52    0.16
   4  -5 -18    1.67    0.20
   4   5 -18    1.43    0.17
   4   5 -18    1.58    0.20
   4   5 -17    0.56    0.10
   4  -5 -17    0.39    0.11
   4   5 -17    0.40    0.09
   4   5 -17    0.30    0.09
   4   5 -16    0.58    0.10
   4  -5 -16    0.54    0.11
   4   5 -16    0.67    0.12
   4   5 -16    0.43    0.10
   4   5 -15    3.23    0.25
   4   5 -15    3.39    0.25
   4   5 -15    3.20    0.20
   4  -5 -15    3.06    0.24
   4   5 -14    4.35    0.28
   4   5 -14    4.51    0.28
   4   5 -14    4.62    0.24
   4  -5 -14    4.76    0.29
   4   5 -13    3.70    0.24
  -4  -5  13    3.98    0.19
   4   5 -13    3.68    0.24
   4   5 -13    3.92    0.21
   4  -5 -13    3.67    0.26
   4  -5 -12    1.14    0.16
   4   5 -12    0.83    0.13
  -4  -5  12    0.89    0.09
   4   5 -11   14.32    0.46
   4  -5 -11   14.28    0.46
   4  -5 -10    0.25    0.09
   4   5 -10    0.23    0.07
   4   5  -9    6.14    0.30
   4  -5  -9    6.59    0.30
   4   5  -8    4.23    0.25
   4  -5  -8    4.33    0.25
   4   5  -7   10.99    0.39
   4   5  -6    9.72    0.36
   4   5  -5    4.19    0.24
   4   5  -4    6.62    0.29
   4   5  -3   12.69    0.40
   4   5  -2    9.66    0.34
  -4  -5   2    9.24    0.14
   4   5  -1    7.43    0.30
  -4  -5   1    7.50    0.13
   4   5   0    9.47    0.34
  -4  -5   0    9.78    0.17
  -4  -5  -1   11.17    0.20
   4   5   1   11.11    0.36
  -4  -5  -2    1.51    0.08
   4   5   2    1.53    0.14
  -4  -5  -3   11.81    0.25
   4   5   3   11.63    0.36
  -4  -5  -3   12.37    0.36
  -4  -5  -4    2.12    0.15
  -4  -5  -4    1.95    0.11
   4   5   4    1.86    0.15
   4   5   5    4.04    0.21
  -4  -5  -5    4.28    0.17
  -4  -5  -5    4.30    0.21
   4   5   6    0.17    0.05
   4   5   6    0.14    0.05
  -4  -5  -6    0.30    0.07
   4   5   7    4.17    0.21
   4   5   7    4.04    0.20
   4   5   7    4.28    0.18
  -4  -5  -7    4.34    0.20
   4   5   8    0.11    0.06
   4   5   8    0.16    0.06
  -4   5  -8    0.04    0.05
  -4  -5  -8    0.03    0.04
  -4   5  -9    8.26    0.32
   4   5   9    8.12    0.29
   4   5   9    8.04    0.30
  -4  -5  -9    8.15    0.26
   4   5  10    7.93    0.28
  -4   5 -10    7.92    0.32
  -4  -5 -10    8.39    0.26
   4   5  11    0.10    0.04
  -4   5 -11    0.09    0.06
  -4  -5 -11    0.06    0.04
  -4   5 -12    0.15    0.07
   4   5  12    0.22    0.06
  -4  -5 -12    0.23    0.05
   4   5  13    0.08    0.04
  -4  -5 -13    0.13    0.05
   4   5  14    2.20    0.13
  -4   5 -14    2.06    0.19
   4   5  15    8.20    0.22
  -4   5 -15    8.30    0.39
  -4   5 -16    1.22    0.18
  -4   5 -16    0.94    0.14
  -4   5 -17    0.44    0.11
  -4   5 -17    0.28    0.11
  -4   5 -18    0.13    0.09
  -4   5 -18    0.23    0.11
  -4   5 -19    5.12    0.35
  -4   5 -19    5.27    0.35
  -4   5 -20    1.82    0.23
  -4   5 -20    1.48    0.21
  -4   5 -21    9.44    0.50
  -4   5 -21    9.87    0.50
  -4   5 -22    2.74    0.29
  -4   5 -22    3.17    0.31
  -4   5 -23    4.41    0.37
  -4   5 -23    4.81    0.37
  -4   5 -24    3.30    0.33
  -4   5 -25    0.08    0.10
  -4   5 -26    0.06    0.13
   4   6 -27    0.22    0.14
   4   6 -26    0.06    0.14
   4   6 -25    0.63    0.16
   4   6 -24    0.16    0.09
   4   6 -24    0.05    0.11
   4   6 -23    0.78    0.18
   4   6 -23    1.04    0.16
   4   6 -22    1.91    0.21
   4   6 -22    1.72    0.23
   4   6 -21    4.60    0.36
   4   6 -21    4.34    0.31
   4   6 -20    5.07    0.33
   4   6 -20    4.87    0.37
   4   6 -19    2.12    0.24
   4   6 -19    2.27    0.23
   4   6 -18    1.98    0.17
   4   6 -18    1.87    0.20
   4  -6 -18    2.09    0.23
   4   6 -18    2.25    0.23
   4   6 -17    0.59    0.10
   4  -6 -17    0.59    0.14
   4   6 -17    0.75    0.14
   4   6 -17    0.34    0.11
   4  -6 -16    5.50    0.33
   4   6 -16    5.47    0.32
   4   6 -16    5.51    0.34
   4   6 -16    5.38    0.26
   4   6 -15    0.87    0.11
   4  -6 -15    1.13    0.16
   4   6 -15    1.05    0.15
   4   6 -15    0.76    0.13
   4   6 -14   10.77    0.43
  -4  -6  14   10.84    0.32
   4   6 -14   11.56    0.36
   4  -6 -14   11.35    0.45
  -4  -6  13    6.75    0.24
   4   6 -13    6.65    0.34
   4   6 -13    6.15    0.26
   4  -6 -13    6.53    0.34
  -4  -6  12    7.96    0.25
   4   6 -12    8.52    0.38
   4  -6 -12    8.25    0.37
  -4  -6  11    2.43    0.13
   4   6 -11    2.41    0.20
   4  -6 -11    2.40    0.20
   4  -6 -10    0.05    0.08
  -4  -6  10    0.02    0.03
   4   6 -10    0.01    0.07
  -4  -6   9    2.28    0.11
   4   6  -9    2.12    0.19
   4  -6  -9    2.21    0.19
  -4  -6   8   20.60    0.29
   4   6  -8   22.13    0.57
   4  -6  -8   22.40    0.55
  -4  -6   7    1.86    0.08
   4   6  -7    1.98    0.18
   4  -6  -7    1.76    0.16
  -4  -6   6   38.64    0.29
   4   6  -6   40.02    0.75
   4   6  -5    2.26    0.19
   4   6  -4    0.39    0.08
   4   6  -3   11.89    0.40
   4   6  -2   17.42    0.48
   4   6  -1    7.84    0.32
   4   6   0    2.40    0.18
   4   6   1    9.48    0.34
   4   6   2    6.73    0.29
   4   6   3    1.74    0.15
   4   6   4    0.54    0.09
   4   6   5    0.13    0.05
   4   6   6    5.97    0.26
   4   6   6    5.52    0.20
   4   6   7    0.25    0.07
   4   6   7    0.24    0.07
   4   6   7    0.23    0.05
  -4  -6  -7    0.23    0.06
   4   6   8    0.76    0.10
   4   6   8    0.89    0.11
  -4  -6  -8    0.82    0.09
   4   6   9    3.92    0.21
  -4   6  -9    3.74    0.23
  -4  -6  -9    3.88    0.19
   4   6  10   30.39    0.56
  -4   6 -10   31.32    0.64
  -4  -6 -10   29.78    0.52
   4   6  11    0.24    0.07
  -4   6 -11    0.19    0.09
  -4  -6 -11    0.09    0.05
   4   6  12   14.94    0.38
  -4   6 -12   14.69    0.47
  -4  -6 -12   14.59    0.35
  -4   6 -13    0.02    0.07
   4   6  13    0.06    0.05
   4   6  14    0.41    0.07
  -4   6 -14    0.59    0.12
  -4   6 -15    0.80    0.13
  -4   6 -16    4.61    0.30
  -4   6 -17    0.04    0.08
  -4   6 -18    0.08    0.09
  -4   6 -18    0.18    0.10
  -4   6 -19    1.81    0.21
  -4   6 -19    1.75    0.22
  -4   6 -20    0.51    0.16
  -4   6 -20    0.39    0.14
  -4   6 -21    5.54    0.39
  -4   6 -21    5.80    0.39
  -4   6 -22    1.73    0.23
  -4   6 -22    1.77    0.25
  -4   6 -23    0.74    0.18
  -4   6 -23    0.53    0.16
  -4   6 -24    1.57    0.23
  -4   6 -25    0.32    0.15
  -4   6 -26    1.31    0.24
   4   7 -26    0.11    0.11
   4   7 -25    0.09    0.09
   4   7 -25    0.22    0.14
   4   7 -24    0.28    0.12
   4   7 -24    0.05    0.12
   4   7 -23    1.18    0.21
   4   7 -23    1.03    0.17
   4   7 -22    0.28    0.10
   4   7 -22    0.34    0.14
   4   7 -21    0.17    0.10
   4   7 -21    0.36    0.14
   4   7 -20    5.60    0.39
   4   7 -20    5.35    0.34
   4   7 -19    4.24    0.34
   4   7 -19    4.11    0.30
   4   7 -18    5.53    0.37
   4   7 -18    5.83    0.35
   4   7 -18    5.68    0.27
   4   7 -17   14.45    0.42
   4  -7 -17   15.32    0.56
   4   7 -17   14.45    0.57
   4   7 -17   14.22    0.54
   4  -7 -16    7.02    0.38
   4   7 -16    7.00    0.39
   4   7 -16    7.05    0.38
   4   7 -16    6.32    0.27
   4  -7 -15    9.27    0.43
   4   7 -15    9.73    0.43
   4   7 -15    9.25    0.32
   4   7 -14    0.09    0.05
  -4  -7  14    0.13    0.06
   4  -7 -14    0.16    0.09
   4   7 -14    0.19    0.10
   4   7 -13    0.68    0.09
  -4  -7  13    0.65    0.08
   4  -7 -13    0.72    0.14
   4   7 -13    0.73    0.13
   4   7 -12    6.47    0.35
  -4  -7  12    6.44    0.20
   4  -7 -12    7.20    0.35
   4   7 -11   35.95    0.78
  -4  -7  11   36.21    0.45
   4  -7 -11   37.09    0.77
   4   7 -10    3.29    0.24
  -4  -7  10    3.19    0.12
   4  -7 -10    3.35    0.24
   4   7  -9   31.37    0.72
  -4  -7   9   30.52    0.34
   4  -7  -9   31.36    0.68
   4   7  -8    6.63    0.33
  -4  -7   8    6.60    0.13
   4  -7  -8    6.57    0.31
   4   7  -7    4.53    0.28
   4  -7  -7    4.44    0.25
   4  -7  -6    0.61    0.10
   4   7  -6    0.75    0.12
   4   7  -5   14.41    0.46
   4   7  -4    1.29    0.14
   4   7  -3    2.79    0.20
   4   7  -2    2.13    0.18
   4   7  -1    0.66    0.11
   4   7   0    0.48    0.09
   4   7   1    0.62    0.10
   4   7   2    0.03    0.05
   4   7   3    0.05    0.06
   4   7   4    0.14    0.06
   4   7   5    4.32    0.24
   4   7   6    0.35    0.06
   4   7   6    0.33    0.08
   4   7   7   20.11    0.39
   4   7   7   20.77    0.50
   4   7   8    0.04    0.07
   4   7   9   30.28    0.59
  -4   7  -9   29.54    0.63
   4   7  10    4.71    0.24
  -4   7 -10    5.55    0.28
  -4  -7 -10    4.86    0.23
   4   7  11    2.91    0.19
  -4   7 -11    2.85    0.21
  -4  -7 -11    3.05    0.18
   4   7  12    2.16    0.16
  -4   7 -12    2.35    0.20
   4   7  13    9.96    0.32
  -4   7 -13    9.37    0.39
   4   7  14   10.44    0.31
  -4   7 -14   10.10    0.43
  -4   7 -15    7.28    0.37
  -4   7 -16    2.00    0.21
  -4   7 -17    2.06    0.22
  -4   7 -18    4.78    0.34
  -4   7 -19    3.24    0.29
  -4   7 -19    3.46    0.31
  -4   7 -20    0.56    0.15
  -4   7 -20    0.45    0.15
  -4   7 -21    3.25    0.30
  -4   7 -21    2.54    0.28
  -4   7 -22    0.81    0.18
  -4   7 -22    0.58    0.15
  -4   7 -23    0.70    0.17
  -4   7 -23    0.70    0.17
  -4   7 -24    0.02    0.10
  -4   7 -24    0.03    0.10
  -4   7 -25   -0.08    0.12
   4   8 -26    0.18    0.16
   4   8 -25    3.33    0.30
   4   8 -25    2.94    0.34
   4   8 -24    2.43    0.26
   4   8 -24    2.11    0.29
   4   8 -23    1.26    0.19
   4   8 -23    1.27    0.23
   4   8 -22    8.76    0.52
   4   8 -22    9.14    0.48
   4   8 -21    2.98    0.28
   4   8 -21    2.31    0.28
   4   8 -20    1.47    0.19
   4   8 -20    1.21    0.20
   4   8 -19    0.30    0.09
   4   8 -19    0.28    0.11
   4   8 -18    4.58    0.35
   4   8 -18    4.54    0.33
   4   8 -17    0.10    0.07
   4   8 -17    0.11    0.10
   4   8 -16    3.87    0.21
   4  -8 -16    3.52    0.28
   4   8 -16    3.77    0.30
   4  -8 -15    8.14    0.41
   4   8 -15    7.74    0.41
   4   8 -15    8.06    0.29
   4  -8 -14    3.27    0.26
   4   8 -14    2.97    0.26
   4   8 -14    3.37    0.19
   4  -8 -13   12.54    0.48
   4   8 -13   11.92    0.49
   4   8 -13   12.82    0.35
   4   8 -12    0.65    0.09
   4  -8 -12    0.72    0.13
   4   8 -12    0.73    0.13
  -4  -8  11    4.67    0.15
   4   8 -11    4.69    0.30
   4  -8 -11    4.78    0.29
   4  -8 -10    1.86    0.19
   4   8 -10    2.03    0.20
   4  -8  -9    1.06    0.14
   4   8  -9    1.05    0.15
   4   8  -8   13.66    0.49
   4  -8  -8   14.03    0.46
   4   8  -7   25.70    0.66
   4  -8  -7   27.01    0.61
   4   8  -6   15.72    0.51
   4  -8  -6   15.58    0.46
   4  -8  -5    0.02    0.07
   4   8  -5    0.18    0.10
   4   8  -4    3.68    0.25
   4  -8  -4    3.47    0.21
   4   8  -3    0.76    0.12
   4   8  -2    0.33    0.08
   4   8  -1    5.63    0.30
   4   8   0    0.59    0.10
   4   8   1    0.95    0.12
   4   8   2    1.47    0.15
   4   8   3    0.76    0.12
   4   8   4   18.92    0.52
   4   8   5    0.39    0.06
   4   8   5    0.40    0.10
   4   8   6    8.96    0.35
   4   8   6    8.89    0.24
   4   8   7    1.49    0.15
   4   8   7    1.77    0.12
   4   8   8    0.06    0.06
   4   8   9    3.02    0.20
  -4   8  -9    3.44    0.23
   4   8  10    6.41    0.28
  -4   8 -10    6.57    0.31
   4   8  11    5.62    0.27
  -4   8 -11    5.73    0.30
   4   8  12    0.57    0.10
  -4   8 -12    0.47    0.11
   4   8  13    0.67    0.10
  -4   8 -13    0.77    0.13
  -4   8 -14    0.23    0.10
  -4   8 -15    1.78    0.19
  -4   8 -16    2.01    0.21
  -4   8 -17   14.03    0.54
  -4   8 -18    8.26    0.44
  -4   8 -19    0.84    0.17
  -4   8 -20    5.09    0.36
  -4   8 -20    4.63    0.36
  -4   8 -20    4.97    0.32
  -4   8 -21    0.20    0.10
  -4   8 -21    0.13    0.10
  -4   8 -21    0.17    0.11
  -4   8 -22   -0.02    0.10
  -4   8 -22    0.17    0.11
  -4   8 -23    1.82    0.25
  -4   8 -23    0.80    0.18
  -4   8 -24    0.34    0.15
  -4   8 -24    0.46    0.16
   4   9 -25    1.52    0.22
   4   9 -25    1.71    0.28
   4   9 -24    1.00    0.18
   4   9 -24    0.86    0.21
   4   9 -23    1.69    0.22
   4   9 -23    1.24    0.24
   4   9 -22    0.43    0.15
   4   9 -22    0.56    0.14
   4   9 -21    3.15    0.30
   4   9 -21    3.10    0.32
   4   9 -20    0.80    0.15
   4   9 -20    1.00    0.20
   4   9 -19    1.49    0.20
   4   9 -19    1.83    0.23
   4   9 -18    4.32    0.33
   4   9 -17   29.38    0.83
   4   9 -16    7.13    0.42
   4   9 -15    6.36    0.38
   4  -9 -14    4.03    0.29
   4   9 -14    4.16    0.31
   4   9 -14    4.48    0.20
   4  -9 -13    2.84    0.24
   4   9 -13    3.03    0.26
   4   9 -13    2.88    0.16
   4  -9 -12   -0.03    0.08
   4   9 -12    0.06    0.10
   4   9 -12    0.09    0.05
   4  -9 -11    7.82    0.37
   4   9 -11    8.03    0.41
   4  -9 -10    0.14    0.08
   4   9 -10    0.04    0.07
   4  -9  -9    0.65    0.13
   4   9  -9    0.31    0.11
   4   9  -8    6.93    0.37
   4  -9  -8    8.23    0.36
   4  -9  -7    1.23    0.15
   4   9  -7    1.24    0.16
   4  -9  -6    0.55    0.11
   4   9  -6    0.28    0.10
   4   9  -5   10.27    0.43
   4  -9  -5   10.12    0.37
   4   9  -4   18.11    0.56
   4  -9  -4   17.45    0.47
   4   9  -3   47.13    0.90
   4  -9  -3   47.35    0.76
   4   9  -2    2.56    0.22
   4  -9  -2    2.21    0.17
   4   9  -1    2.94    0.23
   4   9   0    7.26    0.35
   4   9   1    1.25    0.15
   4   9   2    0.28    0.08
   4   9   3    0.26    0.09
   4   9   4    2.69    0.21
   4   9   5    3.21    0.23
   4   9   5    3.20    0.14
   4   9   6    0.44    0.10
   4   9   6    0.44    0.06
   4   9   7    6.32    0.22
   4   9   7    6.25    0.31
   4   9   8    9.17    0.36
   4   9   9   11.08    0.40
  -4   9  -9   11.37    0.41
   4   9  10    0.47    0.09
  -4   9 -10    0.62    0.11
   4   9  11    0.05    0.07
  -4   9 -11    0.10    0.09
   4   9  12   14.49    0.44
  -4   9 -12   14.27    0.49
   4   9  13   19.37    0.50
  -4   9 -13   19.21    0.58
  -4   9 -14    0.23    0.11
  -4   9 -15    2.98    0.26
  -4   9 -16    1.86    0.21
  -4   9 -17    2.65    0.25
  -4   9 -18    2.12    0.23
  -4   9 -19    0.37    0.11
  -4   9 -19    0.14    0.12
  -4   9 -20    6.41    0.41
  -4   9 -20    5.39    0.35
  -4   9 -21    3.26    0.31
  -4   9 -21    3.30    0.32
  -4   9 -21    3.63    0.29
  -4   9 -22    0.80    0.17
  -4   9 -22    0.66    0.17
  -4   9 -23    0.21    0.12
  -4   9 -23    0.16    0.10
   4  10 -25    0.99    0.20
   4  10 -24    0.57    0.15
   4  10 -24    0.82    0.20
   4  10 -23   -0.09    0.12
   4  10 -23    0.16    0.14
   4  10 -22    2.04    0.25
   4  10 -22    1.78    0.26
   4  10 -21    0.13    0.09
   4  10 -21    0.26    0.11
   4  10 -20    1.40    0.21
   4  10 -20    1.34    0.22
   4  10 -19    0.12    0.11
   4  10 -18    0.01    0.08
   4  10 -17    0.31    0.13
   4  10 -16    0.66    0.15
   4  10 -15    9.56    0.48
   4  10 -14    2.51    0.26
   4 -10 -13   11.62    0.48
   4  10 -13   10.37    0.49
   4 -10 -12    1.39    0.18
   4  10 -12    1.30    0.19
   4 -10 -11    8.23    0.38
   4  10 -11    8.10    0.43
   4  10 -10    0.05    0.08
   4 -10 -10    0.09    0.08
   4 -10  -9    7.95    0.36
   4  10  -9    7.83    0.41
   4 -10  -8    0.50    0.11
   4  10  -8    0.57    0.13
   4  10  -7    2.39    0.23
   4 -10  -7    2.74    0.21
   4 -10  -6    0.89    0.13
   4  10  -6    0.54    0.13
   4 -10  -5    0.33    0.09
   4  10  -5    0.25    0.10
   4  10  -4    3.80    0.27
   4 -10  -4    3.99    0.23
   4  10  -3    5.41    0.32
   4 -10  -3    5.38    0.26
   4 -10  -2    0.13    0.06
   4  10  -2    0.24    0.10
   4  10  -1    7.16    0.37
   4 -10  -1    6.99    0.28
   4  10   0   12.66    0.47
   4 -10   0   12.37    0.37
   4  10   1    3.34    0.25
   4  10   2    1.42    0.17
   4  10   3   -0.04    0.07
   4  10   4    1.97    0.19
   4  10   5    0.12    0.04
   4  10   5    0.15    0.08
   4  10   6    0.42    0.10
   4  10   7    6.53    0.33
   4  10   8    1.19    0.16
   4  10   9   17.43    0.52
  -4  10  -9   16.91    0.52
   4  10  10    2.72    0.21
  -4  10 -10    2.53    0.22
   4  10  11    7.56    0.34
  -4  10 -11    7.86    0.37
   4  10  12    0.04    0.07
  -4  10 -12    0.28    0.09
  -4  10 -13    2.98    0.24
  -4  10 -14   -0.02    0.08
  -4  10 -15   -0.05    0.09
  -4  10 -16    0.89    0.16
  -4  10 -17   14.30    0.56
  -4  10 -18    1.93    0.24
  -4  10 -19    5.73    0.38
  -4  10 -19    5.28    0.36
  -4  10 -20    0.37    0.12
  -4  10 -20    0.40    0.13
  -4  10 -21   -0.08    0.09
  -4  10 -21    0.08    0.11
  -4  10 -22    0.36    0.13
  -4  10 -22    0.50    0.16
  -4  10 -23   -0.04    0.10
   4  11 -25    0.27    0.14
   4  11 -24    0.15    0.12
   4  11 -23    0.24    0.12
   4  11 -23    0.24    0.15
   4  11 -22    0.70    0.16
   4  11 -22    0.52    0.16
   4  11 -21    0.13    0.11
   4  11 -21    0.00    0.12
   4  11 -20   -0.04    0.08
   4  11 -19    1.71    0.23
   4  11 -18    0.43    0.12
   4  11 -17    0.51    0.15
   4  11 -16    2.39    0.26
   4  11 -15    0.02    0.09
   4  11 -14    0.96    0.19
   4  11 -13    4.99    0.36
   4  11 -12    9.97    0.50
   4 -11 -11    7.80    0.38
   4  11 -11    6.90    0.42
   4 -11 -10   19.61    0.59
   4  11 -10   18.58    0.66
   4 -11  -9   11.21    0.44
   4  11  -9   10.08    0.49
   4 -11  -8   16.83    0.52
   4  11  -8   16.08    0.61
   4 -11  -7    6.25    0.32
   4  11  -7    6.35    0.38
   4 -11  -6    0.26    0.09
   4  11  -6    0.21    0.11
   4  11  -5    1.84    0.20
   4 -11  -5    2.01    0.18
   4  11  -4    1.88    0.20
   4 -11  -4    2.01    0.17
   4  11  -3    1.74    0.20
   4 -11  -3    1.75    0.16
   4  11  -2   11.60    0.49
   4 -11  -2   11.46    0.37
   4 -11  -1    0.13    0.06
   4  11  -1    0.23    0.10
   4 -11   0    0.15    0.06
   4  11   0    0.04    0.07
   4  11   1    5.43    0.32
   4 -11   1    5.27    0.24
   4 -11   2    0.15    0.06
   4  11   2    0.17    0.09
   4  11   3    2.26    0.22
   4 -11   3    2.36    0.15
   4  11   4    1.57    0.18
   4  11   5    6.87    0.36
   4  11   6    0.02    0.07
   4  11   7    1.12    0.16
   4  11   8   10.17    0.43
   4  11   9    0.11    0.09
  -4  11  -9    0.23    0.10
   4  11  10    7.85    0.36
  -4  11 -10    7.62    0.36
   4  11  11    1.98    0.20
  -4  11 -11    1.86    0.20
   4  11  12    3.43    0.24
  -4  11 -12    3.28    0.26
  -4  11 -13    5.28    0.32
  -4  11 -14    1.01    0.16
  -4  11 -15    0.05    0.09
  -4  11 -16    2.08    0.23
  -4  11 -17    0.68    0.14
  -4  11 -18    1.94    0.24
  -4  11 -18    1.70    0.21
  -4  11 -19    0.21    0.14
  -4  11 -19    0.00    0.09
  -4  11 -20    1.96    0.24
  -4  11 -20    2.33    0.26
  -4  11 -21    0.50    0.14
  -4  11 -21    0.27    0.10
  -4  11 -22    0.30    0.14
   4  12 -23    0.71    0.20
   4  12 -22    0.89    0.19
   4  12 -21    0.47    0.15
   4  12 -20    1.01    0.20
   4  12 -19    0.49    0.16
   4  12 -18    1.24    0.21
   4  12 -17    1.22    0.21
   4  12 -16    1.50    0.22
   4  12 -15    7.06    0.45
   4  12 -14    3.57    0.33
   4  12 -13    8.81    0.49
   4  12 -12    5.42    0.39
   4  12 -11   13.41    0.59
   4  12 -10    0.38    0.13
   4  12  -9    2.11    0.24
   4  12  -8    1.40    0.20
   4 -12  -8    1.45    0.18
   4 -12  -7   12.46    0.45
   4  12  -7   12.46    0.55
   4 -12  -6    0.15    0.08
   4  12  -6    0.25    0.14
   4 -12  -5    5.00    0.27
   4  12  -5    5.12    0.35
   4 -12  -4    6.19    0.30
   4  12  -4    6.48    0.39
   4  12  -3   11.38    0.51
   4 -12  -3   11.80    0.39
   4 -12  -2    0.18    0.08
   4  12  -2    0.29    0.11
   4 -12  -1    0.48    0.09
   4  12  -1    0.29    0.10
   4  12   0    3.54    0.29
   4 -12   0    4.13    0.22
   4  12   1   10.67    0.48
   4 -12   1   10.32    0.33
   4  12   2    6.26    0.37
   4 -12   2    6.88    0.26
   4 -12   3    0.04    0.05
   4  12   3    0.24    0.10
   4  12   4   -0.04    0.07
   4  12   5    0.18    0.09
   4  12   6    0.74    0.14
   4  12   7    0.82    0.15
   4  12   8    6.01    0.34
   4  12   9    4.42    0.30
  -4  12  -9    4.13    0.27
   4  12  10    0.71    0.13
  -4  12 -10    0.78    0.13
   4  12  11    3.27    0.25
  -4  12 -11    2.99    0.24
  -4  12 -12    0.66    0.13
  -4  12 -13    0.70    0.14
  -4  12 -14    0.33    0.11
  -4  12 -15    3.24    0.27
  -4  12 -16    0.59    0.14
  -4  12 -17    3.14    0.30
  -4  12 -17    3.45    0.29
  -4  12 -18    0.01    0.09
  -4  12 -18    0.06    0.10
  -4  12 -19    0.95    0.19
  -4  12 -19    0.92    0.17
  -4  12 -20    0.33    0.13
  -4  12 -20    0.22    0.10
  -4  12 -21    0.28    0.13
  -4  12 -21    0.17    0.11
   4  13 -20    0.76    0.19
   4  13 -19    1.29    0.23
   4  13 -18    1.97    0.26
   4  13 -17   -0.16    0.11
   4  13 -16    1.06    0.19
   4  13 -15    0.02    0.11
   4  13 -14    0.56    0.14
   4  13 -13    1.34    0.21
   4  13 -12    2.01    0.26
   4  13 -11    2.15    0.26
   4  13 -10    7.68    0.47
   4  13  -9    2.09    0.26
   4  13  -8    1.90    0.24
   4  13  -7    6.93    0.43
   4  13  -6    1.20    0.20
   4  13  -5    1.03    0.18
   4 -13  -4   -0.03    0.07
   4  13  -4    0.11    0.10
   4 -13  -3    0.80    0.11
   4  13  -3    0.44    0.13
   4 -13  -2    2.79    0.19
   4  13  -2    2.64    0.27
   4 -13  -1   19.93    0.48
   4  13  -1   18.03    0.66
   4 -13   0    5.07    0.24
   4  13   0    4.64    0.35
   4  13   1    1.37    0.20
   4  13   2    1.98    0.23
   4  13   3    1.29    0.19
   4  13   4    2.43    0.24
   4  13   5    4.76    0.33
   4  13   6    0.03    0.10
   4  13   7    1.52    0.19
   4  13   8    2.10    0.22
  -4  13  -9    0.45    0.12
   4  13   9    0.66    0.13
  -4  13 -10    1.28    0.16
   4  13  10    1.20    0.17
  -4  13 -11    0.51    0.12
  -4  13 -12    0.87    0.15
  -4  13 -13    0.24    0.10
  -4  13 -14    4.14    0.31
  -4  13 -15    0.12    0.11
  -4  13 -16    2.48    0.29
  -4  13 -16    2.24    0.24
  -4  13 -17    0.85    0.19
  -4  13 -17    0.39    0.12
  -4  13 -18    0.07    0.11
  -4  13 -18    0.09    0.10
  -4  13 -19    0.34    0.16
  -4  13 -19    0.24    0.12
  -4  13 -20    2.05    0.25
  -4  13 -20    2.24    0.29
   4  14 -17   -0.07    0.12
   4  14 -16    1.11    0.21
   4  14 -15    0.42    0.14
   4  14 -14    0.12    0.10
   4  14 -13    1.97    0.26
   4  14 -12    2.21    0.27
   4  14 -11   -0.03    0.10
   4  14 -10    0.78    0.17
   4  14  -9    0.60    0.16
   4  14  -8    0.03    0.10
   4  14  -7    3.54    0.33
   4  14  -6    0.50    0.13
   4  14  -5    1.69    0.23
   4  14  -4    1.75    0.24
   4  14  -3    0.23    0.10
   4  14  -2    1.88    0.24
   4  14  -1    0.47    0.14
   4  14   0    0.02    0.09
   4  14   1    7.61    0.44
   4  14   2   -0.17    0.10
   4  14   3    0.53    0.14
   4  14   4    0.63    0.14
   4  14   5    0.42    0.13
   4  14   6    1.91    0.23
   4  14   7    1.80    0.22
  -4  14  -8    1.30    0.16
   4  14   8    1.25    0.18
   4  14   9    2.65    0.25
  -4  14  -9    2.77    0.24
   4  14  10    0.28    0.10
  -4  14 -10    0.39    0.09
  -4  14 -11    0.02    0.08
  -4  14 -12    0.55    0.12
  -4  14 -13    0.11    0.09
  -4  14 -14    0.24    0.12
  -4  14 -14    0.14    0.13
  -4  14 -15    0.93    0.20
  -4  14 -15    0.82    0.16
  -4  14 -16    0.43    0.15
  -4  14 -16    0.47    0.14
  -4  14 -17    2.38    0.25
  -4  14 -18    0.50    0.15
  -4  14 -19    3.80    0.34
   4  15 -13    0.23    0.14
   4  15 -12    0.94    0.20
   4  15 -11    0.48    0.16
   4  15 -10    1.12    0.21
   4  15  -9    1.58    0.23
   4  15  -8    0.67    0.17
   4  15  -7    0.28    0.13
   4  15  -6    1.01    0.20
   4  15  -5    0.59    0.16
   4  15  -4    0.66    0.15
   4  15  -3    1.37    0.22
   4  15  -2    1.27    0.22
   4  15  -1    1.62    0.23
   4  15   0    5.56    0.41
   4  15   1    0.07    0.11
   4  15   2    0.26    0.13
   4  15   3    0.15    0.10
   4  15   4    0.47    0.14
   4  15   5    3.50    0.31
   4  15   6    3.24    0.30
   4  15   7    0.41    0.13
  -4  15  -8    0.19    0.10
   4  15   8    0.19    0.11
   4  15   9    1.20    0.19
  -4  15  -9    0.99    0.16
  -4  15 -10    4.55    0.31
  -4  15 -11    0.03    0.08
  -4  15 -12    1.72    0.21
  -4  15 -13    1.27    0.19
  -4  15 -14    1.24    0.19
  -4  15 -15    2.19    0.25
  -4  15 -16    1.10    0.19
   4  16  -9    0.21    0.13
   4  16  -8    0.06    0.09
   4  16  -7    0.18    0.13
   4  16  -6    0.37    0.15
   4  16  -5    2.03    0.27
   4  16  -4    0.55    0.17
   4  16  -3    0.58    0.16
   4  16  -2    0.15    0.12
   4  16  -1    0.27    0.13
   4  16   0    2.06    0.27
   4  16   1    2.57    0.30
   4  16   2    0.14    0.12
   4  16   3    4.73    0.38
   4  16   4    1.29    0.22
   4  16   5    0.81    0.18
   4  16   6    0.60    0.16
   4  16   7    1.23    0.21
  -4  16  -8    1.50    0.19
   4  16   8    1.61    0.24
  -4  16  -9    2.73    0.25
  -4  16 -10    0.74    0.15
   4  17  -3    0.44    0.14
   4  17  -2    2.28    0.30
   4  17  -1    0.22    0.13
   4  17   0    2.23    0.28
   4  17   1    1.41    0.24
   4  17   2    0.15    0.14
   4  17   3    0.16    0.12
   4  17   4    4.91    0.40
   4  17   5    0.30    0.16
   4  17   6    3.98    0.36
   4  17   7    0.43    0.13
   4  18   4   -0.01    0.13
   4  18   5   -0.10    0.12
   4  18   6    0.08    0.12
   5   0 -28    0.31    0.17
   5   0 -27    6.91    0.49
   5   0 -26    0.17    0.12
   5   0 -25    3.80    0.34
   5   0 -24    0.04    0.10
   5   0 -23    0.61    0.12
   5   0 -23    0.70    0.17
   5   0 -23    0.87    0.16
   5   0 -22   -0.08    0.10
   5   0 -22    0.04    0.07
   5   0 -22   -0.04    0.08
   5   0 -21    0.31    0.09
   5   0 -21    0.46    0.13
   5   0 -21    0.52    0.14
   5   0 -20   -0.12    0.08
   5   0 -20   -0.07    0.10
   5   0 -20    0.02    0.08
   5   0 -19    1.47    0.16
   5   0 -19    1.52    0.18
   5   0 -19    1.28    0.18
   5   0 -18   -0.03    0.07
   5   0 -18   -0.03    0.08
   5   0 -18   -0.05    0.08
   5   0 -17    1.14    0.14
   5   0 -17    0.98    0.15
   5   0 -17    1.02    0.14
   5   0 -16   -0.13    0.10
   5   0 -16   -0.07    0.07
   5   0 -16   -0.05    0.07
   5   0 -15    0.19    0.09
   5   0 -15    0.12    0.08
   5   0 -15    0.17    0.08
   5   0 -14   -0.12    0.08
   5   0 -14   -0.16    0.08
   5   0 -13    1.64    0.16
   5   0 -13    1.68    0.17
   5   0 -12   -0.06    0.08
   5   0 -12    0.07    0.07
   5   0 -11    3.77    0.21
   5   0 -11    4.18    0.25
   5   0 -10    0.05    0.06
   5   0 -10   -0.05    0.05
  -5   0  10   -0.04    0.07
   5   0  -9   18.21    0.42
   5   0  -9   17.87    0.51
  -5   0   9   17.78    0.41
   5   0  -8    0.00    0.04
   5   0  -8   -0.04    0.06
  -5   0   8   -0.01    0.04
  -5   0   7    1.37    0.11
   5   0  -7    1.20    0.13
   5   0  -6   -0.03    0.05
  -5   0   6   -0.03    0.03
   5   0  -5    0.23    0.06
  -5   0   5    0.19    0.04
   5   0  -4   -0.10    0.07
  -5   0   4   -0.02    0.03
   5   0  -3   13.40    0.42
   5   0  -2    0.00    0.06
   5   0  -1    0.73    0.11
   5   0   0    0.03    0.06
   5   0   1    0.39    0.08
   5   0   2    0.07    0.06
   5   0   3   16.40    0.45
   5   0   4   -0.03    0.06
  -5   0  -4    0.00    0.02
  -5   0  -5    7.66    0.17
   5   0   5    6.94    0.29
  -5   0  -5    7.84    0.27
   5   0   6   -0.07    0.06
  -5   0  -6    0.00    0.03
  -5   0  -6   -0.02    0.05
   5   0   7    3.98    0.22
  -5   0  -7    3.81    0.15
  -5   0  -7    4.27    0.21
  -5   0  -8    0.01    0.03
  -5   0  -8    0.10    0.05
  -5   0  -9    4.42    0.19
  -5   0  -9    4.52    0.23
  -5   0  -9    4.45    0.23
  -5   0 -10    0.02    0.05
  -5   0 -10   -0.03    0.06
  -5   0 -10   -0.02    0.04
  -5   0 -11    2.42    0.17
  -5   0 -11    2.14    0.15
  -5   0 -11    2.17    0.18
  -5   0 -12    0.01    0.05
  -5   0 -12   -0.02    0.06
  -5   0 -12    0.07    0.07
  -5   0 -13    5.89    0.31
  -5   0 -13    5.36    0.26
  -5   0 -13    5.88    0.26
  -5   0 -14    0.12    0.10
  -5   0 -14    0.08    0.07
  -5   0 -14    0.04    0.07
  -5   0 -15   32.04    0.76
  -5   0 -15   28.69    0.65
  -5   0 -16    0.32    0.10
  -5   0 -16    0.33    0.13
  -5   0 -17   25.11    0.70
  -5   0 -17   23.40    0.64
  -5   0 -18    0.07    0.10
  -5   0 -18    0.07    0.09
  -5   0 -19    1.50    0.19
  -5   0 -19    1.43    0.19
  -5   0 -20    0.04    0.08
  -5   0 -21    0.33    0.12
  -5   0 -22   -0.01    0.08
  -5   0 -23    0.49    0.13
  -5   0 -24    0.28    0.13
  -5   0 -25    0.14    0.13
  -5   0 -26    0.07    0.10
  -5   0 -27    0.38    0.14
  -5   0 -28    0.08    0.12
   5   1 -28    9.55    0.58
   5   1 -27    1.06    0.22
   5  -1 -26    0.60    0.18
   5   1 -26    0.55    0.18
   5  -1 -25    0.62    0.18
   5   1 -25    0.39    0.15
   5  -1 -24    3.06    0.32
   5   1 -24    2.66    0.29
   5  -1 -23    2.77    0.29
   5   1 -23    1.94    0.20
   5   1 -23    2.25    0.24
   5   1 -23    1.98    0.24
   5  -1 -22    6.35    0.42
   5   1 -22    5.92    0.40
   5   1 -22    5.90    0.33
   5   1 -22    5.84    0.35
   5  -1 -22    5.93    0.32
   5  -1 -22    6.23    0.38
   5  -1 -21    0.45    0.10
   5   1 -21    0.46    0.12
   5  -1 -21    0.51    0.14
   5   1 -21    0.74    0.16
   5   1 -21    0.56    0.14
   5  -1 -21    0.53    0.15
   5   1 -20    2.00    0.20
   5  -1 -20    1.73    0.18
   5  -1 -20    1.97    0.22
   5   1 -20    2.01    0.21
   5  -1 -20    1.81    0.20
   5   1 -20    1.70    0.21
   5   1 -19    1.81    0.19
   5  -1 -19    1.32    0.16
   5  -1 -19    1.65    0.20
   5   1 -19    1.58    0.19
   5  -1 -19    1.64    0.20
   5   1 -19    1.81    0.21
   5  -1 -18    0.53    0.12
   5   1 -18    0.40    0.11
   5   1 -18    0.21    0.09
   5  -1 -18    0.57    0.13
   5  -1 -18    0.24    0.10
   5   1 -18    0.32    0.10
   5   1 -17    0.75    0.13
   5  -1 -17    0.82    0.13
   5  -1 -17    0.97    0.15
   5   1 -17    0.74    0.13
   5  -1 -17    0.76    0.13
   5   1 -17    0.44    0.11
   5  -1 -16    0.52    0.11
   5   1 -16    0.38    0.11
   5  -1 -16    0.31    0.10
   5  -1 -16    0.26    0.09
   5   1 -16    0.43    0.10
   5   1 -16    0.57    0.11
   5  -1 -15    2.21    0.20
   5   1 -15    2.08    0.20
   5  -1 -15    2.29    0.20
   5   1 -15    2.29    0.20
   5   1 -15    2.24    0.20
   5  -1 -15    2.30    0.21
   5  -1 -14   11.53    0.42
   5  -1 -14   12.28    0.44
   5   1 -14   11.74    0.43
   5   1 -14   11.54    0.43
   5   1 -14   11.92    0.43
   5  -1 -14   11.20    0.44
   5  -1 -13   -0.04    0.07
   5  -1 -13    0.00    0.08
   5   1 -13    0.08    0.08
   5  -1 -13    0.14    0.09
   5   1 -13    0.13    0.09
   5  -1 -12   23.74    0.60
   5   1 -12   23.41    0.55
   5   1 -12   23.83    0.60
   5  -1 -11    0.09    0.08
   5   1 -11    0.05    0.07
   5   1 -11    0.12    0.06
   5  -1 -10   14.80    0.46
   5   1 -10   14.11    0.39
   5   1 -10   13.99    0.45
  -5   1  10   14.36    0.40
   5  -1  -9    2.65    0.20
  -5   1   9    2.67    0.17
   5   1  -9    2.54    0.16
   5   1  -9    2.62    0.20
   5   1  -8    4.96    0.21
  -5   1   8    4.93    0.21
   5   1  -8    4.87    0.27
   5  -1  -8    4.96    0.27
   5  -1  -7    0.17    0.08
   5   1  -7    0.23    0.08
   5   1  -7    0.21    0.05
  -5   1   7    0.30    0.06
   5   1  -6    2.20    0.12
  -5   1   6    2.42    0.14
   5  -1  -6    2.47    0.19
   5   1  -6    2.40    0.19
   5   1  -5    0.88    0.07
  -5   1   5    0.96    0.08
   5  -1  -5    0.98    0.13
   5   1  -5    1.03    0.13
   5  -1  -4   71.04    0.98
  -5   1   4   70.40    0.62
   5   1  -4   72.90    0.98
   5  -1  -3    0.38    0.09
   5   1  -3    0.61    0.12
  -5   1   3    0.53    0.05
   5  -1  -2    0.17    0.07
   5   1  -2    0.11    0.07
  -5   1   2    0.09    0.03
  -5   1   1   19.60    0.24
   5  -1  -1   20.27    0.51
   5   1  -1   19.19    0.50
   5  -1   0   41.96    0.74
   5   1   0   42.48    0.73
   5   1   1   11.63    0.38
   5  -1   1   11.29    0.39
   5   1   2   53.25    0.82
   5  -1   2   53.38    0.82
   5  -1   3    0.37    0.09
   5   1   3    0.48    0.09
   5   1   4    8.10    0.32
  -5  -1  -4    8.37    0.26
   5  -1   4    8.64    0.33
   5   1   5   12.39    0.39
  -5   1  -5   12.38    0.25
  -5  -1  -5   12.31    0.33
   5   1   6    1.66    0.15
  -5   1  -6    1.78    0.11
  -5  -1  -6    1.65    0.14
  -5   1  -6    1.86    0.15
  -5  -1  -6    1.75    0.13
   5   1   7    4.53    0.23
  -5  -1  -7    4.52    0.16
  -5   1  -7    4.61    0.18
  -5  -1  -7    4.53    0.23
  -5   1  -7    4.53    0.23
  -5  -1  -7    4.58    0.22
   5   1   8    4.25    0.22
  -5  -1  -8    4.60    0.18
  -5  -1  -8    4.00    0.21
  -5   1  -8    4.07    0.18
  -5   1  -8    4.83    0.24
  -5  -1  -8    4.11    0.22
   5   1   9    0.22    0.07
  -5  -1  -9    0.11    0.05
  -5  -1  -9    0.24    0.07
  -5  -1  -9    0.19    0.05
  -5   1  -9    0.23    0.06
  -5   1  -9    0.15    0.06
  -5  -1 -10    6.19    0.24
  -5   1 -10    5.95    0.24
  -5  -1 -10    6.11    0.26
  -5   1 -10    5.83    0.28
  -5  -1 -10    6.55    0.29
  -5  -1 -11    1.76    0.16
  -5  -1 -11    1.99    0.15
  -5  -1 -11    2.11    0.15
  -5   1 -11    1.89    0.15
  -5   1 -11    2.14    0.18
  -5  -1 -12   10.35    0.39
  -5  -1 -12    9.41    0.33
  -5   1 -12    9.92    0.35
  -5  -1 -12    9.88    0.32
  -5   1 -12   10.03    0.39
  -5  -1 -13    4.93    0.29
  -5   1 -13    4.57    0.25
  -5  -1 -13    4.36    0.24
  -5  -1 -13    4.46    0.21
  -5   1 -13    4.39    0.27
  -5   1 -14    9.30    0.40
  -5  -1 -14    9.26    0.30
  -5  -1 -14    9.60    0.40
  -5   1 -14    9.22    0.36
  -5  -1 -14    9.13    0.35
  -5  -1 -15    0.13    0.09
  -5   1 -15   -0.07    0.08
  -5  -1 -15    0.04    0.06
  -5   1 -15    0.20    0.09
  -5  -1 -16    2.32    0.20
  -5   1 -16    2.27    0.22
  -5  -1 -16    2.30    0.22
  -5   1 -16    2.67    0.22
  -5  -1 -17    2.63    0.22
  -5   1 -17    2.19    0.21
  -5   1 -17    2.48    0.24
  -5  -1 -17    2.36    0.24
  -5  -1 -18    8.91    0.40
  -5   1 -18    9.26    0.45
  -5   1 -18    9.19    0.42
  -5  -1 -18    9.52    0.45
  -5  -1 -19    1.15    0.16
  -5   1 -19    0.90    0.15
  -5   1 -19    1.05    0.18
  -5  -1 -20    5.07    0.33
  -5   1 -20    5.63    0.35
  -5   1 -20    5.88    0.38
  -5   1 -21    0.08    0.11
  -5  -1 -21    0.30    0.11
  -5   1 -21    0.18    0.10
  -5  -1 -22    0.17    0.09
  -5   1 -22    0.06    0.08
  -5  -1 -23    0.27    0.12
  -5   1 -23    0.12    0.10
  -5  -1 -24    4.05    0.33
  -5   1 -24    4.15    0.35
  -5   1 -25    0.15    0.12
  -5  -1 -25    0.09    0.11
  -5  -1 -26    1.81    0.25
  -5   1 -26    1.68    0.24
  -5   1 -27   -0.17    0.13
   5   2 -28    1.27    0.24
   5   2 -27    2.80    0.33
   5   2 -26    0.58    0.18
   5   2 -25    1.34    0.21
   5   2 -24   -0.03    0.08
   5   2 -24   -0.17    0.13
   5   2 -23    2.54    0.23
   5   2 -23    2.35    0.27
   5  -2 -22    0.45    0.11
   5   2 -22    0.30    0.11
   5   2 -22    0.45    0.14
   5   2 -22    0.22    0.11
   5  -2 -22    0.33    0.14
   5  -2 -21    1.34    0.16
   5   2 -21    1.52    0.18
   5   2 -21    1.24    0.16
   5   2 -21    1.17    0.18
   5  -2 -21    1.37    0.20
   5  -2 -20    3.57    0.28
   5   2 -20    3.76    0.30
   5  -2 -20    3.97    0.26
   5   2 -20    3.93    0.28
   5   2 -20    3.83    0.28
   5  -2 -19    4.77    0.28
   5   2 -19    4.18    0.28
   5   2 -19    4.64    0.33
   5   2 -19    4.13    0.29
   5  -2 -19    4.38    0.31
   5  -2 -18    0.86    0.13
   5  -2 -18    1.03    0.17
   5   2 -18    1.03    0.15
   5   2 -18    1.12    0.16
   5   2 -18    0.87    0.16
   5  -2 -17    6.61    0.33
   5   2 -17    6.91    0.37
   5   2 -17    6.36    0.34
   5   2 -17    6.31    0.33
   5  -2 -17    6.81    0.36
   5  -2 -16    0.19    0.08
   5   2 -16    0.01    0.07
   5  -2 -16   -0.11    0.10
   5   2 -16    0.05    0.08
   5   2 -16    0.04    0.08
   5  -2 -15    3.74    0.24
   5   2 -15    3.96    0.27
   5   2 -15    4.11    0.27
   5   2 -15    3.64    0.25
   5  -2 -15    3.76    0.26
   5  -2 -14    4.82    0.28
   5   2 -14    4.48    0.28
   5   2 -14    4.65    0.28
   5   2 -14    4.55    0.27
   5  -2 -14    4.34    0.28
   5  -2 -13   -0.05    0.10
   5  -2 -13    0.02    0.07
   5   2 -13    0.04    0.07
   5   2 -13    0.04    0.07
   5  -2 -12    7.95    0.35
   5   2 -12    7.57    0.32
   5   2 -12    7.91    0.36
   5  -2 -11   14.50    0.47
   5   2 -11   14.35    0.42
   5   2 -11   14.31    0.47
   5  -2 -10    1.92    0.18
   5   2 -10    2.25    0.20
   5   2 -10    2.03    0.16
   5   2  -9   52.99    0.72
  -5   2   9   54.97    0.78
   5   2  -9   54.04    0.89
   5  -2  -9   52.93    0.86
   5  -2  -8    6.43    0.31
  -5   2   8    6.16    0.25
   5   2  -8    6.14    0.23
   5   2  -8    6.43    0.31
   5  -2  -7    5.75    0.29
  -5   2   7    5.68    0.23
   5   2  -7    5.29    0.28
   5   2  -7    5.32    0.20
   5  -2  -6    0.19    0.08
   5   2  -6    0.17    0.06
  -5   2   6    0.15    0.04
   5   2  -6    0.12    0.03
   5  -2  -5    0.40    0.10
   5   2  -5    0.38    0.08
  -5   2   5    0.48    0.06
   5   2  -5    0.40    0.05
   5   2  -4   -0.01    0.06
  -5   2   4    0.04    0.03
   5   2  -4    0.02    0.02
  -5   2   3    6.75    0.20
   5  -2  -3    6.26    0.30
   5   2  -3    6.37    0.14
   5   2  -3    6.32    0.29
   5  -2  -2   16.69    0.47
   5   2  -2   15.87    0.46
   5   2  -2   16.35    0.18
   5   2  -1   16.42    0.46
   5  -2  -1   16.73    0.47
   5  -2   0    8.31    0.33
   5   2   0    7.91    0.32
   5  -2   1    5.99    0.28
   5   2   1    5.51    0.27
   5   2   2   -0.08    0.08
   5   2   3    3.16    0.21
  -5  -2  -3    3.12    0.15
   5   2   4   36.17    0.67
  -5  -2  -4   36.22    0.53
   5   2   5   46.12    0.75
  -5  -2  -5   46.40    0.63
   5   2   6    2.36    0.18
  -5  -2  -6    2.09    0.16
  -5  -2  -6    2.21    0.15
   5   2   7   16.42    0.44
  -5  -2  -7   16.93    0.42
  -5   2  -7   16.01    0.43
  -5  -2  -7   16.19    0.40
   5   2   8    2.13    0.16
  -5  -2  -8    2.06    0.15
  -5   2  -8    2.18    0.14
  -5   2  -8    2.27    0.17
  -5  -2  -8    2.30    0.16
   5   2   9    1.74    0.15
  -5   2  -9    2.01    0.14
  -5  -2  -9    1.93    0.15
  -5   2  -9    2.09    0.17
  -5  -2  -9    2.00    0.16
  -5  -2 -10    3.95    0.23
   5   2  10    3.61    0.20
  -5   2 -10    3.40    0.19
  -5  -2 -10    3.54    0.19
  -5   2 -10    3.17    0.21
  -5   2 -11    0.15    0.07
   5   2  11    0.08    0.05
  -5  -2 -11    0.17    0.07
  -5  -2 -11    0.05    0.04
  -5   2 -11    0.07    0.05
  -5  -2 -12    5.84    0.24
  -5  -2 -12    6.29    0.31
  -5   2 -12    5.79    0.27
  -5   2 -12    6.36    0.31
  -5   2 -13    0.22    0.09
  -5  -2 -13    0.27    0.06
  -5   2 -13    0.21    0.07
  -5  -2 -13    0.27    0.09
  -5  -2 -14    2.11    0.19
  -5   2 -14    2.13    0.18
  -5   2 -14    2.22    0.21
  -5   2 -15    7.67    0.37
  -5  -2 -15    7.31    0.33
  -5   2 -15    7.43    0.35
  -5  -2 -15    7.85    0.37
  -5   2 -16    0.70    0.14
  -5  -2 -16    0.36    0.09
  -5   2 -16    0.43    0.11
  -5  -2 -16    0.46    0.11
  -5   2 -17    2.27    0.21
  -5   2 -17    2.29    0.23
  -5  -2 -18    2.35    0.21
  -5   2 -18    2.40    0.24
  -5   2 -18    2.45    0.23
  -5   2 -19    0.06    0.09
  -5   2 -19    0.07    0.08
  -5   2 -20    0.82    0.17
  -5   2 -20    0.35    0.12
  -5   2 -21    0.99    0.17
  -5   2 -21    1.17    0.19
  -5   2 -22    5.77    0.39
  -5   2 -22    5.71    0.39
  -5   2 -23    1.85    0.24
  -5   2 -24    0.39    0.13
  -5   2 -25    0.62    0.16
  -5   2 -26    0.12    0.13
  -5   2 -27    0.17    0.15
   5   3 -28    1.73    0.28
   5   3 -27   -0.16    0.14
   5   3 -26   -0.13    0.14
   5   3 -25    0.11    0.11
   5   3 -24    0.33    0.11
   5   3 -24    0.22    0.12
   5   3 -23    0.68    0.14
   5   3 -23    0.84    0.17
   5  -3 -22    4.93    0.35
   5   3 -22    5.09    0.33
   5   3 -22    4.88    0.37
   5   3 -22    4.82    0.32
   5   3 -21    0.33    0.12
   5  -3 -21    0.10    0.09
   5   3 -21    0.28    0.11
   5   3 -20    2.78    0.24
   5  -3 -20    2.68    0.25
   5   3 -20    2.95    0.28
   5   3 -20    2.84    0.24
   5   3 -19    0.18    0.10
   5   3 -19    0.07    0.09
   5  -3 -19    0.08    0.09
   5   3 -19    0.12    0.11
   5  -3 -18    1.21    0.15
   5   3 -18    1.31    0.15
   5  -3 -18    1.16    0.17
   5   3 -18    1.18    0.17
   5   3 -18    1.50    0.19
   5  -3 -17   19.29    0.54
   5   3 -17   19.47    0.62
   5   3 -17   19.29    0.60
   5   3 -17   19.94    0.58
   5  -3 -17   20.20    0.63
   5  -3 -16    7.44    0.34
   5   3 -16    7.15    0.37
   5   3 -16    6.79    0.35
   5   3 -16    7.14    0.35
   5  -3 -16    7.05    0.37
   5  -3 -15    2.45    0.21
   5   3 -15    2.22    0.21
   5   3 -15    1.81    0.17
   5   3 -15    2.00    0.19
   5  -3 -15    2.48    0.22
   5  -3 -14    9.03    0.37
   5   3 -14    8.80    0.38
   5   3 -14    9.26    0.40
   5   3 -14    8.94    0.37
   5  -3 -14    8.91    0.40
   5  -3 -13    2.65    0.21
   5   3 -13    2.92    0.21
   5   3 -13    2.87    0.22
   5  -3 -13    2.57    0.22
   5  -3 -12   20.09    0.55
   5   3 -12   20.26    0.53
   5   3 -12   19.32    0.56
   5  -3 -12   19.56    0.56
   5  -3 -11    0.43    0.10
   5   3 -11    0.53    0.11
   5   3 -11    0.66    0.11
   5  -3 -10    4.20    0.26
   5   3 -10    3.66    0.21
   5   3 -10    4.21    0.26
   5   3  -9   18.21    0.43
   5  -3  -9   18.31    0.51
   5   3  -9   18.97    0.54
   5  -3  -8    7.73    0.34
  -5   3   8    7.54    0.29
   5   3  -8    7.20    0.26
   5   3  -8    7.32    0.34
   5  -3  -7    1.75    0.18
   5   3  -7    1.59    0.12
   5   3  -7    1.66    0.17
  -5   3   7    1.39    0.12
  -5   3   6   70.40    0.81
   5  -3  -6   69.71    0.99
   5   3  -6   68.44    0.70
   5   3  -6   68.48    0.99
   5  -3  -5   26.34    0.60
  -5   3   5   25.68    0.47
   5   3  -5   25.34    0.39
   5   3  -5   26.13    0.61
   5  -3  -4   24.71    0.59
   5   3  -4   25.17    0.36
   5   3  -4   25.20    0.59
   5   3  -3    0.61    0.05
   5   3  -3    0.69    0.11
   5   3  -2    3.46    0.22
   5   3  -1   28.47    0.61
   5   3   0    5.63    0.28
   5   3   1   32.25    0.64
   5   3   2    8.89    0.13
   5   3   2    9.24    0.34
  -5  -3  -2    9.70    0.25
   5   3   3    8.92    0.15
   5   3   3    9.29    0.34
  -5  -3  -3    9.30    0.25
   5   3   4   28.44    0.31
   5   3   4   30.62    0.61
  -5  -3  -4   30.16    0.48
  -5  -3  -5    0.97    0.10
   5   3   5    0.81    0.06
   5   3   5    0.70    0.10
   5   3   6    0.09    0.06
  -5  -3  -6    0.22    0.06
   5   3   6    0.11    0.03
   5   3   7    0.60    0.09
  -5  -3  -7    0.88    0.11
  -5  -3  -7    0.87    0.10
   5   3   7    0.79    0.08
  -5  -3  -8    9.48    0.32
   5   3   8    9.93    0.35
   5   3   8    9.01    0.26
  -5  -3  -8    9.62    0.32
  -5   3  -8    9.58    0.34
  -5  -3  -9    0.20    0.06
   5   3   9    0.28    0.07
  -5  -3  -9    0.29    0.07
  -5   3  -9    0.22    0.08
   5   3   9    0.31    0.07
   5   3  10    9.57    0.33
  -5  -3 -10    9.52    0.31
  -5   3 -10    9.99    0.37
   5   3  10    9.93    0.31
  -5  -3 -10   10.08    0.36
   5   3  11    5.80    0.26
  -5  -3 -11    5.50    0.28
  -5   3 -11    4.68    0.24
  -5  -3 -11    4.85    0.22
  -5   3 -11    5.35    0.28
   5   3  12   12.69    0.37
  -5  -3 -12   13.39    0.44
  -5   3 -12   12.20    0.41
  -5  -3 -12   12.53    0.34
  -5   3 -12   13.66    0.46
  -5   3 -13    6.12    0.30
  -5  -3 -13    6.81    0.33
  -5  -3 -13    6.46    0.24
  -5   3 -13    5.90    0.31
  -5   3 -14    1.03    0.15
  -5   3 -14    0.92    0.13
  -5  -3 -14    0.82    0.13
  -5   3 -15    1.54    0.17
  -5   3 -15    1.82    0.19
  -5   3 -16    2.77    0.24
  -5   3 -16    2.56    0.22
  -5   3 -17    0.68    0.14
  -5   3 -17    0.52    0.11
  -5   3 -18    4.75    0.33
  -5   3 -18    4.62    0.32
  -5   3 -19    2.37    0.25
  -5   3 -19    2.38    0.26
  -5   3 -20    6.75    0.40
  -5   3 -20    6.09    0.40
  -5   3 -21    0.17    0.11
  -5   3 -21    0.13    0.11
  -5   3 -22    0.39    0.13
  -5   3 -22    0.59    0.15
  -5   3 -23    1.04    0.19
  -5   3 -23    0.68    0.16
  -5   3 -24    0.08    0.10
  -5   3 -25    1.09    0.20
  -5   3 -26    1.26    0.23
  -5   3 -27    0.62    0.20
   5   4 -27    0.24    0.12
   5   4 -26    0.94    0.20
   5   4 -25    2.84    0.32
   5   4 -24    0.01    0.10
   5   4 -24    0.08    0.13
   5   4 -23    2.23    0.23
   5   4 -23    2.07    0.27
   5   4 -22    0.07    0.09
   5   4 -22   -0.08    0.09
   5   4 -22   -0.04    0.10
   5   4 -21    0.47    0.12
   5   4 -21    0.58    0.13
   5  -4 -21    0.48    0.13
   5   4 -21    0.23    0.09
   5   4 -20   -0.05    0.07
   5   4 -20   -0.07    0.10
   5  -4 -20    0.03    0.09
   5   4 -20   -0.17    0.12
   5   4 -19    0.44    0.11
   5   4 -19    0.33    0.10
   5  -4 -19    0.27    0.11
   5   4 -19    0.18    0.09
   5   4 -18   -0.03    0.06
   5  -4 -18   -0.10    0.09
   5   4 -18    0.04    0.09
   5   4 -18   -0.07    0.09
   5   4 -17   -0.02    0.07
   5  -4 -17   -0.01    0.10
   5   4 -17    0.00    0.07
   5   4 -17   -0.07    0.09
   5   4 -16    2.31    0.21
   5   4 -16    2.11    0.20
   5   4 -16    2.24    0.19
   5  -4 -16    2.18    0.22
   5   4 -15    2.47    0.22
   5   4 -15    2.67    0.23
   5   4 -15    2.47    0.20
   5  -4 -15    2.68    0.24
   5   4 -14   22.97    0.64
   5   4 -14   24.10    0.63
   5  -4 -14   23.52    0.66
   5  -4 -13    0.15    0.10
   5   4 -13    0.15    0.09
   5   4 -13    0.21    0.10
   5   4 -12    9.39    0.37
   5   4 -12   10.06    0.42
   5  -4 -12    9.76    0.41
   5   4 -11   14.89    0.44
   5   4 -11   15.72    0.51
   5  -4 -11   14.90    0.50
   5   4 -10    0.20    0.09
   5   4 -10    0.13    0.06
   5   4  -9    3.40    0.20
   5   4  -9    3.06    0.23
   5   4  -8    0.39    0.10
   5   4  -8    0.31    0.06
  -5   4   7    3.36    0.20
   5   4  -7    3.54    0.18
   5   4  -7    3.46    0.24
   5   4  -6    0.11    0.08
   5   4  -5    0.84    0.14
   5   4  -4   37.12    0.72
   5   4  -3   24.30    0.58
   5   4  -2   10.77    0.39
   5   4  -1   54.24    0.86
   5   4   0    6.79    0.30
   5   4   1    0.73    0.11
  -5  -4  -1    0.62    0.06
   5   4   2   12.12    0.40
  -5  -4  -2   11.95    0.27
   5   4   3   10.66    0.22
   5   4   3   10.70    0.37
  -5  -4  -3   10.32    0.26
   5   4   4   10.49    0.23
   5   4   4   11.50    0.38
  -5  -4  -4   10.82    0.28
   5   4   5    7.69    0.32
   5   4   5    7.48    0.21
  -5  -4  -5    8.08    0.26
   5   4   6    0.02    0.06
   5   4   6    0.03    0.03
  -5  -4  -6    0.14    0.05
  -5  -4  -7    8.40    0.29
   5   4   7    8.62    0.33
   5   4   7    8.52    0.25
   5   4   8    0.31    0.08
  -5   4  -8    0.37    0.09
  -5  -4  -8    0.40    0.07
   5   4   8    0.29    0.06
  -5  -4  -9    0.34    0.07
   5   4   9    0.41    0.08
  -5   4  -9    0.42    0.09
   5   4   9    0.38    0.07
  -5  -4  -9    0.48    0.08
   5   4  10    0.68    0.10
  -5  -4 -10    0.41    0.08
   5   4  10    0.56    0.09
  -5  -4 -10    0.71    0.09
  -5   4 -10    0.62    0.11
   5   4  11    0.48    0.09
  -5  -4 -11    0.44    0.09
  -5  -4 -11    0.54    0.08
  -5   4 -11    0.39    0.09
   5   4  12    3.57    0.20
  -5  -4 -12    3.18    0.22
  -5  -4 -12    3.15    0.17
  -5   4 -12    2.91    0.22
   5   4  13    1.83    0.15
  -5   4 -13    1.72    0.17
  -5   4 -13    1.92    0.19
   5   4  14    1.46    0.13
  -5   4 -14    1.59    0.18
  -5   4 -14    1.52    0.17
  -5   4 -15    5.22    0.31
  -5   4 -15    5.81    0.33
  -5   4 -16    3.94    0.28
  -5   4 -16    4.33    0.30
  -5   4 -17    0.19    0.09
  -5   4 -17    0.38    0.11
  -5   4 -18   -0.06    0.09
  -5   4 -18   -0.06    0.09
  -5   4 -19    0.45    0.14
  -5   4 -19    0.28    0.11
  -5   4 -20    0.12    0.09
  -5   4 -20    0.11    0.11
  -5   4 -21    1.35    0.21
  -5   4 -21    1.61    0.22
  -5   4 -22    0.07    0.11
  -5   4 -22    0.10    0.09
  -5   4 -23    3.29    0.31
  -5   4 -23    3.67    0.34
  -5   4 -24    0.31    0.12
  -5   4 -25    0.86    0.18
  -5   4 -26    1.00    0.22
   5   5 -27    0.73    0.17
   5   5 -26    0.68    0.20
   5   5 -25    1.65    0.21
   5   5 -25    1.50    0.24
   5   5 -24    0.10    0.11
   5   5 -24    0.04    0.11
   5   5 -23    0.92    0.16
   5   5 -23    0.89    0.20
   5   5 -22    2.93    0.24
   5   5 -22    3.38    0.29
   5   5 -22    3.26    0.31
   5   5 -21   -0.08    0.08
   5   5 -21   -0.11    0.10
   5  -5 -21   -0.04    0.09
   5   5 -21   -0.04    0.10
   5   5 -20    5.71    0.32
   5  -5 -20    6.02    0.38
   5   5 -20    5.45    0.37
   5   5 -20    5.15    0.33
   5   5 -19    0.92    0.15
   5  -5 -19    0.71    0.15
   5   5 -19    0.90    0.16
   5   5 -19    0.54    0.13
   5  -5 -18    1.07    0.17
   5   5 -18    0.89    0.16
   5   5 -18    0.58    0.12
   5   5 -18    0.92    0.14
   5   5 -17    0.01    0.08
   5  -5 -17    0.27    0.10
   5   5 -17    0.17    0.09
   5   5 -17    0.07    0.08
   5   5 -16    1.58    0.16
   5  -5 -16    1.46    0.19
   5   5 -16    1.42    0.17
   5   5 -16    1.02    0.15
   5   5 -15    0.24    0.09
   5  -5 -15    0.20    0.10
   5   5 -15    0.17    0.08
   5   5 -15    0.26    0.09
   5   5 -14    8.56    0.39
   5   5 -14    8.21    0.39
   5  -5 -14    8.62    0.41
   5   5 -13    2.56    0.21
   5   5 -13    2.75    0.23
   5  -5 -13    2.93    0.25
   5   5 -12    9.16    0.37
   5   5 -12    9.13    0.41
   5  -5 -12    8.33    0.39
   5  -5 -11    2.13    0.20
   5   5 -11    1.86    0.17
   5   5 -11    2.08    0.20
   5   5 -10    2.96    0.23
   5   5 -10    3.02    0.20
   5  -5 -10    3.05    0.23
   5   5  -9    0.70    0.12
   5   5  -8    0.98    0.14
   5   5  -7    0.22    0.09
   5   5  -6   25.08    0.62
   5   5  -5    4.26    0.26
   5   5  -4    4.77    0.27
   5   5  -3    0.03    0.07
   5   5  -2    0.39    0.09
   5   5  -1    9.81    0.38
  -5  -5   1   10.15    0.20
   5   5   0    0.17    0.09
  -5  -5   0    0.04    0.03
   5   5   1   52.87    0.85
  -5  -5  -1   51.94    0.50
   5   5   2   14.07    0.44
  -5  -5  -2   14.20    0.28
   5   5   3    0.74    0.12
  -5  -5  -3    0.73    0.08
   5   5   4   13.86    0.30
  -5  -5  -4   13.93    0.32
   5   5   4   14.13    0.44
   5   5   5    0.44    0.06
   5   5   5    0.55    0.10
  -5  -5  -5    0.46    0.07
   5   5   6    2.19    0.14
  -5  -5  -6    2.18    0.14
   5   5   6    2.28    0.18
   5   5   7    5.32    0.22
   5   5   7    5.73    0.27
  -5  -5  -7    5.27    0.23
   5   5   8    2.64    0.19
  -5  -5  -8    2.85    0.18
   5   5   8    2.79    0.17
  -5  -5  -9    0.30    0.07
   5   5   9    0.26    0.07
  -5   5  -9    0.29    0.09
   5   5   9    0.32    0.07
   5   5  10    4.49    0.24
   5   5  10    4.18    0.23
  -5   5 -10    4.18    0.25
  -5  -5 -10    4.53    0.22
   5   5  11    1.55    0.14
  -5  -5 -11    1.55    0.14
  -5   5 -11    1.58    0.17
   5   5  12    3.62    0.21
  -5  -5 -12    3.50    0.19
  -5   5 -12    3.54    0.25
  -5   5 -13    0.29    0.09
   5   5  13    0.27    0.07
   5   5  14    3.98    0.21
  -5   5 -14    4.27    0.28
  -5   5 -15    0.22    0.10
  -5   5 -15    0.10    0.09
  -5   5 -16    5.33    0.33
  -5   5 -16    5.51    0.33
  -5   5 -17    0.04    0.09
  -5   5 -17    0.08    0.09
  -5   5 -18    2.38    0.24
  -5   5 -18    1.78    0.21
  -5   5 -19    0.60    0.14
  -5   5 -19    0.78    0.16
  -5   5 -20    1.69    0.23
  -5   5 -20    1.74    0.22
  -5   5 -21    1.80    0.24
  -5   5 -21    1.91    0.23
  -5   5 -22    0.75    0.17
  -5   5 -22    0.47    0.14
  -5   5 -23    0.11    0.09
  -5   5 -23    0.47    0.16
  -5   5 -24    0.15    0.12
  -5   5 -24    0.02    0.10
  -5   5 -25    0.73    0.19
  -5   5 -26    0.24    0.13
   5   6 -27    0.02    0.11
   5   6 -26    0.13    0.10
   5   6 -25    0.35    0.10
   5   6 -25    0.20    0.11
   5   6 -24    0.95    0.18
   5   6 -24    0.87    0.19
   5   6 -23   -0.04    0.09
   5   6 -23    0.07    0.12
   5   6 -22    0.20    0.10
   5   6 -22    0.30    0.12
   5   6 -21    0.73    0.15
   5   6 -21    1.06    0.15
   5   6 -21    0.85    0.18
   5   6 -20    0.01    0.07
   5   6 -20    0.17    0.12
   5  -6 -20    0.14    0.13
   5   6 -20    0.12    0.11
   5  -6 -19   19.25    0.67
   5   6 -19   19.39    0.69
   5   6 -19   17.90    0.63
   5   6 -19   19.52    0.56
   5   6 -18    1.20    0.16
   5  -6 -18    1.28    0.20
   5   6 -18    1.24    0.19
   5   6 -18    1.21    0.20
   5  -6 -17    7.71    0.42
   5   6 -17    6.82    0.39
   5   6 -17    6.87    0.39
   5   6 -17    6.73    0.32
   5   6 -16    0.03    0.08
   5  -6 -16    0.10    0.10
   5   6 -16    0.02    0.08
   5   6 -16    0.08    0.08
   5   6 -15    5.64    0.33
   5   6 -15    5.62    0.34
   5   6 -15    5.21    0.27
   5  -6 -15    5.95    0.36
   5   6 -14    0.04    0.06
   5  -6 -14    0.03    0.08
   5   6 -14    0.04    0.09
   5   6 -14   -0.10    0.07
   5  -6 -13    0.05    0.09
  -5  -6  13    0.08    0.04
   5   6 -13   -0.07    0.08
   5   6 -13   -0.09    0.08
  -5  -6  12    8.28    0.26
   5   6 -12    8.24    0.40
   5  -6 -12    8.30    0.39
  -5  -6  11   23.74    0.41
   5   6 -11   24.81    0.67
   5  -6 -11   24.12    0.65
   5  -6 -10    1.25    0.15
   5   6 -10    1.30    0.17
   5  -6  -9    0.24    0.09
   5   6  -9    0.35    0.10
   5   6  -8    1.95    0.19
   5   6  -7    1.28    0.16
   5   6  -6    6.93    0.34
   5   6  -5    0.27    0.09
   5   6  -4    1.53    0.16
   5   6  -3    4.10    0.26
  -5  -6   3    4.08    0.09
  -5  -6   2    0.23    0.03
   5   6  -2    0.23    0.08
   5   6  -1    5.00    0.28
  -5  -6   1    5.54    0.13
  -5  -6   0    5.71    0.14
   5   6   0    5.88    0.30
  -5  -6  -1   18.44    0.28
   5   6   1   17.83    0.52
  -5  -6  -2    1.20    0.08
   5   6   2    0.99    0.13
   5   6   3   11.04    0.40
  -5  -6  -3   10.14    0.25
   5   6   4    7.38    0.33
  -5  -6  -4    6.59    0.21
   5   6   5   11.78    0.41
   5   6   6    2.50    0.16
   5   6   6    2.35    0.19
   5   6   7   10.79    0.33
   5   6   7   10.75    0.39
   5   6   8    1.67    0.14
   5   6   8    1.92    0.17
   5   6   9    3.39    0.22
  -5   6  -9    3.52    0.24
   5   6  10    0.67    0.11
  -5   6 -10    0.68    0.12
   5   6  11    0.72    0.12
  -5   6 -11    0.33    0.09
   5   6  12    1.23    0.14
  -5   6 -12    1.23    0.16
   5   6  13   14.11    0.41
  -5   6 -13   13.59    0.49
   5   6  14    0.12    0.05
  -5   6 -14    0.19    0.09
  -5   6 -15    2.64    0.24
  -5   6 -16    6.67    0.37
  -5   6 -17   -0.04    0.09
  -5   6 -17    0.05    0.10
  -5   6 -18    2.84    0.26
  -5   6 -18    2.49    0.25
  -5   6 -19    0.28    0.10
  -5   6 -19    0.36    0.13
  -5   6 -20    2.75    0.28
  -5   6 -20    2.37    0.26
  -5   6 -21    0.70    0.17
  -5   6 -21    0.83    0.18
  -5   6 -22    0.43    0.15
  -5   6 -22    0.38    0.13
  -5   6 -23    2.57    0.30
  -5   6 -23    2.39    0.28
  -5   6 -24    1.16    0.21
  -5   6 -25    0.88    0.20
   5   7 -26    0.39    0.18
   5   7 -25    0.31    0.13
   5   7 -25    0.45    0.17
   5   7 -24   -0.01    0.09
   5   7 -24    0.05    0.12
   5   7 -23    0.19    0.12
   5   7 -23    0.27    0.14
   5   7 -22    1.01    0.17
   5   7 -22    0.85    0.19
   5   7 -21    0.63    0.16
   5   7 -21    0.74    0.18
   5   7 -20   12.76    0.60
   5   7 -20   13.31    0.57
   5   7 -19    3.23    0.23
   5  -7 -19    3.75    0.32
   5   7 -19    3.10    0.31
   5   7 -19    3.14    0.28
   5   7 -18    0.68    0.12
   5  -7 -18    0.70    0.16
   5   7 -18    0.50    0.12
   5   7 -18    0.33    0.11
   5   7 -17    0.65    0.11
   5  -7 -17    1.11    0.18
   5   7 -17    0.77    0.15
   5   7 -17    0.80    0.17
   5  -7 -16    3.39    0.28
   5   7 -16    3.19    0.27
   5   7 -16    2.91    0.26
   5   7 -16    3.37    0.22
   5   7 -15    4.37    0.31
   5   7 -15    5.03    0.34
   5   7 -15    4.48    0.25
   5  -7 -15    4.83    0.33
   5   7 -14   29.25    0.78
   5   7 -14   29.93    0.62
   5  -7 -14   30.24    0.78
   5   7 -13    4.90    0.32
   5  -7 -13    4.39    0.30
   5  -7 -12    0.36    0.11
   5   7 -12    0.35    0.11
  -5  -7  11    6.46    0.19
   5   7 -11    6.69    0.36
   5  -7 -11    6.88    0.36
  -5  -7  10    6.32    0.18
   5   7 -10    6.50    0.36
   5  -7 -10    6.08    0.33
   5  -7  -9    0.00    0.09
   5   7  -9    0.00    0.07
  -5  -7   9    0.11    0.03
   5   7  -8    2.16    0.21
   5  -7  -8    2.23    0.20
  -5  -7   8    2.39    0.08
   5   7  -7    7.42    0.37
  -5  -7   7    6.91    0.11
   5   7  -6   14.89    0.51
   5   7  -5    0.07    0.07
   5   7  -4    2.51    0.22
   5   7  -3    1.11    0.15
   5   7  -2    0.07    0.06
   5   7  -1    4.88    0.28
   5   7   0    0.55    0.11
   5   7   1    2.82    0.21
   5   7   2    2.59    0.21
   5   7   3    8.23    0.36
   5   7   4    3.71    0.25
   5   7   5    0.70    0.12
   5   7   6    9.91    0.39
   5   7   7    7.49    0.33
   5   7   8    2.94    0.21
   5   7   9    9.77    0.38
  -5   7  -9    9.95    0.40
   5   7  10   34.10    0.69
  -5   7 -10   32.83    0.72
   5   7  11   19.92    0.52
  -5   7 -11   19.14    0.56
   5   7  12   19.00    0.50
  -5   7 -12   19.76    0.58
   5   7  13    0.68    0.11
  -5   7 -13    0.72    0.14
  -5   7 -14    2.49    0.23
  -5   7 -15    7.79    0.40
  -5   7 -16    0.95    0.17
  -5   7 -17   -0.06    0.09
  -5   7 -18   -0.10    0.10
  -5   7 -18   -0.08    0.10
  -5   7 -19    0.76    0.15
  -5   7 -19    0.34    0.13
  -5   7 -20    0.68    0.16
  -5   7 -20    0.51    0.14
  -5   7 -21    0.23    0.12
  -5   7 -21    0.00    0.11
  -5   7 -22    0.71    0.17
  -5   7 -22    0.90    0.18
  -5   7 -23   -0.08    0.10
  -5   7 -23   -0.24    0.14
  -5   7 -24   -0.12    0.11
   5   8 -25    2.02    0.25
   5   8 -25    2.44    0.31
   5   8 -24    1.64    0.23
   5   8 -24    1.58    0.28
   5   8 -23    3.94    0.37
   5   8 -23    4.15    0.35
   5   8 -22    1.34    0.20
   5   8 -22    1.47    0.24
   5   8 -21    0.76    0.16
   5   8 -21    0.54    0.15
   5   8 -20    0.36    0.13
   5   8 -20    0.28    0.11
   5   8 -19    4.73    0.37
   5   8 -19    4.37    0.34
   5  -8 -18    1.58    0.21
   5   8 -18    1.53    0.21
   5   8 -18    1.34    0.21
   5  -8 -17   13.09    0.55
   5   8 -17   13.33    0.56
   5   8 -17   13.64    0.57
   5   8 -17   14.04    0.43
   5  -8 -16    8.43    0.44
   5   8 -16    8.60    0.44
   5   8 -16    8.48    0.45
   5   8 -16    8.92    0.34
   5  -8 -15   14.66    0.56
   5   8 -15   13.62    0.56
   5   8 -15   14.22    0.43
   5   8 -14    5.72    0.36
   5   8 -14    5.48    0.26
   5  -8 -14    5.54    0.34
   5  -8 -13    0.92    0.16
   5   8 -13    0.88    0.16
   5  -8 -12    0.96    0.16
   5   8 -12    1.22    0.18
   5   8 -11   16.80    0.59
   5  -8 -11   17.37    0.56
   5  -8 -10    0.37    0.11
   5   8 -10    0.34    0.12
   5   8  -9    6.37    0.36
   5  -8  -9    6.71    0.34
   5   8  -8    6.35    0.36
   5  -8  -8    6.62    0.34
   5  -8  -7    0.66    0.12
   5   8  -7    0.58    0.12
   5   8  -6    3.61    0.27
   5  -8  -6    4.11    0.26
   5   8  -5    0.74    0.12
   5   8  -4    0.60    0.10
   5   8  -3   -0.03    0.10
   5   8  -2    1.46    0.18
   5   8  -1    0.86    0.14
   5   8   0    1.79    0.18
   5   8   1    2.10    0.19
   5   8   2    2.75    0.22
   5   8   3    0.08    0.07
   5   8   4    8.15    0.37
   5   8   5   11.98    0.45
   5   8   6    9.11    0.38
   5   8   7   42.08    0.80
   5   8   8   17.08    0.51
   5   8   9    8.92    0.37
  -5   8  -9    8.30    0.37
   5   8  10    6.65    0.32
  -5   8 -10    6.44    0.33
   5   8  11    0.08    0.08
  -5   8 -11    0.13    0.08
   5   8  12    3.28    0.22
  -5   8 -12    3.06    0.24
   5   8  13   15.65    0.46
  -5   8 -13   14.90    0.53
  -5   8 -14    0.17    0.11
  -5   8 -15    3.97    0.29
  -5   8 -16    0.03    0.08
  -5   8 -17    0.92    0.16
  -5   8 -18   -0.06    0.10
  -5   8 -19    0.93    0.17
  -5   8 -20    1.57    0.22
  -5   8 -20    1.26    0.20
  -5   8 -21    0.45    0.13
  -5   8 -21    0.42    0.13
  -5   8 -22    0.05    0.09
  -5   8 -22    0.10    0.11
  -5   8 -23    0.01    0.11
  -5   8 -24    0.02    0.11
   5   9 -25   -0.02    0.10
   5   9 -25    0.12    0.15
   5   9 -24    0.25    0.14
   5   9 -24    0.32    0.16
   5   9 -23    1.66    0.23
   5   9 -23    1.59    0.26
   5   9 -22    3.35    0.34
   5   9 -22    3.53    0.33
   5   9 -21    5.35    0.42
   5   9 -21    5.31    0.39
   5   9 -20    2.99    0.31
   5   9 -20    3.08    0.30
   5   9 -19    5.70    0.40
   5   9 -19    4.77    0.37
   5   9 -18   -0.05    0.09
   5   9 -18   -0.04    0.10
   5  -9 -17    0.59    0.16
   5   9 -17    0.84    0.17
   5   9 -16    2.50    0.27
   5  -9 -16    2.11    0.23
   5  -9 -15    5.77    0.36
   5   9 -15    5.13    0.36
   5  -9 -14    4.84    0.33
   5   9 -14    4.46    0.33
   5   9 -14    4.69    0.24
   5  -9 -13    1.22    0.18
   5   9 -13    1.18    0.18
   5  -9 -12    1.75    0.21
   5   9 -12    1.65    0.20
   5   9 -11    5.29    0.35
   5  -9 -11    5.67    0.33
   5  -9 -10    0.15    0.09
   5   9 -10    0.33    0.12
   5  -9  -9    0.32    0.10
   5   9  -9    0.24    0.10
   5  -9  -8    0.08    0.07
   5   9  -8    0.12    0.09
   5   9  -7    3.29    0.27
   5  -9  -7    3.40    0.24
   5   9  -6    8.68    0.43
   5  -9  -6    8.29    0.37
   5  -9  -5    0.48    0.10
   5   9  -5    0.59    0.13
   5   9  -4    3.74    0.28
   5   9  -3    0.14    0.09
   5   9  -2    4.19    0.29
   5   9  -1    5.02    0.31
   5   9   0    0.24    0.09
   5   9   1    0.05    0.08
   5   9   2    0.28    0.09
   5   9   3    3.87    0.27
   5   9   4    0.01    0.07
   5   9   5    7.26    0.36
   5   9   6    0.00    0.07
   5   9   7    1.47    0.17
   5   9   8    0.05    0.09
   5   9   9   12.21    0.45
  -5   9  -9   12.66    0.46
   5   9  10   12.00    0.44
  -5   9 -10   11.78    0.46
   5   9  11   13.28    0.46
  -5   9 -11   13.58    0.49
   5   9  12    3.83    0.25
  -5   9 -12    3.94    0.28
  -5   9 -13   -0.01    0.09
  -5   9 -14   -0.15    0.10
  -5   9 -15   -0.09    0.10
  -5   9 -16    0.05    0.08
  -5   9 -17    2.15    0.24
  -5   9 -18    1.07    0.18
  -5   9 -19    0.66    0.16
  -5   9 -20    2.22    0.25
  -5   9 -21   -0.15    0.12
  -5   9 -21    0.07    0.11
  -5   9 -22    0.00    0.13
   5  10 -25    0.29    0.15
   5  10 -24    0.07    0.11
   5  10 -24   -0.10    0.11
   5  10 -23    1.01    0.19
   5  10 -23    1.11    0.21
   5  10 -22    0.24    0.10
   5  10 -22   -0.01    0.12
   5  10 -21    0.22    0.12
   5  10 -21   -0.10    0.11
   5  10 -20   -0.07    0.11
   5  10 -20    0.10    0.12
   5  10 -19    0.60    0.15
   5  10 -19    0.80    0.18
   5  10 -18    1.92    0.25
   5  10 -17    4.12    0.34
   5 -10 -16    6.51    0.40
   5  10 -16    6.39    0.42
   5 -10 -15    0.92    0.18
   5  10 -15    1.00    0.19
   5 -10 -14    1.58    0.20
   5  10 -14    1.20    0.19
   5 -10 -13    0.48    0.13
   5  10 -13    0.03    0.11
   5 -10 -12    8.05    0.42
   5  10 -12    8.10    0.45
   5 -10 -11   -0.03    0.09
   5  10 -11    0.09    0.10
   5 -10 -10    0.01    0.08
   5  10 -10   -0.01    0.09
   5  10  -9    3.32    0.28
   5 -10  -9    3.67    0.27
   5  10  -8    2.84    0.26
   5 -10  -8    3.43    0.25
   5  10  -7    5.38    0.35
   5 -10  -7    5.51    0.31
   5  10  -6   11.48    0.50
   5 -10  -6   11.83    0.44
   5 -10  -5    0.95    0.14
   5  10  -5    1.03    0.17
   5 -10  -4    0.08    0.07
   5  10  -4   -0.02    0.09
   5  10  -3    6.31    0.36
   5 -10  -3    6.48    0.31
   5  10  -2   -0.03    0.10
   5  10  -1    0.15    0.10
   5  10   0    3.69    0.28
   5  10   1    3.26    0.26
   5  10   2   14.74    0.53
   5  10   3    1.74    0.20
   5  10   4    0.00    0.08
   5  10   5    2.71    0.24
   5  10   6    4.05    0.28
   5  10   7   16.07    0.54
   5  10   8    6.34    0.35
   5  10   9    7.46    0.36
   5  10  10    0.51    0.11
  -5  10 -10    0.47    0.12
   5  10  11    0.56    0.12
  -5  10 -11    0.31    0.11
   5  10  12    2.38    0.21
  -5  10 -12    2.71    0.24
  -5  10 -13    1.96    0.21
  -5  10 -14    0.00    0.08
  -5  10 -15    2.51    0.25
  -5  10 -16    0.23    0.10
  -5  10 -17    0.32    0.11
  -5  10 -18   -0.20    0.12
  -5  10 -19   -0.14    0.11
  -5  10 -20    0.16    0.11
  -5  10 -21    0.71    0.17
   5  11 -23    0.39    0.15
   5  11 -22    1.85    0.26
   5  11 -22    2.31    0.30
   5  11 -21    3.10    0.34
   5  11 -21    2.44    0.29
   5  11 -20   -0.09    0.10
   5  11 -20    0.16    0.12
   5  11 -19    1.32    0.22
   5  11 -18    0.52    0.16
   5  11 -17    0.54    0.15
   5  11 -16    0.30    0.12
   5  11 -15    2.32    0.27
   5 -11 -14    0.94    0.17
   5  11 -14    0.73    0.16
   5 -11 -13    3.93    0.30
   5  11 -13    3.60    0.32
   5 -11 -12    7.10    0.39
   5  11 -12    6.46    0.42
   5 -11 -11    0.08    0.09
   5  11 -11    0.13    0.12
   5 -11 -10    9.67    0.44
   5  11 -10    9.95    0.50
   5 -11  -9    0.70    0.14
   5  11  -9    0.49    0.14
   5 -11  -8    0.32    0.11
   5  11  -8    0.36    0.14
   5  11  -7    7.49    0.43
   5 -11  -7    7.31    0.36
   5 -11  -6    1.11    0.14
   5  11  -6    1.42    0.21
   5 -11  -5    1.91    0.18
   5  11  -5    1.96    0.22
   5 -11  -4    0.19    0.08
   5  11  -4    0.29    0.11
   5 -11  -3   -0.02    0.07
   5  11  -3   -0.12    0.10
   5  11  -2    2.08    0.22
   5 -11  -2    2.12    0.19
   5  11  -1    4.13    0.30
   5 -11  -1    4.11    0.24
   5  11   0    1.93    0.22
   5 -11   0    2.24    0.18
   5  11   1    4.65    0.32
   5  11   2   13.32    0.54
   5  11   3   15.43    0.57
   5  11   4    4.90    0.33
   5  11   5    3.52    0.27
   5  11   6    6.97    0.38
   5  11   7    1.67    0.19
   5  11   8    3.78    0.28
  -5  11  -9    3.67    0.27
   5  11   9    3.79    0.28
   5  11  10    2.16    0.21
  -5  11 -10    1.97    0.21
   5  11  11    5.59    0.33
  -5  11 -11    5.31    0.32
  -5  11 -12    0.07    0.09
  -5  11 -13    1.82    0.22
  -5  11 -14    4.58    0.32
  -5  11 -15    1.58    0.21
  -5  11 -16    0.01    0.08
  -5  11 -17    1.99    0.23
  -5  11 -18    0.35    0.13
  -5  11 -19    1.47    0.22
  -5  11 -20    0.18    0.14
  -5  11 -20    0.13    0.09
   5  12 -21    0.15    0.14
   5  12 -21    0.40    0.16
   5  12 -20    0.82    0.19
   5  12 -19    0.27    0.14
   5  12 -18    2.60    0.30
   5  12 -17    2.90    0.32
   5  12 -16    1.02    0.20
   5  12 -15    0.07    0.11
   5  12 -14    2.97    0.31
   5  12 -13   -0.01    0.09
   5 -12 -12    0.12    0.08
   5  12 -12   -0.14    0.11
   5 -12 -11    1.21    0.17
   5  12 -11    0.95    0.18
   5 -12 -10    2.96    0.26
   5  12 -10    2.49    0.28
   5 -12  -9    4.95    0.31
   5  12  -9    5.05    0.38
   5 -12  -8    0.10    0.09
   5  12  -8    0.02    0.09
   5  12  -7    3.27    0.30
   5 -12  -7    3.45    0.25
   5  12  -6    5.44    0.38
   5 -12  -6    5.33    0.31
   5 -12  -5    0.06    0.07
   5  12  -5    0.25    0.13
   5  12  -4    4.90    0.36
   5 -12  -4    4.34    0.27
   5  12  -3   16.99    0.64
   5 -12  -3   17.08    0.51
   5 -12  -2    0.74    0.13
   5  12  -2    1.00    0.19
   5  12  -1   21.72    0.72
   5 -12  -1   24.10    0.58
   5  12   0    4.93    0.35
   5 -12   0    5.17    0.27
   5  12   1    4.05    0.31
   5 -12   1    4.05    0.23
   5 -12   2    1.05    0.13
   5  12   2    1.56    0.21
   5 -12   3    0.62    0.10
   5  12   3    0.74    0.15
   5  12   4    1.67    0.20
   5  12   5    0.24    0.11
   5  12   6    8.22    0.42
   5  12   7    0.06    0.10
   5  12   8    2.45    0.23
  -5  12  -9    0.54    0.13
   5  12   9    0.48    0.13
   5  12  10    1.60    0.19
  -5  12 -10    1.59    0.19
  -5  12 -11    3.54    0.28
  -5  12 -12    0.53    0.13
  -5  12 -13    0.57    0.13
  -5  12 -14    2.18    0.23
  -5  12 -15    1.41    0.20
  -5  12 -16    0.48    0.13
  -5  12 -17    1.04    0.19
  -5  12 -18    0.13    0.09
  -5  12 -19   -0.02    0.09
  -5  12 -19    0.16    0.11
  -5  12 -20    0.01    0.11
   5  13 -18    0.22    0.13
   5  13 -17    0.37    0.15
   5  13 -16   -0.08    0.13
   5  13 -15   -0.01    0.10
   5  13 -14   -0.11    0.10
   5  13 -13    0.78    0.18
   5  13 -12    2.65    0.29
   5  13 -11    0.44    0.16
   5 -13 -10    2.46    0.23
   5  13 -10    2.17    0.27
   5 -13  -9    0.56    0.12
   5  13  -9    0.57    0.16
   5 -13  -8    0.10    0.08
   5  13  -8    0.26    0.13
   5 -13  -7    2.92    0.24
   5  13  -7    2.86    0.29
   5 -13  -6    0.03    0.07
   5  13  -6    0.21    0.12
   5 -13  -5   11.61    0.44
   5  13  -5   11.25    0.56
   5  13  -4    6.49    0.42
   5 -13  -4    6.49    0.33
   5 -13  -3    0.33    0.10
   5  13  -3    0.60    0.16
   5 -13  -2    0.13    0.08
   5  13  -2   -0.04    0.09
   5 -13  -1    0.41    0.10
   5  13  -1    0.30    0.11
   5  13   0    3.64    0.32
   5  13   1   15.47    0.62
   5  13   2    5.07    0.37
   5  13   3   10.36    0.50
   5  13   4    1.85    0.23
   5  13   5    0.12    0.09
   5  13   6    1.87    0.22
   5  13   7    0.96    0.17
   5  13   8    0.89    0.16
   5  13   9    2.36    0.24
  -5  13  -9    1.74    0.20
   5  13  10    0.20    0.09
  -5  13 -10    0.55    0.13
  -5  13 -11    1.20    0.16
  -5  13 -12   -0.05    0.09
  -5  13 -13    0.26    0.11
  -5  13 -14    0.37    0.12
  -5  13 -15    0.27    0.11
  -5  13 -16    0.38    0.13
  -5  13 -17    0.32    0.14
  -5  13 -18    0.51    0.15
   5  14 -14   -0.25    0.16
   5  14 -13    0.75    0.17
   5  14 -12    0.52    0.17
   5  14 -11    0.14    0.11
   5  14 -10    7.86    0.51
   5  14  -9    4.73    0.40
   5  14  -8    1.49    0.23
   5  14  -7    0.30    0.13
   5 -14  -6    0.55    0.12
   5  14  -6    0.70    0.15
   5 -14  -5    0.02    0.08
   5  14  -5    0.18    0.12
   5  14  -4    1.08    0.20
   5  14  -3    3.24    0.32
   5  14  -2    1.07    0.20
   5  14  -1    5.35    0.40
   5  14   0    3.39    0.32
   5  14   1    0.09    0.10
   5  14   2    0.68    0.17
   5  14   3    0.73    0.16
   5  14   4    3.82    0.33
   5  14   5    0.21    0.12
   5  14   6    1.79    0.23
   5  14   7   -0.04    0.11
   5  14   8   -0.03    0.10
  -5  14  -9    0.38    0.12
   5  14   9    0.54    0.15
  -5  14 -10    0.65    0.14
  -5  14 -11    0.36    0.12
  -5  14 -12   -0.11    0.09
  -5  14 -13    0.03    0.09
  -5  14 -14    1.78    0.22
  -5  14 -15    2.63    0.27
  -5  14 -16    1.61    0.23
   5  15 -11    0.38    0.14
   5  15 -10    0.16    0.13
   5  15  -9    0.23    0.12
   5  15  -8    0.35    0.18
   5  15  -7    0.92    0.20
   5  15  -6    1.29    0.22
   5  15  -5    3.71    0.35
   5  15  -4    0.50    0.15
   5  15  -3    0.10    0.12
   5  15  -2    0.04    0.12
   5  15  -1    0.60    0.16
   5  15   0    0.31    0.15
   5  15   1    2.59    0.29
   5  15   2    0.09    0.10
   5  15   3    2.34    0.27
   5  15   4    0.04    0.10
   5  15   5    0.56    0.16
   5  15   6   -0.16    0.12
   5  15   7   -0.03    0.11
  -5  15  -8    0.09    0.09
   5  15   8    0.03    0.10
  -5  15  -9    2.84    0.26
  -5  15 -10    0.27    0.13
  -5  15 -11    2.80    0.27
  -5  15 -12    1.32    0.19
  -5  15 -13    0.91    0.18
  -5  15 -14    0.30    0.12
  -5  15 -15    1.59    0.22
   5  16  -6    0.44    0.16
   5  16  -5    0.05    0.12
   5  16  -4    1.77    0.26
   5  16  -3    0.04    0.13
   5  16  -2    4.95    0.41
   5  16  -1    0.09    0.12
   5  16   0    1.70    0.25
   5  16   1   -0.04    0.12
   5  16   2    0.26    0.12
   5  16   3   -0.11    0.13
   5  16   4    3.39    0.33
   5  16   5    0.44    0.17
   5  16   6    4.82    0.39
   5  16   7    3.05    0.32
  -5  16  -8    3.79    0.31
  -5  16  -9    0.16    0.11
  -5  16 -10    0.36    0.13
  -5  16 -11    0.40    0.13
  -5  16 -12    0.52    0.14
   5  17   0   -0.09    0.12
   5  17   1    5.85    0.45
   5  17   2    0.74    0.20
   5  17   3    3.76    0.36
   5  17   4    0.62    0.17
   5  17   5   -0.06    0.11
   5  17   6    0.24    0.14
   6   0 -27    0.27    0.16
   6   0 -26    0.95    0.21
   6   0 -25    0.02    0.10
   6   0 -25   -0.04    0.11
   6   0 -24    0.75    0.17
   6   0 -24    1.05    0.19
   6   0 -23    0.00    0.08
   6   0 -23    0.02    0.10
   6   0 -23    0.10    0.10
   6   0 -22    4.29    0.33
   6   0 -22    4.07    0.33
   6   0 -22    4.42    0.31
   6   0 -21    0.10    0.10
   6   0 -21    0.16    0.11
   6   0 -21   -0.04    0.08
   6   0 -20    1.76    0.20
   6   0 -20    1.47    0.19
   6   0 -20    1.65    0.20
   6   0 -19    0.07    0.08
   6   0 -19   -0.10    0.09
   6   0 -19   -0.19    0.11
   6   0 -18   -0.03    0.08
   6   0 -18   -0.03    0.07
   6   0 -18   -0.03    0.10
   6   0 -17    0.05    0.10
   6   0 -17    0.00    0.07
   6   0 -17   -0.09    0.09
   6   0 -16    3.22    0.24
   6   0 -16    3.35    0.26
   6   0 -16    3.28    0.26
   6   0 -15   -0.02    0.07
   6   0 -15   -0.05    0.08
   6   0 -15   -0.01    0.09
   6   0 -14    4.93    0.28
   6   0 -14    4.79    0.30
   6   0 -13    0.17    0.10
   6   0 -13    0.10    0.09
   6   0 -12   62.17    0.89
   6   0 -12   63.26    1.06
   6   0 -11    0.24    0.11
   6   0 -10   17.30    0.55
   6   0  -9    0.15    0.09
   6   0  -8   37.56    0.80
   6   0  -7    0.05    0.11
   6   0  -6   14.06    0.48
   6   0  -5    0.00    0.07
   6   0  -4   12.86    0.47
   6   0  -3   -0.03    0.07
   6   0  -2    6.91    0.33
   6   0  -1   -0.03    0.07
   6   0   0    7.80    0.36
   6   0   1   -0.04    0.07
   6   0   2    0.32    0.09
   6   0   3   -0.03    0.07
   6   0   4   -0.09    0.10
   6   0   5   -0.16    0.10
  -6   0  -5    0.01    0.02
  -6   0  -6    1.55    0.09
   6   0   6    1.28    0.16
  -6   0  -6    1.75    0.16
   6   0   7   -0.06    0.09
  -6   0  -7   -0.04    0.04
  -6   0  -7   -0.05    0.05
  -6   0  -8    1.90    0.11
  -6   0  -8    2.21    0.17
  -6   0  -9    0.01    0.04
  -6   0  -9    0.00    0.06
  -6   0 -10    5.94    0.23
  -6   0 -10    6.33    0.31
  -6   0 -11    0.04    0.07
  -6   0 -11    0.08    0.05
  -6   0 -12    7.27    0.29
  -6   0 -12    7.38    0.35
  -6   0 -13    0.04    0.07
  -6   0 -13   -0.03    0.08
  -6   0 -14   14.97    0.52
  -6   0 -14   14.57    0.44
  -6   0 -15    0.01    0.09
  -6   0 -15    0.12    0.07
  -6   0 -16    4.79    0.28
  -6   0 -16    5.18    0.33
  -6   0 -17    0.18    0.12
  -6   0 -17    0.05    0.08
  -6   0 -18    9.40    0.42
  -6   0 -18    9.53    0.47
  -6   0 -19    0.08    0.11
  -6   0 -19    0.11    0.09
  -6   0 -20    1.04    0.18
  -6   0 -20    1.03    0.16
  -6   0 -21    0.16    0.09
  -6   0 -22    0.93    0.16
  -6   0 -23    0.18    0.10
  -6   0 -24    4.43    0.35
   6   1 -28    0.07    0.11
   6   1 -27    2.75    0.33
   6   1 -26    0.32    0.15
   6   1 -25    2.47    0.29
   6   1 -25    2.39    0.27
   6   1 -24    0.29    0.11
   6   1 -24    0.10    0.10
   6   1 -24    0.16    0.11
   6  -1 -24    0.23    0.11
   6   1 -23    0.81    0.15
   6   1 -23    0.69    0.16
   6   1 -23    0.54    0.14
   6  -1 -23    0.62    0.15
   6  -1 -23    0.48    0.12
   6   1 -22    0.32    0.11
   6   1 -22    0.21    0.11
   6   1 -22    0.35    0.12
   6  -1 -22    0.30    0.12
   6  -1 -22    0.33    0.11
   6  -1 -21    0.16    0.08
   6   1 -21    0.12    0.09
   6   1 -21    0.26    0.11
   6  -1 -21   -0.02    0.09
   6   1 -21    0.19    0.10
   6  -1 -20   -0.08    0.09
   6   1 -20   -0.03    0.10
   6   1 -20   -0.02    0.10
   6   1 -20   -0.02    0.10
   6  -1 -20   -0.05    0.10
   6  -1 -19    0.16    0.09
   6   1 -19    0.24    0.10
   6   1 -19    0.22    0.10
   6  -1 -19    0.11    0.08
   6   1 -19    0.12    0.08
   6  -1 -18    5.67    0.34
   6   1 -18    5.31    0.33
   6   1 -18    5.62    0.35
   6   1 -18    5.29    0.33
   6  -1 -18    5.66    0.36
   6  -1 -17    6.54    0.35
   6   1 -17    6.35    0.36
   6   1 -17    6.73    0.36
   6   1 -17    6.23    0.36
   6  -1 -17    6.32    0.36
   6  -1 -16    1.02    0.16
   6   1 -16    1.11    0.16
   6  -1 -16    1.02    0.15
   6   1 -16    1.20    0.17
   6   1 -16    1.02    0.14
   6  -1 -15    3.33    0.26
   6   1 -15    3.17    0.24
   6   1 -15    3.38    0.26
   6   1 -15    3.28    0.26
   6  -1 -15    3.17    0.26
   6   1 -14    0.01    0.08
   6   1 -14    0.01    0.07
   6  -1 -14    0.11    0.09
   6  -1 -13    2.46    0.23
   6   1 -13    2.72    0.20
   6   1 -13    3.01    0.24
   6  -1 -12    4.02    0.27
   6   1 -12    4.34    0.24
   6   1 -12    4.26    0.28
   6   1 -11   13.62    0.40
   6  -1 -11   13.24    0.48
   6   1 -11   14.18    0.51
   6   1 -10    4.35    0.22
   6  -1 -10    4.44    0.28
   6   1 -10    4.59    0.29
  -6   1  10    4.35    0.23
   6   1  -9   29.85    0.53
   6  -1  -9   30.16    0.72
   6   1  -9   29.47    0.71
  -6   1   9   30.33    0.56
   6   1  -8    0.12    0.09
   6  -1  -8    0.08    0.08
   6   1  -8    0.02    0.05
  -6   1   8    0.01    0.04
   6  -1  -7    1.24    0.15
  -6   1   7    1.37    0.11
   6   1  -7    1.53    0.17
   6  -1  -6    1.57    0.17
  -6   1   6    1.49    0.11
   6   1  -6    1.45    0.16
   6  -1  -5    1.00    0.15
  -6   1   5    0.96    0.08
   6   1  -5    0.87    0.13
   6  -1  -4    0.86    0.14
  -6   1   4    0.91    0.07
   6   1  -4    1.03    0.14
   6  -1  -3    8.25    0.37
   6   1  -3    9.30    0.39
  -6   1   3    8.73    0.19
   6  -1  -2    1.09    0.15
  -6   1   2    1.19    0.07
   6   1  -2    1.43    0.16
   6  -1  -1    1.80    0.18
  -6   1   1    1.52    0.06
   6   1  -1    1.39    0.16
   6  -1   0    1.15    0.15
  -6   1   0    1.24    0.05
   6   1   0    1.31    0.15
   6  -1   1    2.08    0.19
   6   1   1    2.07    0.19
   6  -1   2    4.31    0.27
   6   1   2    4.19    0.26
   6   1   3    0.18    0.09
  -6   1  -3    0.17    0.03
   6  -1   4   12.45    0.44
   6   1   4   12.22    0.43
  -6   1  -4   12.27    0.20
   6   1   5    1.05    0.14
  -6   1  -5    1.01    0.07
  -6  -1  -5    1.11    0.12
   6   1   6   22.93    0.58
  -6   1  -6   22.27    0.35
  -6   1  -6   22.96    0.52
  -6  -1  -6   22.60    0.50
   6   1   7   -0.07    0.09
  -6   1  -7    0.03    0.08
  -6   1  -7    0.00    0.04
  -6  -1  -7    0.15    0.08
   6   1   8    1.62    0.16
  -6   1  -8    1.56    0.11
  -6   1  -8    1.61    0.16
  -6  -1  -8    1.59    0.15
   6   1   9   12.15    0.42
  -6   1  -9   11.26    0.31
  -6   1  -9   12.05    0.41
  -6  -1  -9   12.08    0.40
  -6   1 -10    2.88    0.17
  -6   1 -10    3.36    0.23
  -6  -1 -10    3.44    0.22
  -6  -1 -11    3.26    0.18
  -6   1 -11    2.92    0.18
  -6   1 -11    3.38    0.23
  -6  -1 -11    3.21    0.22
  -6   1 -12    0.01    0.07
  -6  -1 -12    0.02    0.05
  -6   1 -12   -0.01    0.06
  -6  -1 -12    0.08    0.08
  -6  -1 -13    2.01    0.20
  -6  -1 -13    1.80    0.15
  -6   1 -13    2.21    0.18
  -6   1 -13    1.98    0.19
  -6  -1 -14    0.72    0.16
  -6  -1 -14    0.54    0.10
  -6   1 -14    0.47    0.10
  -6   1 -14    0.51    0.13
  -6   1 -15   17.34    0.58
  -6  -1 -15   16.51    0.48
  -6   1 -15   15.74    0.49
  -6  -1 -15   17.02    0.57
  -6  -1 -16    2.58    0.21
  -6   1 -16    2.50    0.21
  -6   1 -16    2.79    0.26
  -6  -1 -16    2.84    0.26
  -6  -1 -17    3.85    0.26
  -6   1 -17    3.60    0.26
  -6   1 -17    3.29    0.28
  -6  -1 -17    4.01    0.30
  -6  -1 -18    0.10    0.07
  -6  -1 -18   -0.05    0.09
  -6   1 -18   -0.05    0.08
  -6   1 -18   -0.10    0.09
  -6  -1 -19    0.33    0.12
  -6   1 -19    0.13    0.10
  -6  -1 -19    0.19    0.08
  -6   1 -19    0.30    0.10
  -6  -1 -20    0.05    0.09
  -6   1 -20    0.09    0.08
  -6   1 -20    0.13    0.10
  -6  -1 -21    0.37    0.11
  -6   1 -21    0.43    0.12
  -6   1 -21    0.58    0.16
  -6  -1 -22    1.36    0.20
  -6   1 -22    1.27    0.19
  -6   1 -22    1.27    0.21
  -6   1 -23    0.61    0.15
  -6   1 -24    0.45    0.16
   6   2 -28    3.17    0.35
   6   2 -27    0.07    0.12
   6   2 -26    0.22    0.13
   6   2 -25    0.08    0.11
   6   2 -24    0.56    0.13
   6   2 -24    0.54    0.15
   6   2 -24    0.23    0.11
   6  -2 -24    0.66    0.17
   6   2 -23    0.09    0.08
   6   2 -23    0.26    0.12
   6   2 -23    0.25    0.12
   6  -2 -23    0.05    0.10
   6  -2 -22    2.74    0.25
   6   2 -22    2.64    0.25
   6   2 -22    2.12    0.23
   6   2 -22    2.46    0.26
   6  -2 -22    2.27    0.26
   6  -2 -21    0.55    0.13
   6   2 -21    0.43    0.12
   6   2 -21    0.65    0.14
   6  -2 -21    0.51    0.15
   6   2 -21    0.54    0.15
   6  -2 -20    5.43    0.33
   6   2 -20    5.43    0.36
   6   2 -20    5.85    0.36
   6   2 -20    5.59    0.35
   6  -2 -20    5.97    0.38
   6  -2 -19    3.57    0.28
   6   2 -19    3.59    0.29
   6   2 -19    3.51    0.28
   6   2 -19    3.70    0.29
   6  -2 -19    3.15    0.28
   6  -2 -18    2.18    0.21
   6   2 -18    2.10    0.23
   6   2 -18    2.07    0.21
   6  -2 -18    2.22    0.24
   6   2 -18    2.05    0.22
   6   2 -17    0.19    0.10
   6  -2 -17    0.09    0.10
   6   2 -17    0.22    0.09
   6   2 -17    0.17    0.09
   6  -2 -17    0.17    0.10
   6   2 -16    0.98    0.16
   6  -2 -16    0.85    0.16
   6  -2 -16    0.89    0.16
   6   2 -16    0.65    0.14
   6   2 -16    0.54    0.13
   6  -2 -15   15.71    0.54
   6   2 -15   15.71    0.51
   6   2 -15   15.67    0.56
   6  -2 -15   16.05    0.56
   6  -2 -14   21.29    0.63
   6   2 -14   21.05    0.57
   6   2 -14   22.04    0.65
   6  -2 -14   20.21    0.62
   6  -2 -13    0.25    0.13
   6   2 -13    0.09    0.10
   6   2 -13    0.27    0.11
   6  -2 -12   43.38    0.88
   6   2 -12   41.02    0.88
   6   2 -12   41.39    0.74
   6  -2 -11    3.23    0.25
   6   2 -11    2.70    0.19
   6   2 -11    2.99    0.25
   6  -2 -10   10.24    0.43
   6   2 -10    9.83    0.33
   6   2 -10   10.68    0.44
   6  -2  -9   -0.05    0.08
   6   2  -9   -0.05    0.09
   6   2  -9    0.10    0.05
  -6   2   9   -0.05    0.06
   6  -2  -8    9.45    0.40
   6   2  -8    9.59    0.29
  -6   2   8    9.64    0.31
   6   2  -8    9.12    0.40
   6   2  -7    1.26    0.10
  -6   2   7    1.40    0.12
   6  -2  -7    1.27    0.16
   6   2  -7    1.37    0.17
   6  -2  -6   10.86    0.43
   6   2  -6   10.52    0.25
   6   2  -6   10.56    0.43
  -6   2   6   10.55    0.30
   6  -2  -5    2.88    0.23
   6   2  -5    2.58    0.11
  -6   2   5    2.75    0.14
   6   2  -5    2.82    0.23
   6  -2  -4    5.74    0.31
  -6   2   4    5.48    0.19
   6   2  -4    5.88    0.32
   6  -2  -3   10.53    0.42
  -6   2   3   10.08    0.24
   6   2  -3   10.22    0.41
   6  -2  -2    0.50    0.11
   6   2  -2    0.53    0.11
  -6   2   2    0.51    0.06
   6  -2  -1    7.04    0.34
   6   2  -1    6.75    0.33
   6  -2   0    5.57    0.30
   6   2   0    5.84    0.30
   6   2   1    4.44    0.27
   6  -2   1    4.13    0.27
   6   2   2   16.69    0.50
   6   2   3    0.77    0.14
  -6  -2  -3    0.97    0.11
   6   2   4   68.33    1.02
  -6  -2  -4   67.90    0.79
   6   2   5    0.73    0.14
  -6  -2  -5    0.62    0.11
   6   2   6   17.95    0.52
  -6  -2  -6   17.22    0.43
   6   2   7   17.09    0.50
  -6   2  -7   16.94    0.36
  -6   2  -7   17.71    0.48
  -6  -2  -7   17.89    0.45
   6   2   8    6.77    0.32
  -6   2  -8    5.99    0.23
  -6   2  -8    6.65    0.30
  -6  -2  -8    7.02    0.29
  -6  -2  -9    0.69    0.11
  -6   2  -9    0.59    0.08
  -6   2  -9    0.47    0.10
   6   2   9    0.60    0.11
   6   2  10    6.15    0.30
  -6   2 -10    5.47    0.24
  -6   2 -10    6.11    0.30
  -6  -2 -10    6.18    0.30
  -6  -2 -11    4.94    0.27
   6   2  11    4.67    0.26
  -6   2 -11    4.42    0.23
  -6   2 -11    4.99    0.29
  -6  -2 -12    4.53    0.27
  -6   2 -12    4.47    0.24
  -6   2 -12    4.18    0.27
  -6   2 -13    1.55    0.16
  -6   2 -13    1.98    0.20
  -6  -2 -13    1.72    0.18
  -6   2 -14   10.71    0.40
  -6  -2 -14   10.67    0.44
  -6   2 -14   10.98    0.45
  -6  -2 -15    1.75    0.20
  -6   2 -15    1.53    0.17
  -6   2 -15    1.68    0.20
  -6   2 -16    1.21    0.16
  -6  -2 -16    0.97    0.16
  -6   2 -16    1.02    0.16
  -6  -2 -17    0.03    0.10
  -6   2 -17    0.13    0.10
  -6   2 -17   -0.02    0.07
  -6   2 -18    7.29    0.42
  -6   2 -18    7.29    0.38
  -6  -2 -18    7.71    0.42
  -6   2 -19    0.45    0.13
  -6   2 -19    0.49    0.15
  -6   2 -20    2.23    0.23
  -6   2 -20    1.71    0.22
  -6   2 -21    0.07    0.09
  -6   2 -21   -0.09    0.10
  -6   2 -22   -0.21    0.12
  -6   2 -22   -0.02    0.11
  -6   2 -23    0.10    0.12
  -6   2 -23    0.14    0.09
  -6   2 -24    1.25    0.21
   6   3 -27    0.84    0.19
   6   3 -26    0.27    0.11
   6   3 -25    0.60    0.16
   6   3 -24    0.10    0.09
   6   3 -24   -0.01    0.10
   6   3 -24    0.32    0.13
   6  -3 -24    0.25    0.11
   6   3 -23    0.20    0.11
   6   3 -23    0.21    0.11
   6   3 -23    0.10    0.10
   6  -3 -23    0.09    0.12
   6   3 -22    0.34    0.10
   6   3 -22    0.35    0.12
   6   3 -22    0.30    0.12
   6  -3 -22    0.37    0.13
   6   3 -21    0.06    0.08
   6   3 -21    0.02    0.08
   6  -3 -21    0.22    0.13
   6   3 -21    0.14    0.12
   6   3 -20    8.66    0.46
   6   3 -20    9.09    0.46
   6   3 -20    8.32    0.43
   6  -3 -20    8.89    0.47
   6  -3 -19    4.22    0.29
   6   3 -19    4.62    0.33
   6   3 -19    4.50    0.32
   6   3 -19    4.28    0.30
   6  -3 -19    4.21    0.32
   6  -3 -18    4.70    0.30
   6   3 -18    3.61    0.29
   6   3 -18    4.36    0.31
   6   3 -18    3.82    0.28
   6  -3 -18    4.79    0.34
   6  -3 -17    6.24    0.34
   6   3 -17    6.27    0.35
   6   3 -17    5.93    0.36
   6   3 -17    6.43    0.35
   6  -3 -17    6.60    0.39
   6  -3 -16    2.87    0.25
   6   3 -16    2.33    0.22
   6   3 -16    2.66    0.25
   6   3 -16    2.53    0.23
   6  -3 -16    2.58    0.25
   6  -3 -15    8.30    0.39
   6   3 -15    8.35    0.39
   6   3 -15    8.00    0.41
   6  -3 -15    8.21    0.42
   6  -3 -14    0.03    0.08
   6  -3 -14   -0.10    0.11
   6   3 -14   -0.04    0.09
   6   3 -14    0.06    0.06
   6  -3 -13    0.42    0.09
   6  -3 -13    0.40    0.11
   6   3 -13    0.51    0.13
   6   3 -13    0.33    0.09
   6  -3 -12    1.16    0.15
   6   3 -12    1.23    0.16
   6   3 -12    1.22    0.14
   6  -3 -11    1.49    0.17
   6   3 -11    1.48    0.18
   6   3 -11    1.14    0.13
   6  -3 -10    8.62    0.39
   6   3 -10    8.59    0.31
   6   3 -10    8.68    0.41
   6  -3  -9   32.47    0.75
   6   3  -9   32.31    0.57
   6   3  -9   33.72    0.78
   6  -3  -8    5.83    0.33
   6   3  -8    5.84    0.23
  -6   3   8    5.35    0.25
   6   3  -8    6.23    0.34
   6  -3  -7   17.64    0.55
  -6   3   7   17.16    0.43
   6   3  -7   17.93    0.37
   6   3  -7   17.85    0.56
   6  -3  -6    1.13    0.16
   6   3  -6    1.20    0.16
  -6   3   6    1.03    0.10
   6   3  -6    0.82    0.08
   6   3  -5   -0.02    0.07
  -6   3   5    0.05    0.04
   6   3  -5    0.06    0.03
   6  -3  -5    0.06    0.09
   6  -3  -4   12.60    0.47
  -6   3   4   13.71    0.33
   6   3  -4   13.05    0.24
   6   3  -4   13.88    0.48
   6   3  -3   11.85    0.19
   6   3  -3   11.93    0.44
   6   3  -2   15.50    0.50
   6   3  -1   34.59    0.74
   6   3   0    3.16    0.23
   6   3   1   17.96    0.54
   6   3   2    0.07    0.07
  -6  -3  -2    0.28    0.06
   6   3   3    0.60    0.12
  -6  -3  -3    0.58    0.08
   6   3   4    3.02    0.23
  -6  -3  -4    3.29    0.18
   6   3   5    0.97    0.13
  -6  -3  -5    0.72    0.10
   6   3   6   12.91    0.44
  -6  -3  -6   13.04    0.37
   6   3   7   13.72    0.46
  -6  -3  -7   13.49    0.39
   6   3   8    0.78    0.13
  -6   3  -8    0.77    0.12
  -6  -3  -8    0.93    0.12
   6   3   9    1.12    0.14
  -6   3  -9    0.93    0.13
  -6  -3  -9    1.08    0.13
   6   3  10   10.89    0.39
  -6  -3 -10   10.37    0.38
  -6   3 -10   10.08    0.34
  -6   3 -10   10.14    0.39
   6   3  11    1.21    0.14
  -6  -3 -11    1.34    0.15
  -6   3 -11    1.14    0.13
  -6   3 -11    1.05    0.14
  -6   3 -12    1.24    0.16
   6   3  12    1.57    0.16
  -6   3 -12    1.16    0.13
  -6  -3 -12    1.51    0.17
  -6   3 -13    0.99    0.15
  -6  -3 -13    1.13    0.15
  -6   3 -13    0.67    0.11
  -6   3 -14    0.35    0.10
  -6   3 -14    0.44    0.09
  -6  -3 -14    0.61    0.11
  -6   3 -15    1.84    0.20
  -6   3 -15    1.75    0.18
  -6  -3 -15    1.64    0.19
  -6   3 -16    3.76    0.27
  -6  -3 -16    4.01    0.29
  -6   3 -16    3.99    0.29
  -6   3 -17    1.67    0.19
  -6   3 -17    1.53    0.19
  -6   3 -18    1.10    0.18
  -6   3 -18    1.17    0.17
  -6   3 -19   -0.02    0.10
  -6   3 -19    0.03    0.08
  -6   3 -20    2.05    0.24
  -6   3 -20    2.13    0.25
  -6   3 -21    1.55    0.22
  -6   3 -21    1.75    0.22
  -6   3 -22    0.20    0.11
  -6   3 -22    0.31    0.14
  -6   3 -23    0.53    0.16
  -6   3 -23    0.59    0.15
  -6   3 -24    0.13    0.11
  -6   3 -25    0.89    0.19
   6   4 -27    0.45    0.15
   6   4 -26    0.26    0.14
   6   4 -25    0.45    0.14
   6   4 -25    0.09    0.12
   6   4 -24    0.21    0.12
   6   4 -24    0.07    0.11
   6   4 -24    0.11    0.11
   6  -4 -24    0.06    0.10
   6   4 -23    0.60    0.15
   6   4 -23    0.45    0.13
   6   4 -23    0.61    0.16
   6  -4 -23    0.39    0.14
   6   4 -22    2.69    0.25
   6   4 -22    2.94    0.30
   6   4 -22    2.38    0.25
   6  -4 -22    2.52    0.28
   6   4 -21    0.16    0.10
   6   4 -21    0.06    0.09
   6  -4 -21    0.11    0.09
   6   4 -21    0.21    0.12
   6   4 -20    3.60    0.30
   6   4 -20    3.69    0.30
   6   4 -20    3.53    0.27
   6  -4 -20    3.83    0.32
   6   4 -19    0.53    0.13
   6  -4 -19    0.53    0.15
   6   4 -19    0.15    0.10
   6   4 -19    0.38    0.12
   6   4 -18    0.24    0.10
   6  -4 -18    0.37    0.11
   6   4 -18    0.32    0.12
   6   4 -18    0.37    0.11
   6   4 -17    0.39    0.12
   6  -4 -17    0.28    0.11
   6   4 -17    0.44    0.13
   6   4 -17    0.15    0.09
   6   4 -16    2.79    0.24
   6   4 -16    3.31    0.28
   6   4 -16    2.91    0.24
   6  -4 -16    3.27    0.27
   6  -4 -15    1.54    0.20
   6   4 -15    1.96    0.21
   6   4 -15    1.87    0.19
   6  -4 -14    0.38    0.11
   6   4 -14    0.27    0.09
   6   4 -14    0.40    0.10
   6  -4 -13    0.37    0.11
   6   4 -13    0.31    0.11
   6   4 -13    0.41    0.10
   6   4 -12    4.80    0.27
   6   4 -12    4.83    0.31
   6   4 -11    1.79    0.16
   6   4 -11    2.15    0.21
   6   4 -10    1.89    0.16
   6   4 -10    1.98    0.20
   6   4  -9    1.21    0.17
   6   4  -9    1.28    0.12
   6   4  -8    0.18    0.10
   6   4  -8    0.13    0.05
   6   4  -7   15.31    0.37
   6   4  -7   15.26    0.53
  -6   4   6   34.23    0.61
   6   4  -6   33.15    0.50
   6   4  -6   33.91    0.77
   6   4  -5    4.78    0.18
   6   4  -5    5.01    0.30
   6   4  -4   48.96    0.92
   6   4  -4   47.59    0.52
   6   4  -3    1.43    0.19
   6   4  -3    1.10    0.08
   6   4  -2    6.56    0.34
   6   4  -2    6.53    0.15
   6   4  -1    2.82    0.23
   6   4   0    0.58    0.12
   6   4   1    0.72    0.13
  -6  -4  -1    0.72    0.08
   6   4   2    4.02    0.09
   6   4   2    4.49    0.27
  -6  -4  -2    4.69    0.19
   6   4   3   -0.02    0.10
   6   4   3    0.13    0.03
  -6  -4  -3    0.09    0.04
   6   4   4    7.44    0.35
   6   4   4    7.23    0.16
  -6  -4  -4    7.27    0.25
   6   4   5    6.16    0.16
   6   4   5    5.76    0.31
  -6  -4  -5    5.98    0.24
   6   4   6    2.62    0.21
   6   4   6    2.77    0.12
  -6  -4  -6    2.80    0.17
  -6  -4  -7    9.31    0.32
   6   4   7    8.56    0.37
   6   4   7    9.00    0.24
  -6  -4  -8    3.67    0.21
   6   4   8    3.78    0.25
   6   4   8    3.72    0.17
  -6   4  -8    3.90    0.25
   6   4   9    2.06    0.19
  -6  -4  -9    1.92    0.16
  -6   4  -9    1.69    0.17
   6   4  10    0.36    0.09
  -6   4 -10    0.43    0.10
  -6  -4 -10    0.47    0.09
   6   4  11    1.40    0.15
  -6  -4 -11    1.25    0.14
  -6   4 -11    1.27    0.16
   6   4  12    1.85    0.17
  -6   4 -12    1.69    0.16
  -6  -4 -12    1.93    0.18
  -6   4 -12    1.83    0.18
  -6   4 -13    0.85    0.14
   6   4  13    0.93    0.13
  -6   4 -13    0.61    0.10
  -6  -4 -13    0.68    0.11
   6   4  14    0.13    0.07
  -6   4 -14   -0.01    0.07
  -6  -4 -14   -0.08    0.08
  -6   4 -14    0.08    0.09
  -6   4 -15    0.17    0.10
  -6   4 -15    0.07    0.07
  -6   4 -16    1.41    0.19
  -6   4 -16    1.12    0.16
  -6   4 -17    3.91    0.31
  -6   4 -17    3.01    0.25
  -6   4 -18    5.08    0.35
  -6   4 -18    5.13    0.33
  -6   4 -19    0.70    0.17
  -6   4 -19    0.55    0.15
  -6   4 -20    3.53    0.32
  -6   4 -20    3.64    0.31
  -6   4 -21    1.39    0.20
  -6   4 -21    1.38    0.21
  -6   4 -22    0.16    0.11
  -6   4 -22    0.32    0.13
  -6   4 -23    0.59    0.15
  -6   4 -24    0.22    0.11
  -6   4 -25    0.99    0.21
   6   5 -27   -0.02    0.12
   6   5 -26   -0.21    0.15
   6   5 -25    2.90    0.29
   6   5 -25    2.69    0.31
   6   5 -24    0.17    0.13
   6   5 -24    0.13    0.11
   6   5 -24    0.04    0.10
   6   5 -23    1.35    0.21
   6   5 -23    1.51    0.20
   6  -5 -23    1.30    0.22
   6   5 -23    1.40    0.23
   6   5 -22    0.29    0.12
   6   5 -22    0.16    0.08
   6  -5 -22    0.13    0.10
   6   5 -22    0.10    0.12
   6   5 -21   -0.01    0.08
   6   5 -21   -0.15    0.11
   6  -5 -21   -0.02    0.10
   6   5 -21   -0.21    0.12
   6   5 -20    0.57    0.12
   6   5 -20    0.56    0.13
   6  -5 -20    0.85    0.17
   6   5 -20    0.63    0.14
   6   5 -19    2.41    0.25
   6   5 -19    2.45    0.25
   6   5 -19    2.64    0.23
   6  -5 -19    2.62    0.27
   6   5 -18    0.40    0.11
   6  -5 -18    0.35    0.13
   6   5 -18    0.03    0.09
   6   5 -18    0.19    0.09
   6   5 -17    0.11    0.08
   6  -5 -17   -0.06    0.10
   6   5 -17   -0.04    0.10
   6   5 -17   -0.02    0.08
   6  -5 -16    0.08    0.08
   6   5 -16   -0.01    0.08
   6   5 -16    0.17    0.09
   6   5 -16   -0.07    0.09
   6  -5 -15    0.36    0.11
   6   5 -15    0.26    0.10
   6   5 -15    0.29    0.09
   6  -5 -14    1.14    0.17
   6   5 -14    1.43    0.19
   6   5 -14    1.41    0.16
   6  -5 -13    0.29    0.11
   6   5 -13    0.32    0.11
   6   5 -13    0.18    0.08
   6   5 -12    2.67    0.21
   6   5 -12    2.78    0.25
   6  -5 -12    2.82    0.24
   6   5 -11    5.38    0.28
   6   5 -11    5.84    0.35
   6   5 -10    0.78    0.14
   6   5 -10    0.82    0.11
   6   5  -9    0.23    0.10
   6   5  -9   -0.06    0.06
   6   5  -8    9.02    0.31
   6   5  -8    9.17    0.42
   6   5  -7    1.43    0.12
   6   5  -7    1.49    0.18
   6   5  -6    0.00    0.07
   6   5  -5    3.21    0.24
   6   5  -4    0.13    0.07
   6   5  -3   -0.03    0.08
   6   5  -2    1.06    0.15
   6   5  -1   15.24    0.51
  -6  -5   1   15.28    0.29
   6   5   0    0.13    0.10
  -6  -5   0    0.13    0.04
   6   5   1   38.54    0.80
  -6  -5  -1   37.39    0.49
  -6  -5  -2    0.30    0.06
   6   5   2    0.40    0.11
   6   5   3    2.99    0.12
   6   5   3    2.82    0.22
  -6  -5  -3    2.72    0.15
   6   5   4    0.66    0.12
   6   5   4    0.43    0.06
  -6  -5  -4    0.54    0.07
  -6  -5  -5    7.81    0.27
   6   5   5    7.74    0.22
   6   5   5    7.79    0.36
  -6  -5  -6    0.70    0.10
   6   5   6    0.54    0.10
   6   5   6    0.60    0.07
   6   5   7    5.31    0.29
  -6  -5  -7    5.83    0.25
   6   5   7    5.09    0.20
   6   5   8    2.38    0.20
   6   5   8    1.72    0.13
  -6  -5  -8    2.20    0.16
   6   5   9   -0.02    0.07
  -6   5  -9   -0.02    0.07
  -6  -5  -9   -0.02    0.05
   6   5  10    3.18    0.22
  -6  -5 -10    3.41    0.22
  -6   5 -10    3.29    0.24
   6   5  11    0.07    0.06
  -6  -5 -11    0.15    0.07
  -6   5 -11    0.17    0.08
   6   5  12    0.09    0.07
  -6   5 -12    0.09    0.09
   6   5  13    0.33    0.09
  -6   5 -13    0.22    0.09
   6   5  14    0.62    0.11
  -6   5 -14    0.64    0.13
  -6   5 -14    0.49    0.11
  -6   5 -15    0.10    0.08
  -6   5 -15    0.02    0.09
  -6   5 -16   -0.13    0.10
  -6   5 -16   -0.07    0.09
  -6   5 -17    0.05    0.09
  -6   5 -17   -0.02    0.08
  -6   5 -18    0.14    0.10
  -6   5 -18    0.33    0.12
  -6   5 -19   -0.04    0.10
  -6   5 -19   -0.04    0.08
  -6   5 -20    0.09    0.09
  -6   5 -20    0.24    0.12
  -6   5 -21    0.76    0.16
  -6   5 -21    0.52    0.15
  -6   5 -22    0.08    0.12
  -6   5 -22    0.05    0.09
  -6   5 -23    1.71    0.24
  -6   5 -24    0.08    0.10
  -6   5 -25    1.45    0.24
   6   6 -26   -0.06    0.12
   6   6 -25    0.02    0.11
   6   6 -25   -0.13    0.13
   6   6 -24   -0.08    0.11
   6   6 -24   -0.14    0.15
   6   6 -23   -0.13    0.12
   6   6 -23    0.04    0.10
   6   6 -22    2.69    0.24
   6   6 -22    2.34    0.26
   6  -6 -22    2.52    0.28
   6   6 -22    2.71    0.29
   6   6 -21    0.79    0.14
   6   6 -21    0.55    0.15
   6  -6 -21    0.84    0.18
   6   6 -21    0.51    0.14
   6  -6 -20    8.88    0.49
   6   6 -20    9.13    0.49
   6   6 -20    8.58    0.47
   6   6 -20    8.85    0.41
   6   6 -19    0.26    0.10
   6  -6 -19    0.46    0.15
   6   6 -19    0.25    0.11
   6   6 -19    0.33    0.13
   6   6 -18    1.27    0.17
   6  -6 -18    1.43    0.21
   6   6 -18    1.45    0.20
   6   6 -18    1.60    0.21
   6   6 -17    0.21    0.09
   6  -6 -17    0.21    0.11
   6   6 -17    0.28    0.11
   6   6 -17    0.10    0.10
   6   6 -16    4.36    0.30
   6   6 -16    4.11    0.31
   6   6 -16    3.76    0.26
   6  -6 -16    3.95    0.30
   6  -6 -15    0.98    0.16
   6   6 -15    0.63    0.14
   6   6 -15    0.78    0.14
   6   6 -14    4.66    0.30
   6   6 -14    5.07    0.34
   6  -6 -14    4.67    0.33
   6   6 -13    2.53    0.21
   6   6 -13    2.59    0.24
   6  -6 -13    3.10    0.26
   6   6 -12    2.78    0.22
   6   6 -12    2.81    0.25
   6  -6 -12    3.18    0.26
   6  -6 -11   -0.08    0.09
   6   6 -11   -0.02    0.08
   6   6 -11    0.11    0.06
   6   6 -10    1.16    0.17
   6   6 -10    1.04    0.13
   6   6  -9    0.21    0.08
   6   6  -8    0.18    0.10
   6   6  -7   19.19    0.61
   6   6  -6    3.85    0.28
   6   6  -5    0.42    0.12
   6   6  -4   17.63    0.57
   6   6  -3    3.65    0.27
  -6  -6   3    3.45    0.12
   6   6  -2    5.02    0.31
  -6  -6   2    4.65    0.14
  -6  -6   1    0.02    0.03
   6   6  -1   -0.03    0.07
   6   6   0    1.32    0.17
  -6  -6   0    1.45    0.09
   6   6   1    4.02    0.27
  -6  -6  -1    4.32    0.16
  -6  -6  -2   17.32    0.33
   6   6   2   17.91    0.56
  -6  -6  -3    3.03    0.15
   6   6   3    3.29    0.25
   6   6   4    7.67    0.24
  -6  -6  -4    7.54    0.25
   6   6   4    7.56    0.36
   6   6   5    2.92    0.16
   6   6   5    3.11    0.24
  -6  -6  -5    2.88    0.16
   6   6   6    1.54    0.12
  -6  -6  -6    1.72    0.14
   6   6   6    1.16    0.15
   6   6   7    0.29    0.10
  -6  -6  -7    0.37    0.08
   6   6   8    4.29    0.27
   6   6   9    1.44    0.16
  -6   6  -9    1.39    0.16
   6   6  10    7.87    0.35
  -6   6 -10    7.05    0.35
   6   6  11    0.37    0.10
  -6   6 -11    0.37    0.11
   6   6  12    5.40    0.29
  -6   6 -12    5.29    0.32
   6   6  13    1.04    0.14
  -6   6 -13    1.13    0.16
  -6   6 -14    0.45    0.12
  -6   6 -15    0.50    0.12
  -6   6 -16    0.33    0.12
  -6   6 -16    0.49    0.12
  -6   6 -17    0.00    0.09
  -6   6 -17   -0.08    0.08
  -6   6 -18    0.30    0.12
  -6   6 -18    0.48    0.12
  -6   6 -19    0.03    0.09
  -6   6 -19   -0.01    0.08
  -6   6 -20   -0.11    0.11
  -6   6 -20   -0.06    0.09
  -6   6 -21    0.08    0.11
  -6   6 -21    0.20    0.11
  -6   6 -22   -0.05    0.10
  -6   6 -23    0.25    0.12
  -6   6 -24   -0.07    0.15
  -6   6 -25    0.35    0.18
   6   7 -26    0.18    0.16
   6   7 -25    0.79    0.17
   6   7 -25    0.61    0.17
   6   7 -24    0.49    0.15
   6   7 -24    0.76    0.20
   6   7 -23    4.07    0.37
   6   7 -23    4.19    0.35
   6   7 -22    0.07    0.10
   6  -7 -22    0.09    0.11
   6   7 -22   -0.02    0.10
   6   7 -21    0.02    0.11
   6  -7 -21    0.12    0.11
   6   7 -21    0.08    0.11
   6   7 -20    0.32    0.13
   6  -7 -20    0.44    0.14
   6   7 -20    0.14    0.11
   6  -7 -19    3.75    0.32
   6   7 -19    3.63    0.31
   6   7 -19    4.01    0.34
   6   7 -19    3.52    0.26
   6   7 -18    1.03    0.15
   6  -7 -18    1.24    0.20
   6   7 -18    0.93    0.18
   6   7 -18    0.93    0.17
   6   7 -17   15.19    0.59
   6   7 -17   16.88    0.65
   6   7 -17   15.52    0.51
   6  -7 -17   17.05    0.64
   6   7 -16    3.55    0.28
   6   7 -16    3.58    0.30
   6   7 -16    3.78    0.25
   6  -7 -16    4.08    0.32
   6   7 -15    2.85    0.25
   6  -7 -15    2.54    0.25
   6   7 -15    2.42    0.24
   6  -7 -14    0.09    0.10
   6   7 -14    0.30    0.12
   6   7 -14    0.19    0.10
   6  -7 -13    0.05    0.09
   6   7 -13    0.26    0.09
   6   7 -13    0.15    0.09
   6  -7 -12    0.29    0.10
   6   7 -12    0.50    0.13
   6   7 -12    0.47    0.10
   6   7 -11    8.91    0.44
   6  -7 -11    8.82    0.42
   6   7 -10    3.34    0.28
   6  -7 -10    3.02    0.25
   6   7  -9    2.00    0.22
   6   7  -8    3.26    0.27
   6   7  -7   16.04    0.57
   6   7  -6    1.35    0.19
   6   7  -5    9.26    0.43
  -6  -7   5    9.57    0.14
  -6  -7   4    0.13    0.02
   6   7  -4    0.09    0.08
   6   7  -3    1.38    0.18
  -6  -7   3    1.29    0.05
  -6  -7   2    1.37    0.06
   6   7  -2    1.21    0.17
  -6  -7   1   17.00    0.24
   6   7  -1   17.19    0.57
  -6  -7   0    9.67    0.20
   6   7   0   10.02    0.43
  -6  -7  -1    6.24    0.18
   6   7   1    6.48    0.35
   6   7   2   -0.01    0.07
   6   7   3    0.10    0.07
   6   7   4    0.14    0.08
   6   7   5   15.61    0.53
   6   7   6    5.43    0.31
   6   7   7   20.35    0.59
   6   7   8    3.20    0.24
   6   7   9    2.07    0.19
  -6   7  -9    2.59    0.22
   6   7  10    0.02    0.07
  -6   7 -10   -0.04    0.09
   6   7  11    0.64    0.12
  -6   7 -11    0.67    0.13
   6   7  12    0.02    0.07
  -6   7 -12    0.17    0.09
   6   7  13    2.68    0.21
  -6   7 -13    2.26    0.23
  -6   7 -14    1.79    0.21
  -6   7 -15    1.37    0.18
  -6   7 -16   -0.09    0.10
  -6   7 -17    0.03    0.09
  -6   7 -17   -0.04    0.08
  -6   7 -18    0.93    0.17
  -6   7 -18    1.22    0.19
  -6   7 -19    0.34    0.13
  -6   7 -19    0.19    0.10
  -6   7 -20    0.06    0.11
  -6   7 -20   -0.10    0.11
  -6   7 -21    0.19    0.11
  -6   7 -21    0.48    0.15
  -6   7 -22    0.32    0.15
  -6   7 -23    4.52    0.39
  -6   7 -24    0.10    0.14
   6   8 -25    0.26    0.14
   6   8 -25    0.38    0.16
   6   8 -24    0.03    0.12
   6   8 -24    0.08    0.15
   6   8 -23    2.85    0.31
   6   8 -23    3.08    0.33
   6   8 -22    5.33    0.40
   6   8 -22    4.96    0.41
   6   8 -21    2.02    0.26
   6  -8 -21    1.96    0.26
   6   8 -21    1.72    0.24
   6  -8 -20    3.16    0.31
   6   8 -20    2.71    0.29
   6   8 -20    2.44    0.27
   6  -8 -19    1.43    0.23
   6   8 -19    1.52    0.21
   6   8 -19    1.60    0.23
   6  -8 -18   -0.06    0.12
   6   8 -18   -0.03    0.10
   6   8 -18   -0.02    0.10
   6  -8 -17    0.12    0.10
   6   8 -17    0.20    0.11
   6   8 -17    0.32    0.12
   6   8 -16    1.77    0.17
   6  -8 -16    1.69    0.22
   6   8 -16    1.43    0.21
   6   8 -16    1.63    0.20
   6  -8 -15    1.69    0.22
   6   8 -15    2.03    0.25
   6   8 -15    1.84    0.21
   6   8 -15    1.89    0.18
   6   8 -14    5.08    0.33
   6   8 -14    5.44    0.37
   6  -8 -14    5.25    0.35
   6   8 -13    4.78    0.35
   6  -8 -13    4.66    0.33
   6   8 -12    2.44    0.25
   6  -8 -12    2.47    0.24
   6   8 -11    2.91    0.27
   6  -8 -11    3.15    0.26
   6   8 -10    6.41    0.39
   6  -8 -10    6.29    0.36
   6   8  -9    2.25    0.24
   6  -8  -9    2.03    0.22
   6   8  -8    6.55    0.39
   6  -8  -8    6.48    0.35
   6   8  -7   -0.03    0.10
   6   8  -6    0.31    0.11
   6   8  -5    5.80    0.36
   6   8  -4   15.10    0.56
   6   8  -3    0.79    0.15
   6   8  -2   18.82    0.61
   6   8  -1    0.47    0.12
   6   8   0    0.09    0.09
   6   8   1    7.23    0.38
   6   8   2    1.88    0.20
   6   8   3    2.51    0.23
   6   8   4    9.69    0.44
   6   8   5    6.12    0.34
   6   8   6    0.48    0.13
   6   8   7    0.43    0.10
   6   8   8    0.13    0.09
   6   8   9    1.64    0.18
   6   8  10    0.40    0.09
  -6   8 -10    0.48    0.11
   6   8  11    0.94    0.14
  -6   8 -11    0.93    0.15
   6   8  12    2.36    0.21
  -6   8 -12    2.12    0.21
  -6   8 -13    0.23    0.11
  -6   8 -14    0.27    0.11
  -6   8 -15    0.08    0.10
  -6   8 -16    0.22    0.08
  -6   8 -17    0.73    0.14
  -6   8 -18    0.24    0.12
  -6   8 -19    1.71    0.23
  -6   8 -19    1.68    0.23
  -6   8 -20    3.01    0.31
  -6   8 -20    3.22    0.31
  -6   8 -21    0.03    0.10
  -6   8 -22    3.37    0.34
  -6   8 -23    0.30    0.14
   6   9 -25    0.10    0.12
   6   9 -24    1.04    0.21
   6   9 -24    0.72    0.19
   6   9 -23    2.15    0.27
   6   9 -23    2.06    0.28
   6   9 -22    0.73    0.18
   6   9 -22    0.52    0.15
   6   9 -21    0.08    0.10
   6   9 -21    0.08    0.11
   6   9 -20    0.05    0.10
   6  -9 -20    0.23    0.14
   6   9 -20    0.22    0.13
   6  -9 -19    3.36    0.32
   6   9 -19    3.59    0.33
   6   9 -19    3.27    0.31
   6  -9 -18    3.24    0.30
   6   9 -18    2.52    0.28
   6   9 -18    2.89    0.31
   6  -9 -17    8.55    0.47
   6   9 -17    8.74    0.47
   6   9 -17    8.17    0.48
   6  -9 -16    1.57    0.21
   6   9 -16    2.11    0.26
   6   9 -16    1.40    0.20
   6   9 -15    4.88    0.37
   6  -9 -15    4.82    0.35
   6  -9 -14    0.32    0.12
   6   9 -14    0.06    0.09
   6  -9 -13   -0.01    0.09
   6   9 -13    0.11    0.09
   6   9 -12    2.97    0.29
   6  -9 -12    2.70    0.25
   6  -9 -11    1.73    0.20
   6   9 -11    1.63    0.21
   6  -9 -10    0.06    0.10
   6   9 -10    0.11    0.08
   6  -9  -9    0.66    0.14
   6   9  -9    0.34    0.11
   6  -9  -8    0.95    0.15
   6   9  -8    1.11    0.17
   6  -9  -7    0.56    0.12
   6   9  -7    0.58    0.14
   6   9  -6    6.17    0.38
   6   9  -5   -0.05    0.10
   6   9  -4    0.82    0.15
   6   9  -3    4.41    0.31
   6   9  -2    3.26    0.27
   6   9  -1   11.22    0.49
   6   9   0   10.77    0.48
   6   9   1    0.48    0.12
   6   9   2    0.10    0.08
   6   9   3    0.33    0.10
   6   9   4   -0.05    0.08
   6   9   5    0.86    0.15
   6   9   6    0.07    0.07
   6   9   7   10.33    0.45
   6   9   8    0.66    0.13
   6   9   9    8.90    0.41
   6   9  10    0.18    0.09
  -6   9 -10    0.11    0.08
   6   9  11    1.45    0.17
  -6   9 -11    1.25    0.18
  -6   9 -12    2.85    0.25
  -6   9 -13    0.64    0.14
  -6   9 -14    0.06    0.09
  -6   9 -15    2.00    0.23
  -6   9 -16    1.26    0.18
  -6   9 -17    0.09    0.09
  -6   9 -18    0.16    0.12
  -6   9 -19    0.29    0.11
  -6   9 -20   -0.03    0.10
  -6   9 -21   -0.05    0.11
  -6   9 -22    0.78    0.20
   6  10 -23    0.50    0.17
   6  10 -23    0.60    0.17
   6  10 -22    0.33    0.16
   6  10 -22    0.25    0.14
   6  10 -21    2.53    0.29
   6  10 -21    2.07    0.28
   6  10 -20    2.89    0.31
   6  10 -20    3.03    0.32
   6  10 -19    1.60    0.23
   6  10 -19    1.34    0.22
   6 -10 -18   -0.15    0.12
   6  10 -18    0.01    0.11
   6  10 -18    0.06    0.10
   6 -10 -17    0.09    0.10
   6  10 -17    0.10    0.11
   6  10 -17    0.00    0.10
   6 -10 -16    0.14    0.10
   6  10 -16    0.21    0.11
   6 -10 -15    0.03    0.10
   6  10 -15   -0.10    0.11
   6 -10 -14    0.83    0.17
   6  10 -14    0.57    0.15
   6 -10 -13    1.05    0.17
   6  10 -13    1.16    0.19
   6 -10 -12    0.62    0.14
   6  10 -12    0.74    0.16
   6 -10 -11    0.78    0.15
   6  10 -11    0.78    0.16
   6 -10 -10    0.69    0.14
   6  10 -10    1.04    0.18
   6  10  -9   15.31    0.63
   6 -10  -9   17.62    0.59
   6 -10  -8    1.08    0.17
   6  10  -8    1.14    0.20
   6 -10  -7    0.15    0.09
   6  10  -7    0.05    0.10
   6 -10  -6    0.36    0.11
   6  10  -6    0.37    0.12
   6  10  -5    7.45    0.43
   6 -10  -5    8.14    0.39
   6  10  -4    8.53    0.45
   6  10  -3    3.04    0.28
   6  10  -2    2.40    0.25
   6  10  -1   18.19    0.64
   6  10   0    5.59    0.36
   6  10   1    2.17    0.24
   6  10   2    0.15    0.10
   6  10   3   15.27    0.57
   6  10   4    9.51    0.46
   6  10   5    1.88    0.22
   6  10   6    0.22    0.09
   6  10   7    1.85    0.22
   6  10   8    0.27    0.11
   6  10   9    1.77    0.20
   6  10  10    0.14    0.09
  -6  10 -10    0.14    0.09
   6  10  11    1.37    0.18
  -6  10 -11    1.34    0.17
  -6  10 -12   -0.02    0.08
  -6  10 -13    0.09    0.09
  -6  10 -14    0.51    0.13
  -6  10 -15   -0.03    0.09
  -6  10 -16    0.05    0.08
  -6  10 -17    0.10    0.10
  -6  10 -18    0.24    0.14
   6  11 -22    0.82    0.21
   6  11 -21    1.92    0.27
   6  11 -21    1.48    0.25
   6  11 -20    0.29    0.13
   6  11 -20    0.39    0.16
   6  11 -19    0.17    0.13
   6  11 -19    0.21    0.12
   6  11 -18    2.13    0.28
   6  11 -18    2.09    0.27
   6 -11 -17    0.15    0.11
   6  11 -17    0.28    0.12
   6 -11 -16    0.24    0.12
   6  11 -16    0.17    0.11
   6 -11 -15    0.63    0.14
   6  11 -15    0.68    0.17
   6 -11 -14    0.19    0.11
   6  11 -14    0.25    0.12
   6 -11 -13    0.25    0.11
   6  11 -13   -0.10    0.10
   6 -11 -12    0.71    0.14
   6  11 -12    0.74    0.15
   6 -11 -11    1.13    0.18
   6  11 -11    0.64    0.15
   6  11 -10    3.84    0.33
   6 -11 -10    3.77    0.29
   6  11  -9    9.09    0.50
   6 -11  -9    8.73    0.43
   6 -11  -8    1.18    0.18
   6  11  -8    1.54    0.23
   6  11  -7    4.22    0.33
   6 -11  -7    4.44    0.30
   6 -11  -6    1.09    0.16
   6  11  -6    1.01    0.19
   6 -11  -5    0.01    0.07
   6  11  -5   -0.09    0.11
   6 -11  -4    0.11    0.09
   6  11  -4    0.02    0.09
   6  11  -3    5.59    0.38
   6 -11  -3    6.15    0.33
   6  11  -2    0.22    0.11
   6  11  -1    2.63    0.26
   6  11   0    5.27    0.36
   6  11   1    5.52    0.37
   6  11   2    3.43    0.29
   6  11   3    1.45    0.21
   6  11   4    2.94    0.27
   6  11   5    0.24    0.12
   6  11   6    0.64    0.14
   6  11   7    0.10    0.09
   6  11   8    1.24    0.18
   6  11   9    1.93    0.22
   6  11  10    1.41    0.19
  -6  11 -10    1.56    0.20
  -6  11 -11    0.68    0.14
  -6  11 -12    0.09    0.09
  -6  11 -13    0.96    0.17
  -6  11 -14    1.08    0.19
  -6  11 -15    1.69    0.21
  -6  11 -16    0.14    0.10
  -6  11 -17    1.35    0.21
   6  12 -21    2.48    0.32
   6  12 -20    2.15    0.29
   6  12 -19    0.17    0.14
   6  12 -18    0.49    0.17
   6  12 -17    0.21    0.12
   6  12 -16    0.96    0.20
   6 -12 -15    2.73    0.28
   6  12 -15    2.53    0.30
   6 -12 -14    0.99    0.17
   6  12 -14    0.85    0.18
   6 -12 -13    3.10    0.28
   6  12 -13    3.12    0.33
   6 -12 -12    1.97    0.23
   6  12 -12    2.05    0.26
   6 -12 -11    4.09    0.32
   6  12 -11    3.98    0.35
   6 -12 -10    0.51    0.14
   6  12 -10    0.14    0.10
   6 -12  -9    0.88    0.17
   6  12  -9    1.21    0.21
   6 -12  -8    1.35    0.19
   6  12  -8    1.41    0.22
   6 -12  -7    1.00    0.16
   6  12  -7    0.85    0.17
   6  12  -6    2.58    0.29
   6 -12  -6    2.23    0.22
   6  12  -5   11.81    0.56
   6 -12  -5   11.67    0.47
   6  12  -4    4.52    0.36
   6 -12  -4    3.66    0.27
   6  12  -3    6.44    0.43
   6 -12  -3    6.56    0.35
   6 -12  -2    0.18    0.09
   6  12  -2    0.46    0.14
   6 -12  -1    0.25    0.09
   6  12  -1    0.29    0.13
   6  12   0    0.55    0.16
   6 -12   0    0.54    0.11
   6  12   1    1.16    0.20
   6  12   2    3.91    0.32
   6  12   3   17.34    0.66
   6  12   4    2.17    0.24
   6  12   5    1.77    0.23
   6  12   6    0.94    0.17
   6  12   7    0.60    0.13
   6  12   8    0.24    0.11
  -6  12  -9    1.45    0.19
   6  12   9    1.63    0.21
   6  12  10    1.70    0.21
  -6  12 -10    2.05    0.22
  -6  12 -11    0.77    0.15
  -6  12 -12    0.84    0.16
  -6  12 -13    0.46    0.14
  -6  12 -14    1.44    0.21
  -6  12 -15    0.20    0.13
  -6  12 -16    0.18    0.13
   6  13 -15   -0.19    0.14
   6  13 -14    0.11    0.10
   6 -13 -13   -0.15    0.12
   6  13 -13   -0.09    0.10
   6 -13 -12    0.09    0.09
   6  13 -12    0.30    0.15
   6 -13 -11    1.51    0.20
   6  13 -11    1.23    0.22
   6 -13 -10    1.86    0.22
   6  13 -10    1.50    0.24
   6 -13  -9    6.58    0.39
   6  13  -9    6.46    0.46
   6  13  -8    9.65    0.55
   6 -13  -8    9.78    0.46
   6 -13  -7    1.73    0.21
   6  13  -7    1.80    0.25
   6 -13  -6    0.41    0.12
   6  13  -6    0.87    0.19
   6  13  -5    4.16    0.36
   6 -13  -5    3.65    0.27
   6 -13  -4    0.48    0.12
   6  13  -4    0.33    0.15
   6  13  -3    4.60    0.38
   6 -13  -3    4.20    0.28
   6 -13  -2    0.65    0.14
   6  13  -2    0.63    0.18
   6  13  -1    6.17    0.42
   6  13   0    3.13    0.31
   6  13   1    4.89    0.38
   6  13   2    3.49    0.32
   6  13   3    0.28    0.13
   6  13   4    1.76    0.23
   6  13   5    0.00    0.10
   6  13   6    2.37    0.26
   6  13   7    0.16    0.10
   6  13   8    1.25    0.19
   6  13   9    4.33    0.34
  -6  13  -9    3.92    0.31
  -6  13 -10    0.32    0.11
  -6  13 -11    0.09    0.08
  -6  13 -12    0.03    0.09
  -6  13 -13    0.74    0.16
  -6  13 -14    0.43    0.13
  -6  13 -15    0.55    0.16
   6 -14 -11    2.14    0.23
   6  14 -11    2.15    0.28
   6 -14 -10    1.56    0.19
   6  14 -10    1.41    0.24
   6 -14  -9    0.81    0.16
   6  14  -9    0.73    0.17
   6 -14  -8    0.39    0.12
   6  14  -8    0.22    0.14
   6 -14  -7    3.30    0.27
   6  14  -7    3.05    0.33
   6 -14  -6    1.80    0.20
   6  14  -6    2.29    0.30
   6  14  -5    0.48    0.17
   6  14  -4    0.12    0.14
   6  14  -3    2.90    0.31
   6  14  -2    0.16    0.13
   6  14  -1   -0.07    0.10
   6  14   0    0.94    0.19
   6  14   1    0.98    0.19
   6  14   2    0.77    0.17
   6  14   3    3.03    0.31
   6  14   4    0.72    0.17
   6  14   5    1.06    0.20
   6  14   6    3.80    0.33
   6  14   7   -0.06    0.11
   6  14   8    3.84    0.34
  -6  14  -9    0.17    0.11
  -6  14 -10    0.34    0.13
  -6  14 -11    1.19    0.19
  -6  14 -12    1.69    0.22
  -6  14 -13    0.17    0.11
   6  15  -7    0.25    0.15
   6  15  -6    0.64    0.19
   6  15  -5    1.83    0.27
   6  15  -4    0.02    0.10
   6  15  -3    0.36    0.17
   6  15  -2    0.91    0.19
   6  15  -1   -0.01    0.10
   6  15   0   -0.12    0.11
   6  15   1    0.02    0.10
   6  15   2    0.09    0.10
   6  15   3    0.34    0.13
   6  15   4    0.03    0.10
   6  15   5    0.03    0.13
   6  15   6    1.20    0.21
   6  15   7    0.33    0.15
  -6  15  -8    0.81    0.16
  -6  15  -9    0.91    0.17
  -6  15 -10    0.08    0.10
  -6  15 -11    0.37    0.12
   6  16  -2   -0.08    0.13
   6  16  -1   -0.12    0.14
   6  16   0   -0.10    0.14
   6  16   1    0.38    0.15
   6  16   2    0.69    0.19
   6  16   3    0.58    0.18
   6  16   4    1.31    0.23
   6  16   5    1.23    0.23
   6  16   6    3.23    0.34
  -6  16  -8    0.14    0.12
   7   0 -26   -0.21    0.13
   7   0 -25    5.45    0.41
   7   0 -24    0.25    0.14
   7   0 -23    2.34    0.25
   7   0 -23    2.14    0.25
   7   0 -22    0.12    0.12
   7   0 -22   -0.02    0.10
   7   0 -21    4.20    0.33
   7   0 -21    4.77    0.36
   7   0 -20   -0.02    0.08
   7   0 -20    0.03    0.10
   7   0 -19    3.22    0.28
   7   0 -19    3.21    0.28
   7   0 -18    0.01    0.10
   7   0 -18    0.07    0.09
   7   0 -17    5.42    0.36
   7   0 -17    4.90    0.34
   7   0 -16    0.02    0.09
   7   0 -16    0.04    0.09
   7   0 -15    4.69    0.33
   7   0 -14   -0.10    0.13
   7   0 -13    4.75    0.33
   7   0 -12   -0.09    0.11
   7   0 -11    1.57    0.20
   7   0 -10   -0.12    0.11
   7   0  -9    6.03    0.36
   7   0  -8   -0.07    0.10
   7   0  -7    0.12    0.10
   7   0  -6    0.05    0.10
   7   0  -5   18.59    0.60
   7   0  -4    0.14    0.11
   7   0  -3    1.17    0.16
   7   0  -2    0.12    0.10
   7   0  -1    0.49    0.13
   7   0   0    1.23    0.19
   7   0   1    0.57    0.13
   7   0   2   -0.07    0.10
   7   0   3    2.27    0.21
   7   0   4   -0.08    0.09
   7   0   5    2.67    0.23
  -7   0  -5    2.84    0.20
  -7   0  -6   -0.04    0.06
   7   0   6   -0.03    0.08
   7   0   7    4.40    0.29
  -7   0  -7    4.76    0.26
  -7   0  -8    0.09    0.08
  -7   0  -9    3.89    0.16
  -7   0  -9    3.69    0.24
  -7   0 -10    0.07    0.07
  -7   0 -10    0.01    0.04
  -7   0 -11    2.79    0.16
  -7   0 -11    2.57    0.21
  -7   0 -12   -0.03    0.05
  -7   0 -12   -0.07    0.08
  -7   0 -13    9.15    0.32
  -7   0 -13    9.28    0.42
  -7   0 -14    0.12    0.07
  -7   0 -14    0.08    0.08
  -7   0 -15    3.30    0.27
  -7   0 -15    3.58    0.23
  -7   0 -16   -0.08    0.09
  -7   0 -17    4.29    0.32
  -7   0 -18   -0.02    0.08
  -7   0 -19    0.10    0.11
  -7   0 -20    0.03    0.10
  -7   0 -21   -0.07    0.12
   7   1 -27    0.68    0.19
   7   1 -26    4.72    0.40
   7   1 -26    4.55    0.37
   7  -1 -26    4.22    0.37
   7   1 -25    0.19    0.16
   7   1 -25    0.36    0.16
   7  -1 -25    0.58    0.17
   7   1 -24    0.65    0.16
   7   1 -24    0.23    0.13
   7   1 -24    0.47    0.16
   7  -1 -24    0.47    0.15
   7  -1 -23    0.25    0.12
   7   1 -23    0.31    0.12
   7   1 -23    0.08    0.13
   7   1 -23    0.11    0.11
   7  -1 -23    0.04    0.11
   7  -1 -22    1.81    0.22
   7   1 -22    2.08    0.24
   7   1 -22    2.00    0.24
   7   1 -22    2.05    0.24
   7  -1 -22    1.65    0.24
   7  -1 -21    0.04    0.09
   7   1 -21    0.17    0.12
   7   1 -21    0.46    0.15
   7  -1 -21    0.08    0.11
   7   1 -21    0.21    0.12
   7   1 -20   13.57    0.56
   7  -1 -20   13.28    0.55
   7   1 -20   13.31    0.57
   7   1 -20   13.33    0.57
   7  -1 -20   14.11    0.59
   7  -1 -19    1.10    0.18
   7   1 -19    1.04    0.18
   7  -1 -19    1.11    0.20
   7   1 -19    1.10    0.18
   7   1 -19    1.41    0.19
   7  -1 -18    0.59    0.14
   7   1 -18    0.85    0.16
   7  -1 -18    0.87    0.16
   7   1 -18    0.82    0.16
   7   1 -18    1.01    0.15
   7   1 -17    1.56    0.20
   7  -1 -17    1.44    0.20
   7  -1 -17    1.79    0.21
   7   1 -17    1.52    0.20
   7   1 -17    1.59    0.18
   7  -1 -16    1.49    0.20
   7  -1 -16    1.20    0.18
   7   1 -16    1.43    0.20
   7   1 -16    1.23    0.16
   7   1 -15    3.81    0.26
   7  -1 -15    3.82    0.30
   7   1 -15    3.91    0.30
   7   1 -14   20.42    0.56
   7  -1 -14   20.30    0.67
   7   1 -14   20.65    0.68
   7  -1 -13    0.87    0.17
   7   1 -13    0.70    0.17
   7   1 -13    0.96    0.14
   7   1 -12   46.76    0.77
   7  -1 -12   47.60    0.99
   7   1 -12   47.95    1.01
   7  -1 -11    3.93    0.30
   7   1 -11    4.03    0.31
   7  -1 -10   11.30    0.49
   7   1 -10   12.03    0.50
  -7   1  10   11.22    0.36
   7  -1  -9    0.90    0.17
   7   1  -9    0.92    0.16
  -7   1   9    0.84    0.10
   7  -1  -8    0.61    0.13
   7   1  -8    0.65    0.13
  -7   1   8    0.56    0.07
   7  -1  -7    4.77    0.32
   7   1  -7    4.89    0.32
  -7   1   7    5.06    0.20
   7  -1  -6    1.54    0.19
   7   1  -6    1.63    0.19
  -7   1   6    1.86    0.12
   7  -1  -5    0.23    0.11
   7   1  -5    0.34    0.11
  -7   1   5    0.39    0.05
   7  -1  -4    8.18    0.40
   7   1  -4    7.91    0.39
  -7   1   4    7.74    0.19
   7  -1  -3    0.49    0.13
   7   1  -3    0.42    0.12
  -7   1   3    0.40    0.04
   7  -1  -2    0.29    0.10
   7   1  -2    0.52    0.12
   7  -1  -1    0.09    0.09
   7   1  -1    0.02    0.07
   7  -1   0    0.16    0.09
   7   1   0    0.08    0.09
   7  -1   1    1.10    0.16
   7   1   1    1.34    0.17
   7  -1   2   10.60    0.45
   7   1   2   11.39    0.46
   7   1   3    0.24    0.10
   7  -1   3    0.14    0.09
   7  -1   4   23.02    0.65
   7   1   4   21.38    0.62
   7   1   5    0.27    0.11
  -7   1  -5    0.34    0.04
  -7  -1  -5    0.53    0.10
   7   1   6    2.91    0.24
  -7   1  -6    2.76    0.11
  -7   1  -6    3.14    0.22
  -7  -1  -6    2.94    0.20
   7   1   7    0.00    0.09
  -7   1  -7    0.05    0.04
  -7   1  -7    0.14    0.08
  -7  -1  -7    0.11    0.06
   7   1   8   -0.10    0.09
  -7   1  -8   -0.02    0.04
  -7   1  -8    0.11    0.07
  -7  -1  -8    0.04    0.07
   7   1   9    0.06    0.09
  -7  -1  -9    0.14    0.07
  -7   1  -9    0.00    0.04
  -7   1  -9   -0.04    0.08
  -7   1 -10    5.74    0.23
  -7   1 -10    5.63    0.31
  -7  -1 -10    6.41    0.32
  -7   1 -11    0.61    0.13
  -7  -1 -11    0.67    0.13
  -7   1 -11    0.47    0.09
  -7   1 -12   21.69    0.49
  -7   1 -12   20.63    0.61
  -7  -1 -12   22.31    0.62
  -7  -1 -13    2.28    0.22
  -7   1 -13    1.85    0.16
  -7   1 -13    1.76    0.19
  -7  -1 -14    0.97    0.15
  -7   1 -14    0.97    0.12
  -7   1 -14    0.94    0.15
  -7  -1 -15    0.27    0.11
  -7   1 -15    0.03    0.06
  -7   1 -15    0.08    0.09
  -7   1 -16    0.38    0.12
  -7   1 -16    0.21    0.09
  -7  -1 -16    0.16    0.10
  -7  -1 -17    1.18    0.19
  -7   1 -17    0.92    0.17
  -7   1 -18    4.60    0.35
  -7  -1 -18    4.30    0.33
  -7  -1 -19    0.49    0.16
  -7   1 -19    0.53    0.15
  -7   1 -20    1.88    0.24
  -7  -1 -20    1.48    0.22
  -7   1 -21    0.16    0.11
  -7   1 -22   -0.15    0.12
   7   2 -27    0.32    0.15
   7   2 -26    0.25    0.13
   7   2 -26    0.19    0.13
   7  -2 -26    0.17    0.10
   7   2 -25    1.58    0.24
   7   2 -25    1.91    0.25
   7  -2 -25    1.80    0.26
   7   2 -24    0.06    0.11
   7   2 -24    0.16    0.11
   7   2 -24    0.30    0.14
   7  -2 -24    0.17    0.12
   7  -2 -23    0.65    0.15
   7   2 -23    0.98    0.18
   7   2 -23    1.13    0.20
   7   2 -23    0.83    0.17
   7  -2 -23    0.77    0.18
   7  -2 -22    2.03    0.23
   7   2 -22    2.27    0.25
   7   2 -22    2.36    0.26
   7  -2 -22    1.96    0.25
   7   2 -22    2.04    0.26
   7  -2 -21    0.53    0.13
   7   2 -21    0.33    0.13
   7   2 -21    0.34    0.12
   7  -2 -21    0.63    0.16
   7   2 -21    0.60    0.14
   7  -2 -20    3.43    0.29
   7   2 -20    3.49    0.30
   7   2 -20    3.60    0.31
   7   2 -20    3.54    0.30
   7  -2 -20    3.83    0.33
   7  -2 -19    2.90    0.26
   7   2 -19    2.74    0.28
   7   2 -19    2.91    0.26
   7   2 -19    2.40    0.25
   7  -2 -19    2.88    0.28
   7  -2 -18    5.44    0.36
   7   2 -18    5.10    0.33
   7   2 -18    5.22    0.36
   7   2 -18    5.67    0.36
   7  -2 -18    6.00    0.39
   7   2 -17   15.46    0.55
   7   2 -17   15.98    0.62
   7  -2 -17   16.61    0.61
   7   2 -17   15.61    0.58
   7  -2 -17   15.74    0.61
   7  -2 -16    0.60    0.17
   7  -2 -16    0.34    0.14
   7   2 -16    0.24    0.13
   7   2 -16    0.38    0.15
   7  -2 -15   33.50    0.85
   7   2 -15   33.00    0.74
   7   2 -15   32.27    0.86
   7  -2 -15   33.52    0.86
   7   2 -14    0.17    0.12
   7   2 -14    0.32    0.12
   7  -2 -14    0.34    0.15
   7  -2 -13    3.16    0.27
   7   2 -13    3.34    0.23
   7   2 -13    3.12    0.28
   7   2 -12   17.74    0.48
   7   2 -12   17.62    0.62
   7  -2 -11    4.33    0.31
   7   2 -11    4.67    0.24
   7   2 -11    4.85    0.33
   7  -2 -10    8.88    0.43
   7   2 -10    9.43    0.31
   7   2 -10    8.86    0.44
   7  -2  -9    9.26    0.44
   7   2  -9    9.37    0.29
   7   2  -9    9.67    0.45
  -7   2   9    9.43    0.33
   7   2  -8    7.55    0.25
   7  -2  -8    7.40    0.39
   7   2  -8    7.41    0.39
  -7   2   8    7.16    0.27
   7  -2  -7    5.31    0.34
   7   2  -7    5.39    0.34
  -7   2   7    5.12    0.22
   7  -2  -6   14.80    0.54
   7   2  -6   15.34    0.55
  -7   2   6   14.98    0.35
   7  -2  -5    0.60    0.13
   7   2  -5    0.47    0.11
  -7   2   5    0.62    0.07
   7  -2  -4    0.46    0.13
   7   2  -4    0.56    0.13
  -7   2   4    0.62    0.07
   7  -2  -3    2.62    0.23
  -7   2   3    2.56    0.12
   7   2  -3    2.81    0.24
   7  -2  -2    0.06    0.08
   7   2  -2    0.04    0.08
  -7   2   2    0.06    0.03
   7  -2  -1    0.31    0.11
   7   2  -1    0.30    0.10
  -7   2   1    0.27    0.04
   7  -2   0    0.16    0.10
   7   2   0    0.11    0.09
  -7   2   0    0.16    0.03
   7  -2   1    0.42    0.11
   7   2   1    0.63    0.14
   7   2   2    9.34    0.42
   7   2   3    0.61    0.13
  -7  -2  -3    0.73    0.10
   7   2   4   20.66    0.62
  -7   2  -4   20.36    0.30
  -7  -2  -4   20.71    0.48
   7   2   5    5.25    0.33
  -7   2  -5    5.22    0.17
  -7  -2  -5    5.47    0.26
   7   2   6    7.33    0.38
  -7   2  -6    7.10    0.21
  -7  -2  -6    7.42    0.30
   7   2   7   40.44    0.84
  -7   2  -7   38.82    0.52
  -7   2  -7   40.53    0.77
  -7  -2  -7   39.92    0.72
   7   2   8    0.97    0.16
  -7  -2  -8    0.93    0.13
  -7   2  -8    1.06    0.15
  -7   2  -8    0.75    0.09
   7   2   9    8.11    0.38
  -7   2  -9    8.39    0.27
  -7   2  -9    7.70    0.36
  -7  -2  -9    8.05    0.35
   7   2  10    0.44    0.11
  -7  -2 -10    0.26    0.10
  -7   2 -10    0.21    0.06
  -7   2 -10    0.32    0.09
   7   2  11   -0.04    0.07
  -7   2 -11   -0.09    0.06
  -7  -2 -11    0.09    0.08
  -7   2 -11    0.03    0.07
  -7   2 -12    1.63    0.18
  -7   2 -12    1.49    0.14
  -7  -2 -12    1.68    0.18
  -7  -2 -13    2.57    0.23
  -7   2 -13    2.47    0.19
  -7   2 -13    2.68    0.24
  -7   2 -14    3.87    0.24
  -7  -2 -14    3.93    0.28
  -7   2 -14    3.72    0.28
  -7   2 -15    3.90    0.25
  -7  -2 -15    3.68    0.28
  -7   2 -15    3.37    0.28
  -7  -2 -16    0.53    0.13
  -7   2 -16    0.53    0.12
  -7   2 -16    0.55    0.14
  -7   2 -17    3.19    0.28
  -7   2 -17    3.09    0.24
  -7  -2 -17    3.28    0.29
  -7  -2 -18    0.04    0.10
  -7   2 -18    0.18    0.12
  -7   2 -19   -0.06    0.10
  -7  -2 -19    0.21    0.12
  -7   2 -20   -0.06    0.10
  -7   2 -21    0.02    0.10
   7   3 -27    0.23    0.16
   7   3 -26   -0.01    0.12
   7   3 -26    0.01    0.11
   7   3 -25    0.48    0.15
   7   3 -25    0.59    0.16
   7  -3 -25    0.90    0.19
   7   3 -24    0.27    0.11
   7   3 -24    0.04    0.11
   7   3 -24    0.39    0.14
   7  -3 -24    0.15    0.11
   7   3 -23    0.09    0.11
   7   3 -23   -0.08    0.11
   7   3 -23    0.05    0.10
   7  -3 -23    0.20    0.13
   7   3 -22    3.89    0.33
   7   3 -22    4.13    0.34
   7   3 -22    3.62    0.31
   7  -3 -22    4.29    0.36
   7   3 -21    0.13    0.12
   7   3 -21    0.01    0.10
   7  -3 -21    0.16    0.12
   7   3 -21    0.14    0.11
   7   3 -20    6.74    0.41
   7   3 -20    7.23    0.43
   7   3 -20    7.61    0.42
   7  -3 -20    7.50    0.45
   7  -3 -19    2.79    0.27
   7   3 -19    2.62    0.25
   7   3 -19    2.51    0.27
   7  -3 -19    2.34    0.27
   7   3 -19    2.78    0.26
   7  -3 -18   11.01    0.49
   7   3 -18   10.99    0.48
   7   3 -18   11.58    0.54
   7   3 -18   10.35    0.48
   7  -3 -18   10.90    0.53
   7  -3 -17    2.27    0.24
   7   3 -17    1.91    0.21
   7   3 -17    2.25    0.22
   7  -3 -17    2.28    0.25
   7   3 -17    2.39    0.25
   7  -3 -16    1.63    0.20
   7  -3 -16    2.22    0.25
   7   3 -16    2.16    0.24
   7   3 -16    1.85    0.19
   7  -3 -15   10.08    0.47
   7   3 -15    9.60    0.40
   7   3 -15   10.34    0.50
   7  -3 -15    9.82    0.48
   7  -3 -14    3.04    0.27
   7   3 -14    2.42    0.20
   7   3 -14    3.32    0.29
   7  -3 -13    5.51    0.35
   7   3 -13    4.85    0.27
   7   3 -13    5.31    0.35
   7  -3 -12    1.70    0.20
   7   3 -12    1.69    0.16
   7   3 -12    1.52    0.19
   7  -3 -11    1.17    0.17
   7   3 -11    1.03    0.16
   7   3 -11    1.08    0.12
   7  -3 -10    4.03    0.30
   7   3 -10    3.90    0.21
   7   3 -10    4.01    0.30
   7  -3  -9    0.12    0.09
   7   3  -9    0.18    0.09
   7   3  -9    0.20    0.05
   7  -3  -8   -0.01    0.10
   7   3  -8   -0.12    0.11
   7   3  -8   -0.03    0.05
  -7   3   8   -0.03    0.06
   7  -3  -7    0.80    0.15
   7   3  -7    0.68    0.14
   7   3  -7    0.79    0.08
  -7   3   7    0.53    0.08
   7  -3  -6   10.04    0.45
   7   3  -6   10.15    0.24
  -7   3   6    9.95    0.31
   7   3  -6   10.04    0.45
   7  -3  -5    0.13    0.10
   7   3  -5    0.05    0.03
   7   3  -5    0.15    0.12
  -7   3   5    0.02    0.04
   7  -3  -4   19.34    0.62
  -7   3   4   18.95    0.39
   7   3  -4   19.89    0.63
   7   3  -3    0.40    0.13
  -7   3   3    0.34    0.06
  -7   3   2   12.79    0.30
   7   3  -2   13.08    0.50
   7   3  -1    0.70    0.14
   7   3   0    1.03    0.15
   7   3   1    0.16    0.08
   7   3   2    2.31    0.22
  -7  -3  -2    2.38    0.16
   7   3   3    1.46    0.18
  -7  -3  -3    1.40    0.13
   7   3   4    8.81    0.41
  -7  -3  -4    8.57    0.30
   7   3   5    0.19    0.11
  -7  -3  -5   -0.02    0.05
   7   3   6   17.51    0.57
  -7  -3  -6   16.40    0.45
   7   3   7    8.84    0.41
  -7  -3  -7    8.57    0.33
   7   3   8    5.86    0.33
  -7   3  -8    5.34    0.23
  -7   3  -8    6.37    0.32
  -7  -3  -8    5.50    0.27
   7   3   9    0.11    0.10
  -7   3  -9    0.16    0.11
  -7  -3  -9    0.15    0.09
  -7   3  -9    0.13    0.06
  -7  -3 -10   21.86    0.58
   7   3  10   22.75    0.63
  -7   3 -10   21.07    0.48
  -7   3 -10   21.17    0.60
   7   3  11    8.17    0.37
  -7  -3 -11    7.81    0.36
  -7   3 -11    7.24    0.30
  -7   3 -11    8.03    0.38
   7   3  12    6.20    0.32
  -7  -3 -12    6.07    0.33
  -7   3 -12    5.94    0.29
  -7   3 -12    5.56    0.33
  -7   3 -13    0.11    0.10
  -7   3 -13    0.03    0.06
  -7  -3 -13    0.10    0.08
  -7   3 -14    2.91    0.22
  -7  -3 -14    3.14    0.25
  -7   3 -14    3.10    0.26
  -7   3 -15    1.86    0.18
  -7   3 -15    1.95    0.22
  -7  -3 -15    1.89    0.21
  -7   3 -16    0.39    0.11
  -7  -3 -16    0.33    0.12
  -7   3 -16    0.22    0.11
  -7  -3 -17    0.85    0.16
  -7   3 -17    0.85    0.14
  -7   3 -17    1.04    0.17
  -7   3 -18    1.67    0.22
  -7   3 -19    0.29    0.14
  -7   3 -20    2.74    0.29
  -7   3 -21    0.68    0.16
   7   4 -27    2.55    0.32
   7   4 -26    0.68    0.18
   7   4 -26    0.97    0.20
   7   4 -25    4.01    0.33
   7   4 -25    3.31    0.35
   7   4 -25    3.39    0.32
   7   4 -24    0.42    0.13
   7   4 -24    0.34    0.15
   7   4 -24    0.65    0.17
   7  -4 -24    0.42    0.17
   7  -4 -23    5.97    0.43
   7   4 -23    5.79    0.41
   7   4 -23    6.24    0.42
   7   4 -23    5.83    0.39
   7   4 -22    0.17    0.12
   7   4 -22    0.16    0.11
   7  -4 -22   -0.02    0.11
   7   4 -22    0.18    0.12
   7   4 -21    0.29    0.12
   7   4 -21    0.17    0.11
   7  -4 -21    0.24    0.14
   7   4 -21   -0.03    0.09
   7   4 -20    2.44    0.24
   7  -4 -20    2.65    0.28
   7   4 -20    2.41    0.26
   7   4 -20    2.33    0.25
   7   4 -19    0.59    0.15
   7  -4 -19    0.56    0.15
   7   4 -19    0.39    0.12
   7   4 -19    0.26    0.11
   7  -4 -18    0.63    0.16
   7   4 -18    0.43    0.13
   7   4 -18    0.63    0.13
   7   4 -18    0.67    0.14
   7   4 -17    0.29    0.10
   7  -4 -17    0.44    0.14
   7   4 -17    0.22    0.11
   7   4 -17    0.05    0.08
   7   4 -16    4.03    0.28
   7   4 -16    4.56    0.34
   7  -4 -16    4.44    0.33
   7  -4 -15    2.40    0.25
   7   4 -15    2.16    0.20
   7   4 -15    2.17    0.24
   7  -4 -14    1.43    0.20
   7   4 -14    1.08    0.17
   7   4 -14    1.32    0.16
   7   4 -13    0.03    0.10
   7   4 -13    0.09    0.06
   7   4 -12    0.02    0.09
   7   4 -12    0.10    0.06
   7   4 -11    0.07    0.10
   7   4 -11    0.09    0.06
   7   4 -10    1.69    0.15
   7   4 -10    1.68    0.21
   7   4  -9    9.36    0.31
   7   4  -9    9.22    0.45
   7   4  -8    0.28    0.11
   7   4  -8    0.12    0.05
   7   4  -7    7.16    0.24
   7   4  -7    7.39    0.40
   7   4  -6    0.06    0.09
  -7   4   6   -0.03    0.05
   7   4  -6    0.06    0.04
  -7   4   5    8.00    0.29
   7   4  -5    7.21    0.20
   7   4  -5    7.56    0.40
  -7   4   4   -0.01    0.05
   7   4  -4   -0.01    0.08
   7   4  -4    0.05    0.03
   7   4  -3    5.66    0.12
   7   4  -3    5.93    0.35
   7   4  -2    0.00    0.08
   7   4  -1   10.92    0.47
   7   4   0    0.01    0.08
   7   4   1    9.43    0.43
  -7  -4  -1    9.71    0.29
   7   4   2    5.09    0.32
  -7  -4  -2    5.69    0.23
   7   4   3    2.76    0.23
  -7  -4  -3    2.87    0.17
   7   4   4    0.97    0.15
  -7  -4  -4    1.01    0.11
   7   4   5    1.71    0.19
  -7  -4  -5    1.54    0.14
   7   4   6    0.11    0.08
  -7  -4  -6    0.07    0.07
   7   4   7    2.02    0.21
  -7  -4  -7    2.32    0.18
   7   4   8    0.55    0.12
  -7   4  -8    0.69    0.13
  -7  -4  -8    0.61    0.10
  -7  -4  -9    0.04    0.06
   7   4   9    0.11    0.09
  -7   4  -9    0.08    0.07
   7   4  10    3.11    0.24
  -7  -4 -10    3.08    0.22
  -7   4 -10    2.80    0.19
  -7   4 -10    3.62    0.26
   7   4  11    1.32    0.17
  -7  -4 -11    1.19    0.15
  -7   4 -11    1.26    0.14
  -7   4 -11    1.34    0.18
   7   4  12    1.45    0.17
  -7  -4 -12    1.63    0.17
  -7   4 -12    1.62    0.16
  -7   4 -12    2.03    0.21
  -7   4 -13    0.28    0.10
  -7  -4 -13    0.43    0.10
  -7   4 -13    0.41    0.10
  -7   4 -14    2.17    0.22
  -7   4 -14    1.96    0.19
  -7  -4 -14    2.03    0.20
  -7   4 -15    5.91    0.33
  -7  -4 -15    6.72    0.37
  -7   4 -15    6.16    0.37
  -7   4 -16    0.18    0.11
  -7   4 -16    0.26    0.09
  -7   4 -17    2.76    0.24
  -7   4 -17    2.50    0.26
  -7   4 -18    0.70    0.14
  -7   4 -18    0.81    0.17
  -7   4 -19    0.44    0.14
  -7   4 -20    0.30    0.12
  -7   4 -21   -0.02    0.11
   7   5 -26    0.10    0.11
   7   5 -25    0.20    0.12
   7   5 -25   -0.01    0.12
   7   5 -24    0.34    0.13
   7   5 -24    0.36    0.13
   7   5 -24    0.53    0.17
   7  -5 -24    0.53    0.17
   7   5 -23    0.32    0.13
   7   5 -23    0.08    0.09
   7   5 -23    0.29    0.14
   7   5 -22    2.42    0.25
   7   5 -22    1.88    0.24
   7  -5 -22    2.16    0.27
   7   5 -22    2.28    0.27
   7   5 -21    0.36    0.13
   7   5 -21    0.27    0.12
   7  -5 -21    0.16    0.12
   7   5 -21    0.28    0.12
   7   5 -20    1.72    0.21
   7  -5 -20    2.00    0.25
   7   5 -20    1.91    0.24
   7   5 -20    1.92    0.23
   7   5 -19    0.40    0.13
   7  -5 -19    0.48    0.15
   7   5 -19    0.04    0.10
   7   5 -19    0.15    0.10
   7   5 -18    6.71    0.39
   7   5 -18    6.16    0.42
   7   5 -18    6.64    0.38
   7  -5 -18    6.18    0.40
   7   5 -17    1.02    0.16
   7  -5 -17    0.95    0.17
   7   5 -17    1.25    0.19
   7   5 -17    1.48    0.19
   7  -5 -16    1.37    0.20
   7   5 -16    1.33    0.19
   7   5 -16    1.33    0.18
   7   5 -15    3.27    0.25
   7   5 -15    3.07    0.28
   7  -5 -15    2.93    0.27
   7  -5 -14    0.00    0.10
   7   5 -14    0.23    0.13
   7   5 -14    0.07    0.06
   7  -5 -13    2.07    0.23
   7   5 -13    2.24    0.20
   7   5 -13    2.23    0.25
   7   5 -12    4.55    0.26
   7   5 -12    4.56    0.33
   7   5 -11    0.29    0.11
   7   5 -11    0.25    0.08
   7   5 -10   10.87    0.37
   7   5 -10   10.32    0.49
   7   5  -9    1.95    0.15
   7   5  -9    1.76    0.21
   7   5  -8    0.89    0.16
   7   5  -8    0.89    0.10
   7   5  -7   -0.02    0.10
   7   5  -7    0.08    0.04
   7   5  -6    0.06    0.10
   7   5  -6    0.19    0.05
   7   5  -5    1.23    0.10
   7   5  -5    1.05    0.17
   7   5  -4   21.51    0.35
   7   5  -4   24.40    0.71
   7   5  -3    0.85    0.07
   7   5  -3    1.33    0.20
   7   5  -2    1.86    0.08
   7   5  -2    2.03    0.22
   7   5  -1    1.16    0.06
   7   5  -1    1.48    0.18
  -7  -5   1    1.37    0.10
   7   5   0    0.59    0.13
  -7  -5   0    0.75    0.08
   7   5   1    0.21    0.09
  -7  -5  -1    0.25    0.06
   7   5   2    5.38    0.33
  -7  -5  -2    5.79    0.22
   7   5   3    5.59    0.34
  -7  -5  -3    6.41    0.24
   7   5   4   -0.12    0.12
  -7  -5  -4    0.11    0.06
   7   5   5    0.39    0.10
  -7  -5  -5    0.46    0.08
   7   5   6    0.02    0.09
  -7  -5  -6    0.01    0.05
  -7  -5  -7    3.35    0.20
   7   5   7    2.84    0.24
   7   5   8    0.37    0.11
  -7  -5  -8    0.26    0.07
   7   5   9    0.59    0.12
  -7   5  -9    0.56    0.12
  -7  -5  -9    0.69    0.11
   7   5  10    5.49    0.32
  -7  -5 -10    5.25    0.28
  -7   5 -10    4.76    0.30
   7   5  11    4.90    0.30
  -7  -5 -11    4.53    0.27
  -7   5 -11    5.02    0.31
  -7  -5 -12    0.74    0.13
   7   5  12    0.64    0.13
  -7   5 -12    0.56    0.13
   7   5  13    2.25    0.21
  -7   5 -13    1.66    0.18
  -7   5 -13    2.08    0.22
  -7   5 -14    3.11    0.24
  -7   5 -14    2.97    0.27
  -7   5 -15    1.56    0.20
  -7   5 -15    1.50    0.18
  -7   5 -16    0.03    0.10
  -7   5 -16    0.23    0.10
  -7   5 -17    2.35    0.23
  -7   5 -17    1.93    0.23
  -7   5 -18    0.50    0.13
  -7   5 -18    0.47    0.14
  -7   5 -19   -0.07    0.11
  -7   5 -20    0.11    0.10
   7   6 -26   -0.20    0.15
   7   6 -25    0.87    0.18
   7   6 -25    0.91    0.20
   7   6 -24   -0.13    0.11
   7   6 -24   -0.16    0.14
   7   6 -23    0.77    0.16
   7  -6 -23    0.84    0.18
   7   6 -23    0.99    0.19
   7   6 -22    0.16    0.09
   7  -6 -22    0.11    0.10
   7   6 -22    0.16    0.12
   7   6 -21    0.44    0.13
   7   6 -21    0.40    0.14
   7  -6 -21    0.67    0.19
   7   6 -21    0.55    0.15
   7   6 -20    0.14    0.10
   7  -6 -20   -0.01    0.12
   7   6 -20    0.30    0.14
   7   6 -20    0.15    0.11
   7   6 -19    1.66    0.19
   7  -6 -19    1.72    0.24
   7   6 -19    1.83    0.25
   7   6 -19    1.82    0.23
   7   6 -18    2.28    0.27
   7   6 -18    2.38    0.24
   7   6 -18    2.49    0.24
   7  -6 -18    2.68    0.29
   7   6 -17    6.42    0.38
   7   6 -17    5.87    0.40
   7   6 -17    5.68    0.34
   7  -6 -17    6.23    0.41
   7   6 -16    3.85    0.29
   7   6 -16    4.01    0.34
   7  -6 -16    4.68    0.36
   7  -6 -15    0.26    0.11
   7   6 -15    0.17    0.10
   7   6 -15    0.23    0.09
   7  -6 -14    0.32    0.13
   7   6 -14    0.41    0.14
   7   6 -14    0.29    0.11
   7   6 -13    9.36    0.40
   7   6 -13   10.04    0.50
   7  -6 -13    9.34    0.47
   7  -6 -12    0.20    0.11
   7   6 -12    0.25    0.10
   7   6 -12    0.23    0.09
   7   6 -11    0.14    0.10
   7   6 -11    0.03    0.05
   7   6 -10    0.79    0.14
   7   6 -10    0.71    0.11
   7   6  -9    5.92    0.27
   7   6  -9    5.58    0.36
   7   6  -8    0.43    0.13
   7   6  -8    0.38    0.08
   7   6  -7    0.45    0.12
   7   6  -7    0.55    0.09
   7   6  -6    6.87    0.40
   7   6  -6    6.93    0.26
   7   6  -5   28.86    0.79
   7   6  -4    0.85    0.17
   7   6  -3    5.99    0.36
  -7  -6   3    5.86    0.18
   7   6  -2    3.23    0.27
  -7  -6   2    3.35    0.14
   7   6  -1   11.05    0.48
  -7  -6   1   11.18    0.26
  -7  -6   0    0.57    0.07
   7   6   0    0.56    0.13
   7   6   1    2.36    0.23
  -7  -6  -1    2.55    0.14
   7   6   2    3.23    0.27
  -7  -6  -2    3.34    0.17
   7   6   3    0.19    0.08
  -7  -6  -3    0.31    0.06
  -7  -6  -4    0.00    0.04
   7   6   4    0.00    0.08
  -7  -6  -5    4.54    0.22
   7   6   5    4.74    0.31
   7   6   6    1.03    0.15
  -7  -6  -6    0.78    0.10
   7   6   7    2.71    0.24
  -7  -6  -7    2.87    0.19
   7   6   8    1.40    0.18
  -7  -6  -8    1.34    0.14
   7   6   9    2.54    0.24
  -7  -6  -9    2.22    0.18
  -7   6  -9    2.78    0.23
   7   6  10    0.54    0.11
  -7   6 -10    0.74    0.14
   7   6  11    0.12    0.08
  -7   6 -11    0.09    0.09
   7   6  12    3.53    0.26
  -7   6 -12    3.11    0.26
  -7   6 -13    1.65    0.20
  -7   6 -14    0.98    0.16
  -7   6 -14    1.13    0.17
  -7   6 -15    2.59    0.24
  -7   6 -15    2.76    0.26
  -7   6 -16    0.41    0.14
  -7   6 -16    0.14    0.09
  -7   6 -17    1.63    0.21
  -7   6 -17    1.38    0.18
  -7   6 -18    0.32    0.12
  -7   6 -18    0.21    0.12
  -7   6 -19   -0.04    0.10
  -7   6 -19    0.22    0.13
   7   7 -25    0.54    0.16
   7   7 -25    0.21    0.15
   7   7 -24    0.61    0.18
   7   7 -24    0.34    0.12
   7   7 -23    2.66    0.30
   7   7 -23    2.44    0.29
   7   7 -22    2.48    0.30
   7  -7 -22    2.75    0.31
   7   7 -22    2.82    0.30
   7   7 -21    0.91    0.19
   7  -7 -21    0.90    0.18
   7   7 -21    0.82    0.19
   7  -7 -20    3.50    0.33
   7   7 -20    3.10    0.31
   7   7 -20    3.21    0.32
   7   7 -19   -0.13    0.10
   7   7 -19   -0.05    0.10
   7   7 -19    0.00    0.08
   7   7 -18    0.59    0.12
   7  -7 -18    0.41    0.13
   7   7 -18    0.48    0.14
   7   7 -18    0.49    0.14
   7   7 -17    1.49    0.18
   7  -7 -17    1.34    0.20
   7   7 -17    1.21    0.20
   7   7 -17    1.35    0.19
   7  -7 -16    0.43    0.14
   7   7 -16    0.32    0.09
   7  -7 -15    1.37    0.21
   7   7 -15    1.60    0.23
   7   7 -15    1.17    0.16
   7  -7 -14    1.27    0.19
   7   7 -14    1.49    0.22
   7   7 -14    1.33    0.18
   7   7 -13   10.64    0.44
   7   7 -13   10.79    0.54
   7  -7 -13   10.73    0.51
   7   7 -12    3.36    0.25
   7   7 -12    3.40    0.30
   7  -7 -12    3.31    0.28
   7  -7 -11    2.04    0.22
   7   7 -11    1.85    0.19
   7   7 -11    1.94    0.24
   7   7 -10    5.55    0.29
   7   7 -10    5.33    0.37
   7   7  -9    0.92    0.17
   7   7  -9    0.93    0.12
   7   7  -8    0.65    0.15
   7   7  -7   -0.06    0.09
   7   7  -6    0.51    0.14
   7   7  -5    7.04    0.41
   7   7  -4   25.40    0.75
  -7  -7   3    0.44    0.05
   7   7  -3    0.53    0.14
   7   7  -2    6.66    0.38
  -7  -7   2    6.63    0.17
   7   7  -1    0.26    0.12
  -7  -7   1    0.20    0.04
  -7  -7   0    3.39    0.14
   7   7   0    3.01    0.27
  -7  -7  -1    1.81    0.11
   7   7   1    1.86    0.22
  -7  -7  -2   20.04    0.38
   7   7   2   20.20    0.66
   7   7   3    4.81    0.33
  -7  -7  -3    4.45    0.19
  -7  -7  -4    1.53    0.12
   7   7   4    1.54    0.19
   7   7   5    0.37    0.11
  -7  -7  -5    0.30    0.07
   7   7   6    0.48    0.12
   7   7   7    0.22    0.10
   7   7   8    0.12    0.07
   7   7   9    1.44    0.18
  -7   7  -9    1.12    0.16
   7   7  10    0.13    0.08
  -7   7 -10    0.22    0.10
   7   7  11    3.60    0.27
  -7   7 -11    3.46    0.27
   7   7  12    1.32    0.18
  -7   7 -12    1.49    0.19
  -7   7 -13    0.34    0.12
  -7   7 -14    3.71    0.30
  -7   7 -15    0.28    0.11
  -7   7 -16    0.26    0.13
  -7   7 -16    0.07    0.10
  -7   7 -17    0.11    0.10
  -7   7 -17    0.09    0.10
  -7   7 -18    0.88    0.18
  -7   7 -18    1.23    0.20
  -7   7 -19    0.81    0.18
  -7   7 -19    0.59    0.18
   7   8 -25    0.29    0.16
   7   8 -25   -0.01    0.12
   7   8 -24    0.86    0.20
   7   8 -24    0.86    0.19
   7   8 -23    0.82    0.20
   7   8 -23    1.00    0.21
   7   8 -22    0.19    0.13
   7   8 -22    0.10    0.11
   7   8 -21    0.27    0.14
   7  -8 -21    0.06    0.11
   7   8 -21    0.01    0.10
   7  -8 -20    0.40    0.13
   7   8 -20    0.49    0.14
   7   8 -20    0.59    0.16
   7  -8 -19    2.23    0.27
   7   8 -19    1.99    0.26
   7   8 -19    1.83    0.24
   7  -8 -18   -0.04    0.10
   7   8 -18    0.15    0.13
   7   8 -18    0.08    0.09
   7   8 -17    3.09    0.29
   7   8 -17    2.92    0.30
   7  -8 -17    3.07    0.30
   7  -8 -16    0.11    0.10
   7   8 -16    0.26    0.13
   7   8 -16    0.07    0.09
   7   8 -15   13.53    0.54
   7   8 -15   12.80    0.61
   7  -8 -15   13.88    0.59
   7  -8 -14    0.54    0.15
   7   8 -14    0.82    0.18
   7   8 -14    0.58    0.15
   7   8 -13    7.04    0.37
   7   8 -13    7.07    0.44
   7  -8 -13    6.12    0.39
   7  -8 -12   -0.04    0.10
   7   8 -12   -0.03    0.09
   7   8 -12   -0.05    0.06
   7  -8 -11    0.91    0.17
   7   8 -11    0.76    0.16
   7   8 -11    0.74    0.13
   7  -8 -10    1.06    0.18
   7   8 -10    1.46    0.22
   7   8  -9    5.55    0.38
   7   8  -8    3.76    0.32
   7   8  -7    4.95    0.36
   7   8  -6   10.08    0.50
   7   8  -5    3.24    0.29
   7   8  -4    0.17    0.12
   7   8  -3    2.53    0.26
   7   8  -2    4.21    0.32
   7   8  -1    8.95    0.46
   7   8   0    4.74    0.33
   7   8   1    2.20    0.24
   7   8   2    0.66    0.14
   7   8   3    2.37    0.24
   7   8   4    2.72    0.25
   7   8   5    6.40    0.38
   7   8   6    0.05    0.09
   7   8   7    3.49    0.28
   7   8   8    0.95    0.16
   7   8   9    2.46    0.24
  -7   8  -9    2.48    0.23
   7   8  10    0.19    0.09
  -7   8 -10    0.19    0.10
   7   8  11    2.61    0.23
  -7   8 -11    2.19    0.23
  -7   8 -12    0.90    0.16
  -7   8 -13    0.20    0.11
  -7   8 -14    0.08    0.10
  -7   8 -15    3.82    0.32
  -7   8 -16    0.13    0.12
  -7   8 -17    2.31    0.27
  -7   8 -17    2.21    0.25
  -7   8 -18    0.89    0.19
  -7   8 -18    0.59    0.15
  -7   8 -19    0.85    0.16
   7   9 -24    0.41    0.15
   7   9 -23    0.58    0.18
   7   9 -22    1.38    0.25
   7   9 -22    1.36    0.23
   7   9 -21    0.83    0.19
   7   9 -21    0.96    0.21
   7  -9 -20    4.65    0.39
   7   9 -20    3.75    0.34
   7   9 -20    3.57    0.35
   7  -9 -19    0.21    0.13
   7   9 -19    0.34    0.15
   7   9 -19    0.55    0.18
   7  -9 -18    0.03    0.10
   7   9 -18    0.25    0.13
   7   9 -18   -0.02    0.10
   7  -9 -17    0.45    0.14
   7   9 -17    0.57    0.16
   7   9 -17    0.39    0.13
   7  -9 -16    0.43    0.12
   7   9 -16    0.77    0.18
   7   9 -16    0.88    0.16
   7  -9 -15    0.14    0.09
   7   9 -15    0.04    0.10
   7   9 -15   -0.05    0.09
   7  -9 -14    1.77    0.22
   7   9 -14    2.21    0.27
   7   9 -14    1.98    0.22
   7  -9 -13    0.73    0.17
   7   9 -13    1.04    0.18
   7   9 -13    0.78    0.14
   7  -9 -12    0.55    0.14
   7   9 -12    0.48    0.14
   7  -9 -11    0.07    0.09
   7   9 -11   -0.20    0.12
   7  -9 -10    2.38    0.24
   7   9 -10    2.90    0.29
   7  -9  -9    2.16    0.23
   7   9  -9    1.97    0.25
   7  -9  -8    0.62    0.14
   7   9  -8    0.14    0.12
   7   9  -7    0.69    0.16
   7   9  -6    3.66    0.31
   7   9  -5    8.83    0.48
   7   9  -4    2.77    0.27
   7   9  -3    7.16    0.42
   7   9  -2    4.48    0.33
   7   9  -1    0.03    0.09
   7   9   0    1.98    0.23
   7   9   1    0.32    0.12
   7   9   2    0.13    0.10
   7   9   3    0.42    0.13
   7   9   4    0.55    0.13
   7   9   5    0.04    0.09
   7   9   6   -0.08    0.09
   7   9   7    0.85    0.16
   7   9   8    0.74    0.14
   7   9   9    0.10    0.11
   7   9  10   -0.11    0.11
  -7   9 -10    0.05    0.10
   7   9  11    0.08    0.08
  -7   9 -11    0.20    0.10
  -7   9 -12    1.78    0.22
  -7   9 -13    3.76    0.30
  -7   9 -14    0.75    0.16
  -7   9 -15    0.31    0.12
  -7   9 -16    0.06    0.10
  -7   9 -17    0.03    0.10
  -7   9 -18    0.43    0.14
  -7   9 -19    2.10    0.26
   7  10 -23    0.09    0.13
   7  10 -22   -0.13    0.15
   7  10 -21    0.36    0.14
   7  10 -20   -0.05    0.11
   7  10 -20   -0.09    0.14
   7 -10 -19    1.73    0.25
   7  10 -19    1.29    0.23
   7  10 -19    1.38    0.22
   7 -10 -18    0.19    0.11
   7  10 -18    0.05    0.10
   7  10 -18    0.09    0.11
   7 -10 -17    2.97    0.30
   7  10 -17    2.55    0.30
   7  10 -17    2.45    0.27
   7 -10 -16    0.00    0.10
   7  10 -16   -0.04    0.09
   7  10 -16   -0.09    0.10
   7  10 -15    4.73    0.35
   7  10 -15    4.29    0.38
   7 -10 -15    4.18    0.35
   7 -10 -14    0.56    0.15
   7  10 -14    0.57    0.17
   7 -10 -13   -0.05    0.09
   7  10 -13   -0.21    0.13
   7 -10 -12    0.15    0.10
   7  10 -12   -0.12    0.12
   7 -10 -11   -0.02    0.09
   7  10 -11    0.03    0.09
   7  10 -10    3.77    0.34
   7 -10 -10    4.43    0.33
   7 -10  -9    0.20    0.12
   7  10  -9    0.34    0.15
   7  10  -8    6.42    0.43
   7 -10  -8    6.80    0.41
   7  10  -7   12.58    0.59
   7 -10  -7   11.77    0.51
   7 -10  -6   -0.18    0.11
   7  10  -6    0.11    0.11
   7  10  -5    1.64    0.22
   7  10  -4    0.05    0.09
   7  10  -3    0.08    0.10
   7  10  -2    0.89    0.17
   7  10  -1    1.45    0.21
   7  10   0    1.24    0.19
   7  10   1    1.60    0.22
   7  10   2    1.22    0.19
   7  10   3    0.05    0.09
   7  10   4    0.73    0.15
   7  10   5    0.28    0.11
   7  10   6    0.09    0.08
   7  10   7    4.54    0.33
   7  10   8    2.57    0.26
   7  10   9    2.46    0.25
   7  10  10    0.63    0.13
  -7  10 -10    0.77    0.15
  -7  10 -11    2.40    0.24
  -7  10 -12    0.19    0.12
  -7  10 -13    1.59    0.21
  -7  10 -14    0.10    0.11
  -7  10 -15    0.25    0.12
  -7  10 -16    0.03    0.10
   7  11 -22    0.11    0.13
   7  11 -21    1.13    0.23
   7  11 -20    1.03    0.22
   7  11 -19    0.25    0.14
   7 -11 -18    0.82    0.20
   7  11 -18    0.78    0.20
   7  11 -18    0.72    0.17
   7 -11 -17    0.11    0.10
   7  11 -17    0.00    0.12
   7  11 -17    0.05    0.13
   7 -11 -16    0.03    0.11
   7  11 -16    0.02    0.11
   7  11 -16    0.03    0.09
   7 -11 -15   -0.11    0.10
   7  11 -15   -0.07    0.11
   7  11 -14    2.82    0.31
   7 -11 -14    3.34    0.32
   7 -11 -13    0.48    0.15
   7  11 -13    0.15    0.11
   7  11 -12    3.10    0.33
   7 -11 -12    3.18    0.30
   7 -11 -11    0.91    0.17
   7  11 -11    0.73    0.17
   7 -11 -10    0.29    0.11
   7  11 -10    0.28    0.13
   7 -11  -9    0.04    0.09
   7  11  -9   -0.04    0.10
   7  11  -8    2.28    0.26
   7 -11  -8    2.78    0.26
   7  11  -7    2.82    0.30
   7 -11  -7    2.57    0.24
   7 -11  -6    0.98    0.17
   7  11  -6    1.16    0.22
   7  11  -5    6.84    0.44
   7 -11  -5    6.45    0.38
   7 -11  -4    0.15    0.12
   7  11  -4    0.15    0.14
   7  11  -3   15.74    0.66
   7  11  -2    1.55    0.23
   7  11  -1    1.02    0.19
   7  11   0    0.25    0.12
   7  11   1    4.09    0.34
   7  11   2    0.49    0.15
   7  11   3    3.70    0.32
   7  11   4    5.12    0.37
   7  11   5    0.75    0.17
   7  11   6    3.36    0.31
   7  11   7    0.56    0.16
   7  11   8    1.29    0.20
   7  11   9    0.12    0.10
  -7  11 -10    1.90    0.22
  -7  11 -11    0.44    0.13
  -7  11 -12    1.07    0.18
  -7  11 -13    1.56    0.22
  -7  11 -14    0.15    0.12
   7  12 -20    1.55    0.27
   7  12 -19    0.12    0.15
   7  12 -18    0.46    0.16
   7 -12 -17    1.31    0.21
   7  12 -17    1.19    0.20
   7 -12 -16    0.04    0.09
   7 -12 -15    0.06    0.10
   7  12 -15   -0.05    0.13
   7 -12 -14    0.37    0.13
   7  12 -14    0.19    0.12
   7 -12 -13    0.56    0.14
   7  12 -13    0.72    0.18
   7 -12 -12    0.15    0.12
   7  12 -12    0.15    0.13
   7  12 -11    6.86    0.48
   7 -12 -11    6.22    0.40
   7 -12 -10    0.71    0.17
   7  12 -10    0.68    0.19
   7  12  -9    4.63    0.40
   7 -12  -9    3.99    0.32
   7  12  -8    2.67    0.30
   7 -12  -8    2.83    0.27
   7  12  -7    2.94    0.31
   7 -12  -7    3.24    0.28
   7 -12  -6    0.65    0.14
   7  12  -6    0.66    0.18
   7 -12  -5    0.06    0.09
   7  12  -5    0.24    0.14
   7 -12  -4    1.92    0.21
   7  12  -4    2.33    0.28
   7 -12  -3    0.38    0.13
   7  12  -3    0.36    0.15
   7  12  -2    3.82    0.35
   7 -12  -2    4.59    0.31
   7  12  -1    6.32    0.44
   7  12   0    1.71    0.24
   7  12   1    5.73    0.41
   7  12   2    1.10    0.20
   7  12   3    6.01    0.41
   7  12   4    0.08    0.12
   7  12   5    0.55    0.16
   7  12   6    3.64    0.33
   7  12   7    1.53    0.22
   7  12   8    1.09    0.20
   7  12   9    0.40    0.13
  -7  12  -9    0.71    0.16
  -7  12 -10    0.72    0.15
  -7  12 -11    0.57    0.16
  -7  12 -12    0.24    0.14
  -7  12 -13    6.36    0.41
   7 -13 -16    0.31    0.13
   7 -13 -15    0.01    0.10
   7 -13 -14    1.33    0.21
   7 -13 -13    0.03    0.09
   7 -13 -12    2.25    0.26
   7  13 -11    2.82    0.34
   7 -13 -11    2.77    0.28
   7 -13 -10    0.40    0.14
   7  13 -10    0.52    0.17
   7 -13  -9    0.64    0.14
   7  13  -9    0.72    0.19
   7 -13  -8    0.32    0.12
   7  13  -8    0.24    0.15
   7 -13  -7    2.19    0.24
   7  13  -7    1.69    0.26
   7 -13  -6    2.24    0.24
   7  13  -6    2.01    0.28
   7  13  -5    4.30    0.38
   7 -13  -5    4.33    0.32
   7 -13  -4    0.22    0.11
   7  13  -4    0.32    0.14
   7  13  -3    3.30    0.34
   7 -13  -3    2.86    0.25
   7  13  -2    0.13    0.13
   7  13  -1    2.66    0.30
   7  13   0    4.34    0.37
   7  13   1    0.22    0.16
   7  13   2    0.24    0.13
   7  13   3    2.13    0.26
   7  13   4    1.48    0.23
   7  13   5    2.51    0.28
   7  13   6    1.51    0.23
   7  13   7    0.08    0.12
   7  13   8    0.20    0.13
  -7  13  -9    1.39    0.21
  -7  13 -10    0.67    0.16
  -7  13 -11    2.10    0.25
   7 -14 -14    1.10    0.20
   7 -14 -13    0.59    0.17
   7 -14 -12   -0.01    0.12
   7 -14 -11    2.38    0.26
   7 -14 -10    1.70    0.23
   7 -14  -9    2.22    0.24
   7 -14  -8    0.50    0.14
   7  14  -8    0.39    0.14
   7 -14  -7    0.42    0.13
   7  14  -7   -0.12    0.15
   7  14  -6    0.17    0.12
   7  14  -5    0.07    0.12
   7  14  -4    0.59    0.17
   7  14  -3    0.14    0.12
   7  14  -2    0.20    0.14
   7  14  -1    1.21    0.22
   7  14   0    0.54    0.16
   7  14   1    1.80    0.26
   7  14   2    2.60    0.30
   7  14   3    0.07    0.12
   7  14   4   -0.15    0.13
   7  14   5    0.16    0.12
   7  14   6    0.83    0.18
   7  14   7    0.09    0.12
  -7  14  -9    0.55    0.16
   7  15  -2    0.65    0.17
   7  15  -1    0.15    0.15
   7  15   0    1.37    0.24
   7  15   1   -0.15    0.12
   7  15   2    0.10    0.11
   7  15   3    1.87    0.27
   7  15   4    0.05    0.12
   7  15   5    1.97    0.27
   7  15   6    0.55    0.18
   7  16   4    0.63    0.18
   7  16   5    0.05    0.14
   8   0 -25    0.11    0.14
   8   0 -24    1.45    0.23
   8   0 -24    1.23    0.22
   8   0 -23    0.20    0.11
   8   0 -23    0.13    0.14
   8   0 -22    4.49    0.36
   8   0 -22    4.20    0.35
   8   0 -21    0.09    0.12
   8   0 -21    0.05    0.11
   8   0 -20   14.33    0.62
   8   0 -20   14.12    0.62
   8   0 -19    0.14    0.11
   8   0 -19    0.48    0.17
   8   0 -18    2.60    0.28
   8   0 -18    2.20    0.25
   8   0 -17    0.04    0.10
   8   0 -17   -0.08    0.12
   8   0 -16    0.93    0.17
   8   0 -15   -0.10    0.11
   8   0 -14    2.10    0.24
   8   0 -13   -0.06    0.11
   8   0 -12    2.92    0.28
   8   0 -11    0.05    0.10
   8   0 -10    3.30    0.29
   8   0  -9    0.10    0.11
   8   0  -8    1.95    0.23
   8   0  -7    0.14    0.09
   8   0  -6   11.70    0.52
   8   0  -5    0.14    0.12
   8   0  -4   10.96    0.50
   8   0  -3    0.04    0.11
   8   0  -2   10.44    0.48
   8   0  -1   -0.06    0.09
   8   0   0   11.36    0.50
   8   0   1   -0.08    0.11
   8   0   2    0.20    0.10
   8   0   3    0.12    0.09
   8   0   4   22.30    0.69
   8   0   5    0.17    0.11
  -8   0  -5    0.26    0.11
   8   0   6    3.61    0.28
  -8   0  -6    3.75    0.24
  -8   0  -7    0.03    0.07
  -8   0  -8    9.50    0.39
  -8   0  -9    0.02    0.07
  -8   0 -10    2.24    0.21
  -8   0 -11    0.05    0.07
  -8   0 -12    0.64    0.12
  -8   0 -13   -0.09    0.09
  -8   0 -14    0.24    0.09
  -8   0 -15   -0.11    0.10
  -8   0 -16    0.10    0.10
  -8   0 -17    0.02    0.09
  -8   0 -18    0.17    0.11
  -8   0 -19   -0.08    0.12
  -8   0 -20    0.43    0.15
   8   1 -25    4.20    0.37
   8   1 -24    0.17    0.12
   8   1 -24    0.46    0.16
   8  -1 -24    0.35    0.17
   8  -1 -23    6.45    0.42
   8   1 -23    6.91    0.45
   8   1 -23    7.02    0.45
   8  -1 -23    6.50    0.45
   8  -1 -22    0.24    0.12
   8   1 -22    0.27    0.12
   8   1 -22    0.33    0.14
   8  -1 -22    0.18    0.13
   8  -1 -21    2.65    0.28
   8   1 -21    1.96    0.24
   8   1 -21    2.50    0.28
   8  -1 -21    2.66    0.29
   8  -1 -20    0.03    0.09
   8   1 -20    0.07    0.12
   8   1 -20    0.10    0.10
   8  -1 -20    0.26    0.12
   8  -1 -19    0.37    0.13
   8   1 -19    0.34    0.14
   8  -1 -19    0.23    0.13
   8   1 -19    0.29    0.11
   8   1 -18    0.22    0.11
   8  -1 -18    0.03    0.15
   8  -1 -18    0.05    0.10
   8   1 -18   -0.03    0.09
   8  -1 -17    3.27    0.31
   8   1 -17    3.73    0.33
   8  -1 -17    3.73    0.31
   8  -1 -16   -0.20    0.13
   8   1 -16   -0.01    0.10
   8  -1 -15   -0.01    0.09
   8   1 -15    0.04    0.10
   8  -1 -14    0.89    0.19
   8   1 -14    0.74    0.16
   8  -1 -13    0.03    0.10
   8   1 -13   -0.06    0.11
   8  -1 -12    4.74    0.34
   8   1 -12    5.27    0.37
   8  -1 -11    1.35    0.20
   8   1 -11    1.12    0.19
   8  -1 -10    1.51    0.21
   8   1 -10    1.49    0.20
   8  -1  -9    2.56    0.26
   8   1  -9    2.23    0.25
   8  -1  -8    1.42    0.20
   8   1  -8    1.14    0.19
   8  -1  -7    0.57    0.13
   8   1  -7    0.34    0.12
   8  -1  -6    2.21    0.24
   8   1  -6    2.14    0.24
   8  -1  -5    1.31    0.19
   8   1  -5    1.07    0.17
   8  -1  -4    0.05    0.10
   8   1  -4    0.31    0.13
   8  -1  -3   -0.13    0.11
   8   1  -3    0.02    0.09
   8  -1  -2    3.64    0.29
   8   1  -2    3.66    0.29
   8  -1  -1    9.13    0.45
   8   1  -1    8.81    0.45
   8  -1   0    0.02    0.11
   8   1   0    0.38    0.15
   8  -1   1   33.80    0.85
   8   1   1   34.19    0.86
   8  -1   2    2.61    0.25
   8   1   2    3.94    0.31
   8  -1   3    1.17    0.17
   8   1   3    1.49    0.19
   8   1   4    1.70    0.21
  -8  -1  -4    1.63    0.16
   8   1   5    0.05    0.09
  -8  -1  -5    0.08    0.07
  -8   1  -6    1.19    0.15
  -8  -1  -6    0.81    0.12
   8   1   6    0.92    0.16
   8   1   7    1.34    0.18
  -8   1  -7    1.85    0.18
  -8  -1  -7    1.75    0.17
   8   1   8    0.49    0.11
  -8   1  -8    0.36    0.09
  -8  -1  -8    0.51    0.10
  -8  -1  -9    0.92    0.14
  -8   1  -9    0.79    0.14
  -8  -1 -10    0.72    0.12
  -8   1 -10    0.90    0.14
  -8   1 -11   -0.05    0.09
  -8  -1 -11   -0.04    0.08
  -8   1 -12    0.01    0.08
  -8  -1 -12    0.02    0.08
  -8   1 -13    0.84    0.15
  -8  -1 -13    0.76    0.14
  -8  -1 -14    0.08    0.08
  -8   1 -14    0.03    0.08
  -8  -1 -15    0.16    0.10
  -8   1 -15    0.12    0.10
  -8  -1 -16    0.20    0.11
  -8   1 -16    0.10    0.10
  -8   1 -17    1.53    0.22
  -8  -1 -17    1.32    0.20
  -8  -1 -18    0.00    0.10
  -8   1 -18    0.06    0.09
  -8   1 -19    0.50    0.15
  -8  -1 -19    0.48    0.14
  -8   1 -20    0.21    0.13
  -8  -1 -20    0.17    0.10
   8   2 -27    0.07    0.13
   8   2 -26    3.43    0.34
   8   2 -26    3.44    0.35
   8   2 -25    0.15    0.13
   8   2 -25    0.36    0.15
   8   2 -24    1.16    0.21
   8   2 -24    0.92    0.20
   8   2 -24    0.97    0.19
   8  -2 -24    0.93    0.21
   8  -2 -23    0.62    0.15
   8   2 -23    0.20    0.12
   8   2 -23    0.65    0.16
   8   2 -23    0.50    0.14
   8  -2 -23    0.71    0.18
   8  -2 -22    0.92    0.18
   8   2 -22    0.67    0.16
   8   2 -22    1.05    0.19
   8  -2 -22    1.11    0.21
   8   2 -22    0.76    0.16
   8  -2 -21    0.33    0.14
   8   2 -21    0.40    0.14
   8   2 -21    0.29    0.11
   8  -2 -21    0.71    0.18
   8   2 -21    0.46    0.14
   8  -2 -20    2.02    0.24
   8   2 -20    2.51    0.27
   8  -2 -20    2.09    0.26
   8   2 -20    2.29    0.26
   8   2 -20    2.21    0.24
   8  -2 -19    0.00    0.09
   8   2 -19   -0.01    0.10
   8  -2 -19    0.14    0.13
   8   2 -19    0.07    0.11
   8   2 -19    0.02    0.07
   8   2 -18    1.35    0.20
   8  -2 -18    1.43    0.22
   8  -2 -18    1.43    0.21
   8   2 -18    1.52    0.23
   8   2 -18    1.56    0.18
   8  -2 -17    0.05    0.10
   8  -2 -17    0.15    0.10
   8   2 -17    0.09    0.08
   8   2 -17    0.10    0.08
   8  -2 -16   -0.03    0.10
   8  -2 -16    0.15    0.13
   8   2 -16    0.15    0.12
   8   2 -16    0.11    0.10
   8   2 -15    6.21    0.32
   8  -2 -15    6.60    0.42
   8   2 -15    7.02    0.44
   8   2 -14    4.09    0.25
   8  -2 -14    4.47    0.35
   8   2 -14    4.19    0.34
   8   2 -13    6.00    0.29
   8  -2 -13    6.07    0.39
   8   2 -13    5.52    0.39
   8  -2 -12    6.84    0.41
   8   2 -12    7.07    0.43
   8  -2 -11    0.61    0.15
   8   2 -11    0.63    0.15
   8  -2 -10    1.20    0.18
   8   2 -10    1.15    0.19
   8  -2  -9    1.27    0.19
   8   2  -9    1.23    0.19
   8  -2  -8    0.29    0.13
   8   2  -8    0.19    0.11
   8  -2  -7   15.62    0.60
   8   2  -7   15.17    0.60
   8  -2  -6    2.26    0.25
   8   2  -6    2.08    0.22
   8  -2  -5    0.16    0.11
   8   2  -5    0.23    0.12
   8  -2  -4    3.64    0.30
   8   2  -4    4.42    0.32
   8  -2  -3    4.58    0.33
   8   2  -3    5.18    0.35
   8  -2  -2    9.27    0.46
   8   2  -2    9.23    0.46
   8  -2  -1    1.14    0.18
   8   2  -1    1.40    0.19
   8  -2   0    1.24    0.19
   8   2   0    0.73    0.16
   8   2   1    6.71    0.40
   8   2   2   13.13    0.54
   8   2   3    7.93    0.43
  -8  -2  -3    7.73    0.32
   8   2   4   36.12    0.88
  -8  -2  -4   37.27    0.69
   8   2   5    5.01    0.36
  -8  -2  -5    4.46    0.25
   8   2   6   26.76    0.75
  -8  -2  -6   26.67    0.61
   8   2   7    0.55    0.15
  -8   2  -7    0.39    0.13
  -8  -2  -7    0.23    0.09
  -8  -2  -8    0.12    0.07
   8   2   8    0.24    0.10
  -8   2  -8    0.10    0.08
   8   2   9    1.14    0.18
  -8  -2  -9    1.08    0.15
  -8   2  -9    0.66    0.12
   8   2  10    3.14    0.26
  -8   2 -10    2.77    0.24
  -8  -2 -10    3.37    0.24
  -8  -2 -11    0.01    0.08
  -8   2 -11    0.13    0.09
  -8  -2 -12    2.52    0.23
  -8   2 -12    2.31    0.23
  -8  -2 -13    0.21    0.10
  -8   2 -13    0.30    0.12
  -8  -2 -14    0.80    0.16
  -8   2 -14    0.79    0.16
  -8   2 -15    0.22    0.11
  -8  -2 -15    0.16    0.10
  -8   2 -16    0.27    0.11
  -8  -2 -16    0.32    0.11
  -8  -2 -17    0.50    0.13
  -8   2 -17    0.15    0.11
  -8   2 -18    0.34    0.14
  -8  -2 -18    0.43    0.14
  -8   2 -19    2.24    0.27
  -8  -2 -19    1.89    0.25
   8   3 -27    0.06    0.14
   8   3 -26    1.45    0.24
   8   3 -26    1.88    0.26
   8   3 -25    0.69    0.19
   8   3 -25    0.63    0.17
   8   3 -25    0.76    0.17
   8   3 -24    0.07    0.10
   8   3 -24    0.31    0.14
   8   3 -24    0.01    0.11
   8   3 -23    1.60    0.24
   8   3 -23    1.56    0.23
   8  -3 -23    1.80    0.25
   8   3 -23    1.97    0.26
   8   3 -22    1.04    0.20
   8   3 -22    0.87    0.18
   8  -3 -22    1.08    0.21
   8   3 -22    0.85    0.17
   8   3 -21    2.93    0.28
   8   3 -21    2.65    0.30
   8  -3 -21    2.14    0.27
   8   3 -21    2.85    0.29
   8   3 -20    0.12    0.12
   8  -3 -20   -0.02    0.12
   8   3 -20    0.02    0.09
   8   3 -20    0.05    0.10
   8  -3 -19    1.54    0.21
   8   3 -19    1.81    0.23
   8  -3 -19    1.65    0.24
   8   3 -19    1.83    0.25
   8   3 -19    1.94    0.22
   8   3 -18    0.73    0.16
   8  -3 -18    0.80    0.18
   8   3 -18    0.89    0.18
   8   3 -18    1.08    0.16
   8  -3 -18    1.02    0.20
   8  -3 -17    2.58    0.26
   8   3 -17    2.76    0.24
   8  -3 -17    2.37    0.27
   8   3 -17    2.73    0.28
   8  -3 -16    0.05    0.10
   8  -3 -16    0.08    0.11
   8   3 -16   -0.18    0.13
   8   3 -16    0.07    0.07
   8   3 -15    2.41    0.21
   8  -3 -15    1.83    0.22
   8   3 -15    2.68    0.28
   8  -3 -14    1.12    0.19
   8   3 -14    0.78    0.16
   8   3 -14    1.21    0.15
   8  -3 -13    0.19    0.11
   8   3 -13   -0.01    0.10
   8   3 -13    0.29    0.09
   8  -3 -12    0.12    0.10
   8   3 -12   -0.09    0.09
   8   3 -12    0.06    0.06
   8  -3 -11    0.32    0.11
   8   3 -11    0.33    0.12
   8   3 -11    0.33    0.08
   8  -3 -10    0.60    0.14
   8   3 -10    0.53    0.13
   8   3 -10    0.44    0.07
   8   3  -9    1.83    0.13
   8  -3  -9    1.98    0.24
   8   3  -9    1.79    0.23
   8  -3  -8    4.56    0.34
   8   3  -8    4.16    0.33
   8  -3  -7    6.19    0.39
   8   3  -7    6.03    0.39
   8  -3  -6    5.92    0.38
   8   3  -6    6.41    0.40
   8  -3  -5    2.03    0.24
   8   3  -5    1.47    0.19
   8   3  -4    0.08    0.09
   8   3  -3    1.61    0.19
   8   3  -2   -0.08    0.10
   8   3  -1   11.51    0.51
   8   3   0    1.08    0.18
   8   3   1   10.95    0.50
   8   3   2    8.36    0.44
  -8  -3  -2    9.25    0.33
   8   3   3    4.74    0.33
  -8  -3  -3    4.73    0.24
   8   3   4    0.09    0.12
  -8  -3  -4    0.16    0.07
   8   3   5    0.84    0.16
  -8  -3  -5    0.69    0.11
  -8  -3  -6    0.29    0.09
   8   3   6    0.61    0.16
   8   3   7   14.69    0.56
  -8   3  -7   13.64    0.48
  -8  -3  -7   14.14    0.45
   8   3   8    1.14    0.18
  -8  -3  -8    1.11    0.15
  -8   3  -8    0.98    0.16
   8   3   9   12.10    0.50
  -8   3  -9   11.00    0.45
  -8  -3  -9   11.46    0.43
   8   3  10    1.28    0.19
  -8   3 -10    1.01    0.16
  -8  -3 -10    1.16    0.15
  -8  -3 -11   -0.01    0.07
   8   3  11    0.01    0.07
  -8   3 -11    0.12    0.09
   8   3  12   -0.02    0.08
  -8  -3 -12   -0.06    0.09
  -8   3 -12    0.05    0.08
  -8   3 -13    0.06    0.08
  -8  -3 -13   -0.06    0.09
  -8   3 -14   -0.15    0.12
  -8  -3 -14    0.14    0.09
  -8  -3 -15    0.22    0.12
  -8   3 -15    0.01    0.09
  -8   3 -16    0.68    0.16
  -8  -3 -16    0.67    0.15
  -8   3 -17    0.31    0.12
  -8  -3 -17    0.46    0.13
  -8   3 -18    0.37    0.12
  -8  -3 -18    0.31    0.12
  -8   3 -19    0.05    0.10
   8   4 -26    1.02    0.22
   8   4 -25    1.20    0.22
   8   4 -25    0.99    0.22
   8   4 -25    1.19    0.22
   8   4 -24    0.12    0.12
   8   4 -24    0.18    0.14
   8   4 -24    0.11    0.13
   8   4 -23    0.37    0.14
   8   4 -23    0.43    0.13
   8   4 -23    0.53    0.15
   8   4 -22    0.21    0.11
   8   4 -22    0.21    0.12
   8  -4 -22    0.30    0.15
   8   4 -22    0.15    0.11
   8   4 -21    1.00    0.18
   8   4 -21    1.12    0.20
   8  -4 -21    0.69    0.16
   8   4 -21    0.95    0.18
   8   4 -20    1.67    0.22
   8  -4 -20    1.43    0.22
   8   4 -20    1.71    0.23
   8   4 -20    2.07    0.24
   8   4 -19    1.59    0.22
   8  -4 -19    1.25    0.21
   8   4 -19    1.25    0.22
   8   4 -19    1.21    0.18
   8   4 -18    2.80    0.25
   8  -4 -18    2.65    0.28
   8   4 -18    2.54    0.28
   8   4 -18    2.58    0.26
   8  -4 -17    0.12    0.12
   8   4 -17    0.45    0.16
   8   4 -17    0.22    0.10
   8  -4 -16    0.06    0.10
   8   4 -16   -0.04    0.10
   8   4 -16    0.16    0.09
   8  -4 -15    2.25    0.26
   8   4 -15    1.93    0.19
   8   4 -15    2.05    0.26
   8   4 -14    3.67    0.25
   8   4 -14    3.30    0.31
   8   4 -13    0.38    0.11
   8   4 -13    0.72    0.11
   8   4 -12   -0.08    0.12
   8   4 -12    0.03    0.06
   8   4 -11   -0.11    0.13
   8   4 -11    0.04    0.05
   8   4 -10    1.47    0.13
   8   4 -10    1.07    0.17
   8   4  -9    0.68    0.16
   8   4  -9    0.69    0.09
   8   4  -8    0.20    0.12
   8   4  -8    0.16    0.05
   8   4  -7    9.12    0.48
   8   4  -6    5.76    0.37
   8   4  -5    0.83    0.16
   8   4  -4   14.83    0.59
   8   4  -3    1.11    0.19
   8   4  -2    1.95    0.22
   8   4  -1    2.01    0.23
   8   4   0    2.84    0.26
   8   4   1    0.29    0.10
  -8  -4  -1    0.52    0.09
   8   4   2    3.83    0.30
  -8  -4  -2    4.15    0.21
   8   4   3    5.97    0.37
  -8  -4  -3    6.83    0.28
   8   4   4    7.87    0.43
  -8  -4  -4    7.68    0.30
  -8  -4  -5    0.55    0.10
   8   4   5    0.57    0.14
   8   4   6    9.78    0.47
  -8  -4  -6    9.06    0.35
   8   4   7    0.37    0.13
  -8  -4  -7    0.24    0.08
   8   4   8    4.07    0.30
  -8   4  -8    4.09    0.28
  -8  -4  -8    3.88    0.25
   8   4   9    0.32    0.11
  -8   4  -9    0.18    0.09
  -8  -4  -9    0.30    0.09
   8   4  10    0.69    0.15
  -8  -4 -10    0.52    0.11
  -8   4 -10    0.48    0.12
   8   4  11    1.36    0.18
  -8  -4 -11    1.35    0.16
  -8   4 -11    1.15    0.17
   8   4  12    1.40    0.19
  -8  -4 -12    1.39    0.18
  -8   4 -12    1.65    0.20
  -8   4 -13    0.47    0.13
  -8  -4 -13    0.51    0.12
  -8   4 -14    0.89    0.16
  -8  -4 -14    0.64    0.14
  -8   4 -15    0.93    0.18
  -8  -4 -15    0.80    0.16
  -8   4 -16    0.05    0.09
  -8  -4 -16    0.02    0.09
  -8   4 -17    0.17    0.11
  -8   4 -18    1.33    0.21
   8   5 -25    1.49    0.26
   8   5 -25    1.56    0.25
   8   5 -24    0.69    0.18
   8   5 -24    0.76    0.18
   8   5 -23    0.11    0.12
   8   5 -23    0.08    0.11
   8   5 -23    0.37    0.14
   8   5 -22    0.39    0.13
   8   5 -22    0.49    0.14
   8  -5 -22    0.80    0.20
   8   5 -22    0.40    0.13
   8   5 -21   -0.06    0.10
   8   5 -21   -0.22    0.12
   8  -5 -21    0.16    0.13
   8   5 -21    0.05    0.11
   8   5 -20   -0.09    0.11
   8  -5 -20   -0.09    0.14
   8   5 -20    0.06    0.09
   8   5 -20   -0.08    0.11
   8   5 -19    0.27    0.10
   8  -5 -19    0.18    0.10
   8   5 -19    0.22    0.13
   8   5 -19    0.34    0.11
   8   5 -18    0.48    0.13
   8  -5 -18    0.68    0.18
   8   5 -18    0.71    0.17
   8   5 -18    0.54    0.13
   8  -5 -17    0.04    0.11
   8   5 -17    0.22    0.12
   8   5 -17   -0.06    0.08
   8   5 -16    2.72    0.24
   8   5 -16    3.29    0.32
   8  -5 -16    2.73    0.29
   8  -5 -15    0.52    0.14
   8   5 -15    0.52    0.15
   8   5 -15    0.51    0.11
   8  -5 -14    0.04    0.09
   8   5 -14   -0.08    0.12
   8   5 -14   -0.10    0.08
   8   5 -13    0.20    0.11
   8   5 -13    0.09    0.07
   8   5 -12    0.80    0.15
   8   5 -12    1.25    0.14
   8   5 -11    0.07    0.08
   8   5 -11    0.05    0.06
   8   5 -10    1.16    0.20
   8   5 -10    1.23    0.13
   8   5  -9   10.72    0.53
   8   5  -8    2.03    0.25
   8   5  -7    3.01    0.29
   8   5  -6    1.51    0.21
   8   5  -5   -0.07    0.10
   8   5  -4    7.73    0.44
   8   5  -3    2.72    0.27
   8   5  -2    0.78    0.16
   8   5  -1    5.32    0.36
  -8  -5   1    5.98    0.23
   8   5   0   -0.03    0.13
  -8  -5   0    0.14    0.05
   8   5   1    1.08    0.17
  -8  -5  -1    1.70    0.13
   8   5   2    1.85    0.21
  -8  -5  -2    1.98    0.15
   8   5   3    4.08    0.31
  -8  -5  -3    4.84    0.23
   8   5   4    0.27    0.12
  -8  -5  -4    0.21    0.07
   8   5   5   -0.06    0.09
  -8  -5  -5    0.08    0.06
   8   5   6    2.55    0.25
  -8  -5  -6    2.79    0.19
  -8  -5  -7    0.08    0.06
   8   5   7    0.26    0.12
   8   5   8    1.14    0.18
  -8  -5  -8    1.14    0.15
  -8   5  -8    1.14    0.17
   8   5   9    7.38    0.41
  -8  -5  -9    7.08    0.34
  -8   5  -9    6.75    0.37
   8   5  10    0.23    0.11
  -8   5 -10    0.16    0.10
  -8  -5 -10    0.11    0.08
   8   5  11    5.78    0.36
  -8  -5 -11    5.97    0.32
  -8   5 -11    4.90    0.33
  -8  -5 -12    1.58    0.18
   8   5  12    1.23    0.18
  -8   5 -12    1.22    0.18
  -8  -5 -13    1.27    0.18
  -8   5 -13    1.39    0.20
  -8   5 -14    3.71    0.31
  -8   5 -15    0.63    0.15
  -8   5 -16    0.06    0.09
  -8   5 -17    0.28    0.12
  -8   5 -18    0.82    0.17
   8   6 -25   -0.08    0.14
   8   6 -24    0.02    0.11
   8   6 -23    0.30    0.14
   8   6 -22    0.18    0.12
   8   6 -22    0.01    0.11
   8   6 -21    1.31    0.20
   8   6 -21    1.32    0.22
   8  -6 -21    1.51    0.25
   8   6 -21    1.56    0.22
   8   6 -20    1.99    0.23
   8  -6 -20    1.60    0.24
   8   6 -20    1.67    0.24
   8   6 -20    2.11    0.25
   8   6 -19    1.44    0.20
   8  -6 -19    1.50    0.23
   8   6 -19    1.60    0.25
   8   6 -19    1.27    0.20
   8   6 -18    2.09    0.23
   8  -6 -18    2.36    0.27
   8   6 -18    2.06    0.27
   8   6 -18    2.26    0.24
   8  -6 -17   -0.07    0.10
   8   6 -17    0.02    0.11
   8   6 -17    0.00    0.08
   8  -6 -16    1.21    0.21
   8   6 -16    1.51    0.23
   8   6 -16    1.40    0.17
   8  -6 -15    2.61    0.27
   8   6 -15    2.76    0.23
   8   6 -15    2.26    0.27
   8  -6 -14    0.21    0.12
   8   6 -14    0.03    0.10
   8   6 -14   -0.12    0.09
   8  -6 -13    2.28    0.25
   8   6 -13    2.48    0.21
   8   6 -13    2.72    0.29
   8   6 -12    6.47    0.31
   8   6 -12    7.01    0.46
   8   6 -11    1.29    0.21
   8   6 -10    8.63    0.49
   8   6  -9    0.03    0.11
   8   6  -8    2.08    0.24
   8   6  -7    4.64    0.36
   8   6  -6    6.59    0.42
   8   6  -5    1.67    0.22
   8   6  -4   11.04    0.53
   8   6  -3    4.22    0.34
  -8  -6   3    4.56    0.18
   8   6  -2    2.15    0.24
  -8  -6   2    1.86    0.12
   8   6  -1    0.15    0.10
  -8  -6   1    0.23    0.06
   8   6   0    4.39    0.33
  -8  -6   0    4.51    0.19
  -8  -6  -1    0.49    0.07
   8   6   1    0.25    0.10
   8   6   2    2.11    0.23
  -8  -6  -2    2.23    0.15
   8   6   3    0.78    0.15
  -8  -6  -3    0.84    0.10
   8   6   4    0.87    0.17
  -8  -6  -4    1.16    0.12
  -8  -6  -5    0.74    0.10
   8   6   5    0.66    0.15
   8   6   6    1.03    0.17
  -8  -6  -6    1.31    0.13
   8   6   7    0.98    0.17
  -8  -6  -7    0.79    0.12
   8   6   8    3.77    0.30
  -8  -6  -8    3.97    0.24
   8   6   9    3.69    0.30
  -8  -6  -9    3.42    0.23
  -8   6  -9    3.13    0.26
   8   6  10    0.34    0.12
  -8   6 -10    0.30    0.11
  -8  -6 -10    0.11    0.07
   8   6  11    2.15    0.23
  -8   6 -11    1.85    0.22
  -8   6 -12    2.88    0.27
  -8   6 -13    0.88    0.17
  -8   6 -14    6.79    0.41
  -8   6 -15    0.69    0.17
  -8   6 -16    0.18    0.10
  -8   6 -17    0.00    0.11
   8   7 -23    1.09    0.23
   8   7 -22    0.09    0.11
   8   7 -21    1.07    0.21
   8  -7 -20    0.15    0.12
   8   7 -20    0.01    0.11
   8  -7 -19    0.91    0.21
   8   7 -19    0.92    0.20
   8   7 -18    0.04    0.09
   8  -7 -18   -0.03    0.11
   8   7 -18    0.20    0.13
   8  -7 -17    2.34    0.27
   8   7 -17    2.10    0.26
   8  -7 -16    0.82    0.17
   8   7 -16    1.09    0.21
   8   7 -15    5.75    0.43
   8  -7 -15    5.98    0.42
   8  -7 -14    1.91    0.25
   8   7 -14    1.87    0.26
   8   7 -13    6.61    0.45
   8  -7 -13    6.50    0.42
   8  -7 -12    0.82    0.18
   8   7 -12    0.97    0.20
   8   7 -11    0.12    0.11
   8   7 -10    0.85    0.17
   8   7  -9    9.94    0.53
   8   7  -8    0.10    0.12
   8   7  -7    3.67    0.32
   8   7  -6   -0.04    0.10
   8   7  -5    0.19    0.12
   8   7  -4    1.66    0.21
   8   7  -3    0.58    0.15
   8   7  -2    0.84    0.17
   8   7  -1   13.66    0.59
   8   7   0    4.63    0.35
   8   7   1    6.58    0.41
   8   7   2   -0.06    0.10
   8   7   3    0.07    0.09
   8   7   4   -0.12    0.10
   8   7   5    0.49    0.13
   8   7   6   -0.10    0.11
   8   7   7    0.65    0.14
   8   7   8    0.57    0.14
   8   7   9    4.02    0.32
  -8   7  -9    4.00    0.30
   8   7  10    1.47    0.20
  -8   7 -10    1.49    0.20
   8   7  11    5.76    0.37
  -8   7 -11    4.84    0.34
  -8   7 -12    0.20    0.11
  -8   7 -13    0.46    0.14
  -8   7 -14    1.62    0.22
  -8   7 -15    4.00    0.33
  -8   7 -16    1.05    0.19
   8   8 -21    2.64    0.33
   8   8 -20    0.92    0.21
   8  -8 -19   -0.08    0.13
   8   8 -19   -0.04    0.12
   8  -8 -18    1.90    0.26
   8   8 -18    2.42    0.30
   8  -8 -17    0.76    0.18
   8   8 -17    1.01    0.21
   8  -8 -16    0.42    0.13
   8   8 -16    0.97    0.20
   8  -8 -15    0.44    0.13
   8   8 -15    0.43    0.15
   8  -8 -14    0.34    0.13
   8   8 -14    0.18    0.12
   8   8 -13    5.13    0.41
   8  -8 -13    4.91    0.37
   8  -8 -12    2.21    0.26
   8   8 -12    2.72    0.30
   8   8 -11    6.72    0.46
   8  -8 -11    7.53    0.45
   8   8 -10    1.24    0.21
   8   8  -9    7.41    0.47
   8   8  -8    5.28    0.40
   8   8  -7    0.52    0.16
   8   8  -6   16.54    0.68
   8   8  -5    1.37    0.22
   8   8  -4    6.68    0.43
   8   8  -3    0.96    0.19
   8   8  -2    5.81    0.40
   8   8  -1    1.00    0.18
   8   8   0    0.25    0.12
   8   8   1    1.95    0.24
   8   8   2    1.31    0.20
   8   8   3    0.16    0.10
   8   8   4    0.65    0.14
   8   8   5    0.78    0.16
   8   8   6    0.36    0.12
   8   8   7   -0.09    0.10
   8   8   8    0.16    0.09
   8   8   9    0.34    0.13
  -8   8  -9    0.16    0.10
   8   8  10   -0.09    0.09
  -8   8 -10    0.23    0.11
  -8   8 -11    2.10    0.24
  -8   8 -12    0.35    0.13
  -8   8 -13    3.64    0.31
  -8   8 -14    4.59    0.36
  -8   8 -15    1.47    0.22
   8   9 -19    0.33    0.17
   8  -9 -18   -0.04    0.12
   8   9 -18    0.17    0.14
   8   9 -17    3.24    0.34
   8  -9 -17    3.35    0.34
   8  -9 -16    0.71    0.18
   8   9 -16    0.98    0.21
   8  -9 -15    1.70    0.23
   8   9 -15    1.87    0.26
   8  -9 -14    2.29    0.27
   8   9 -14    1.96    0.27
   8  -9 -13    2.25    0.26
   8   9 -13    2.11    0.27
   8  -9 -12    1.89    0.25
   8   9 -12    1.75    0.26
   8  -9 -11    0.12    0.13
   8   9 -11    0.15    0.11
   8  -9 -10    0.50    0.14
   8   9 -10    0.49    0.14
   8   9  -9    2.99    0.32
   8  -9  -9    3.93    0.32
   8   9  -8    8.58    0.51
   8   9  -7    6.38    0.44
   8   9  -6    4.26    0.36
   8   9  -5    0.25    0.12
   8   9  -4    0.35    0.14
   8   9  -3    2.05    0.25
   8   9  -2    0.70    0.15
   8   9  -1    3.65    0.32
   8   9   0    0.19    0.11
   8   9   1    0.02    0.09
   8   9   2    1.96    0.25
   8   9   3    1.16    0.20
   8   9   4    0.03    0.10
   8   9   5    1.39    0.20
   8   9   6   -0.02    0.09
   8   9   7    1.18    0.19
   8   9   8    0.40    0.13
   8   9   9    2.66    0.27
  -8   9  -9    3.27    0.29
   8   9  10    2.07    0.24
  -8   9 -10    2.34    0.25
  -8   9 -11    1.83    0.22
  -8   9 -12    0.21    0.11
  -8   9 -13    0.18    0.12
  -8   9 -14    0.10    0.11
   8 -10 -17    1.82    0.26
   8 -10 -16    0.54    0.17
   8  10 -16   -0.02    0.11
   8 -10 -15    1.41    0.23
   8  10 -15    1.56    0.25
   8 -10 -14    1.20    0.20
   8  10 -14    0.86    0.19
   8 -10 -13    0.89    0.19
   8  10 -13    0.91    0.20
   8 -10 -12    1.29    0.21
   8  10 -12    1.20    0.22
   8  10 -11    3.73    0.36
   8 -10 -11    4.50    0.36
   8 -10 -10    0.08    0.12
   8  10 -10    0.06    0.10
   8 -10  -9    0.14    0.11
   8  10  -9    0.07    0.13
   8 -10  -8    1.33    0.19
   8  10  -8    1.65    0.25
   8  10  -7    4.48    0.38
   8  10  -6    0.16    0.14
   8  10  -5    9.97    0.55
   8  10  -4    1.75    0.24
   8  10  -3    0.31    0.14
   8  10  -2    0.53    0.15
   8  10  -1    0.32    0.14
   8  10   0    0.11    0.11
   8  10   1    0.01    0.10
   8  10   2    0.78    0.16
   8  10   3    0.33    0.11
   8  10   4   -0.13    0.11
   8  10   5    0.80    0.17
   8  10   6    2.01    0.25
   8  10   7    0.17    0.11
   8  10   8   -0.06    0.11
   8  10   9    0.47    0.16
  -8  10  -9    0.44    0.14
  -8  10 -10    1.01    0.18
  -8  10 -11    0.82    0.16
  -8  10 -12    0.24    0.11
   8 -11 -16    1.12    0.22
   8 -11 -15    0.84    0.20
   8 -11 -14    2.04    0.26
   8  11 -14    2.42    0.31
   8 -11 -13   -0.02    0.09
   8  11 -13    0.09    0.14
   8 -11 -12    0.22    0.10
   8  11 -12    0.37    0.16
   8 -11 -11    0.30    0.11
   8  11 -11    0.03    0.12
   8  11 -10    2.52    0.30
   8 -11 -10    2.76    0.29
   8 -11  -9    0.19    0.12
   8  11  -9    0.01    0.12
   8 -11  -8    1.15    0.19
   8  11  -8    1.11    0.22
   8 -11  -7    0.30    0.13
   8  11  -7    0.31    0.14
   8 -11  -6    0.27    0.11
   8  11  -6    0.30    0.15
   8  11  -5    3.61    0.35
   8  11  -4    0.33    0.15
   8  11  -3    1.06    0.20
   8  11  -2    2.16    0.28
   8  11  -1    2.30    0.27
   8  11   0    0.25    0.13
   8  11   1    5.67    0.42
   8  11   2    0.47    0.15
   8  11   3    1.57    0.23
   8  11   4    1.42    0.22
   8  11   5    0.45    0.15
   8  11   6    1.09    0.21
   8  11   7    2.49    0.28
   8  11   8    0.33    0.15
  -8  11  -9    2.31    0.26
  -8  11 -10    2.34    0.26
  -8  11 -11    0.08    0.11
   8 -12 -15   -0.01    0.11
   8 -12 -14    0.67    0.18
   8 -12 -13    1.70    0.24
   8 -12 -12    1.88    0.25
   8 -12 -11    4.78    0.37
   8 -12 -10    0.12    0.14
   8  12 -10    0.23    0.14
   8  12  -9    3.20    0.35
   8 -12  -9    3.47    0.32
   8 -12  -8    0.89    0.18
   8  12  -8    1.00    0.21
   8 -12  -7   -0.03    0.09
   8  12  -7    0.02    0.13
   8 -12  -6    1.47    0.21
   8  12  -6    1.61    0.26
   8  12  -5    3.13    0.34
   8 -12  -5    3.28    0.30
   8 -12  -4    0.58    0.14
   8  12  -4    0.73    0.19
   8  12  -3    1.26    0.23
   8  12  -2    0.99    0.21
   8  12  -1    0.03    0.12
   8  12   0    0.78    0.19
   8  12   1    0.44    0.16
   8  12   2    0.47    0.15
   8  12   3    4.45    0.38
   8  12   4    6.75    0.47
   8  12   5    1.92    0.27
   8  12   6    1.17    0.22
   8  12   7    0.51    0.15
   8  12   8    0.32    0.17
   8 -13 -14    1.09    0.21
   8 -13 -13    0.59    0.16
   8 -13 -12    0.10    0.13
   8 -13 -11    0.61    0.16
   8 -13 -10    0.89    0.18
   8 -13  -9    1.04    0.19
   8 -13  -8    3.38    0.31
   8 -13  -7    2.37    0.27
   8  13  -7    2.08    0.29
   8 -13  -6    0.57    0.14
   8  13  -6    0.47    0.17
   8 -13  -5    0.10    0.09
   8  13  -5    0.09    0.11
   8 -13  -4    0.42    0.13
   8  13  -4    0.26    0.14
   8  13  -3    0.02    0.12
   8  13  -2    0.50    0.17
   8  13  -1    0.16    0.13
   8  13   0    0.35    0.16
   8  13   1    4.00    0.38
   8  13   2    1.20    0.23
   8  13   3    1.90    0.27
   8  13   4    0.49    0.17
   8  13   5    1.55    0.24
   8  13   6    0.61    0.17
   8  13   7    1.75    0.27
   8 -14 -12    0.74    0.17
   8 -14 -11   -0.09    0.13
   8 -14 -10    0.06    0.12
   8 -14  -9    0.21    0.11
   8  14  -2    0.34    0.14
   8  14  -1    1.25    0.24
   8  14   0    0.23    0.15
   8  14   1    0.12    0.13
   8  14   2    0.29    0.15
   8  14   3    1.39    0.25
   8  14   4    2.56    0.31
   8  14   5    3.08    0.34
   8  14   6   -0.09    0.12
   8  15   5    1.17    0.25
   9   0 -24    0.02    0.11
   9   0 -23    5.89    0.45
   9   0 -22    0.45    0.17
   9   0 -22   -0.04    0.12
   9   0 -21    0.07    0.11
   9   0 -21    0.07    0.11
   9   0 -20    0.08    0.11
   9   0 -20   -0.14    0.13
   9   0 -19    0.81    0.18
   9   0 -19    0.96    0.20
   9   0 -18    0.06    0.10
   9   0 -18    0.02    0.10
   9   0 -17    0.97    0.20
   9   0 -16    0.05    0.11
   9   0 -15    0.31    0.14
   9   0 -14   -0.08    0.09
   9   0 -13    1.65    0.22
   9   0 -12    0.04    0.13
   9   0 -11    0.92    0.19
   9   0 -10    0.32    0.18
   9   0  -9    8.83    0.50
   9   0  -8    0.28    0.16
   9   0  -7   13.08    0.60
   9   0  -6    0.34    0.15
   9   0  -5   18.74    0.70
   9   0  -4    0.18    0.14
   9   0  -3    1.68    0.22
   9   0  -2   -0.07    0.12
   9   0  -1    0.52    0.14
   9   0   0    0.05    0.11
   9   0   1    0.97    0.18
   9   0   2   -0.44    0.17
   9   0   3    2.29    0.24
   9   0   4    0.01    0.10
   9   0   5    2.27    0.25
  -9   0  -5    2.18    0.21
  -9   0  -6   -0.01    0.06
  -9   0  -7    0.29    0.09
  -9   0  -8    0.01    0.07
  -9   0  -9    0.45    0.11
  -9   0 -10   -0.17    0.10
  -9   0 -11    0.13    0.09
  -9   0 -12    0.08    0.09
  -9   0 -13    0.51    0.13
  -9   0 -14    0.02    0.09
  -9   0 -15   -0.08    0.12
  -9   0 -16    0.18    0.12
  -9   0 -17    0.83    0.18
  -9   0 -18    0.15    0.13
   9   1 -24    1.00    0.21
   9  -1 -23    0.02    0.11
   9   1 -23   -0.01    0.12
   9   1 -23   -0.01    0.10
   9  -1 -22    1.96    0.27
   9   1 -22    1.91    0.27
   9   1 -22    1.63    0.24
   9  -1 -22    1.56    0.24
   9  -1 -21    0.39    0.15
   9   1 -21    0.28    0.15
   9   1 -21    0.06    0.11
   9  -1 -21    0.00    0.12
   9  -1 -20    1.12    0.20
   9   1 -20    1.58    0.23
   9  -1 -20    1.26    0.21
   9   1 -20    1.66    0.25
   9   1 -19   -0.12    0.12
   9  -1 -19    0.08    0.10
   9  -1 -19   -0.03    0.10
   9   1 -19    0.09    0.13
   9   1 -18   -0.16    0.12
   9  -1 -18   -0.10    0.14
   9  -1 -18    0.02    0.13
   9   1 -18    0.01    0.11
   9  -1 -17    0.29    0.11
   9   1 -17    0.21    0.11
   9  -1 -16    2.92    0.31
   9   1 -16    2.78    0.30
   9  -1 -15    0.60    0.16
   9   1 -15    0.85    0.19
   9  -1 -14    1.05    0.20
   9   1 -14    1.17    0.21
   9  -1 -13    0.85    0.18
   9   1 -13    1.06    0.21
   9  -1 -12    8.69    0.50
   9   1 -12    9.47    0.53
   9  -1 -11    3.14    0.33
   9   1 -11    3.71    0.35
   9  -1 -10   35.11    0.97
   9   1 -10   33.89    0.98
   9  -1  -9    0.25    0.16
   9   1  -9    0.50    0.19
   9  -1  -8    9.09    0.50
   9   1  -8    9.54    0.51
   9  -1  -7    0.85    0.18
   9   1  -7    1.07    0.20
   9  -1  -6    0.48    0.15
   9   1  -6    0.37    0.13
   9  -1  -5    0.04    0.09
   9   1  -5    0.12    0.12
   9  -1  -4   10.55    0.53
   9   1  -4   10.29    0.52
   9  -1  -3    4.73    0.36
   9   1  -3    5.39    0.38
   9  -1  -2    6.54    0.42
   9   1  -2    7.14    0.43
   9  -1  -1    0.75    0.17
   9   1  -1    1.05    0.19
   9  -1   0    2.49    0.27
   9   1   0    2.26    0.26
   9  -1   1    3.16    0.30
   9   1   1    2.66    0.27
   9  -1   2    3.11    0.30
   9   1   2    2.85    0.28
   9  -1   3    3.20    0.30
   9   1   3    2.42    0.26
   9   1   4    9.27    0.49
  -9  -1  -4    8.95    0.38
   9   1   5    0.41    0.13
  -9  -1  -5    0.43    0.11
   9   1   6    0.23    0.11
  -9   1  -6    0.30    0.10
  -9  -1  -6    0.07    0.06
   9   1   7    2.69    0.27
  -9   1  -7    2.62    0.23
  -9  -1  -7    2.40    0.21
  -9   1  -8    0.53    0.12
  -9  -1  -8    0.80    0.14
  -9  -1  -9    1.84    0.19
  -9   1  -9    1.84    0.20
  -9  -1 -10    1.10    0.16
  -9   1 -10    1.02    0.16
  -9   1 -11    0.48    0.12
  -9  -1 -11    0.27    0.10
  -9   1 -12    0.00    0.08
  -9  -1 -12    0.21    0.10
  -9   1 -13    0.09    0.08
  -9  -1 -13    0.14    0.10
  -9   1 -14    2.34    0.25
  -9  -1 -14    2.13    0.24
  -9  -1 -15    0.16    0.11
  -9   1 -15    0.13    0.10
  -9  -1 -16    0.86    0.17
  -9   1 -16    1.12    0.20
  -9   1 -17    1.07    0.19
  -9  -1 -17    0.60    0.16
  -9  -1 -18   -0.10    0.11
   9   2 -24    0.10    0.12
   9  -2 -23    0.98    0.20
   9   2 -23    0.93    0.20
   9   2 -23    0.96    0.19
   9  -2 -22    0.52    0.16
   9   2 -22    0.52    0.17
   9   2 -22    0.17    0.12
   9  -2 -21   -0.03    0.09
   9   2 -21   -0.04    0.10
   9   2 -21   -0.05    0.10
   9  -2 -21   -0.17    0.14
   9  -2 -20    0.15    0.11
   9   2 -20   -0.13    0.13
   9  -2 -20   -0.16    0.13
   9   2 -20    0.08    0.12
   9  -2 -19    1.20    0.21
   9   2 -19    0.98    0.19
   9  -2 -19    1.21    0.21
   9   2 -19    1.32    0.22
   9  -2 -18    0.82    0.18
   9  -2 -18    0.74    0.17
   9   2 -18    1.00    0.20
   9  -2 -17    3.26    0.32
   9  -2 -17    3.49    0.33
   9  -2 -16    1.74    0.25
   9   2 -16    1.47    0.24
   9  -2 -15    3.33    0.32
   9   2 -15    3.37    0.33
   9  -2 -14    0.75    0.17
   9   2 -14    0.31    0.14
   9  -2 -13    3.74    0.33
   9   2 -13    3.53    0.33
   9  -2 -12    0.36    0.15
   9   2 -12    0.19    0.13
   9  -2 -11    0.42    0.13
   9   2 -11    0.36    0.13
   9  -2 -10    3.16    0.31
   9   2 -10    3.32    0.32
   9  -2  -9    2.37    0.27
   9   2  -9    2.47    0.28
   9  -2  -8    1.68    0.22
   9   2  -8    2.05    0.26
   9  -2  -7    7.68    0.45
   9   2  -7    7.55    0.46
   9  -2  -6    0.05    0.12
   9   2  -6   -0.15    0.13
   9  -2  -5    8.81    0.49
   9   2  -5    8.78    0.49
   9  -2  -4   -0.14    0.10
   9   2  -4    0.02    0.11
   9  -2  -3    0.25    0.14
   9   2  -3    0.42    0.16
   9  -2  -2   14.41    0.61
   9   2  -2   14.91    0.63
   9  -2  -1    2.07    0.25
   9   2  -1    2.30    0.27
   9   2   0    1.77    0.24
   9   2   1    6.31    0.41
   9   2   2    3.56    0.31
   9   2   3    0.41    0.15
  -9  -2  -3    0.23    0.07
   9   2   4    2.48    0.26
  -9  -2  -4    2.30    0.19
   9   2   5    1.33    0.21
  -9  -2  -5    1.31    0.16
   9   2   6    0.04    0.09
  -9   2  -6    0.10    0.09
  -9  -2  -6    0.04    0.06
   9   2   7    1.19    0.19
  -9   2  -7    1.55    0.19
  -9  -2  -7    1.36    0.16
   9   2   8    1.80    0.23
  -9  -2  -8    1.51    0.18
  -9   2  -8    1.64    0.19
   9   2   9    0.81    0.18
  -9  -2  -9    0.71    0.15
  -9   2  -9    1.09    0.16
  -9   2 -10    4.11    0.30
  -9  -2 -10    4.23    0.29
  -9  -2 -11    0.12    0.09
  -9   2 -11    0.07    0.09
  -9   2 -12    0.07    0.09
  -9  -2 -12    0.34    0.12
  -9  -2 -13    0.13    0.09
  -9   2 -13    0.14    0.11
  -9  -2 -14    0.02    0.08
  -9   2 -14    0.06    0.09
  -9   2 -15    0.98    0.18
  -9  -2 -15    0.78    0.17
  -9   2 -16    0.00    0.09
  -9  -2 -16   -0.05    0.11
  -9  -2 -17    2.12    0.26
  -9   2 -17    2.74    0.29
  -9  -2 -18    0.88    0.19
   9   3 -24    0.18    0.13
   9   3 -24    0.10    0.11
   9   3 -23    0.25    0.12
   9   3 -23    0.10    0.10
   9   3 -22    1.53    0.23
   9   3 -22    1.42    0.24
   9   3 -21    2.64    0.29
   9   3 -21    2.13    0.29
   9  -3 -21    2.36    0.29
   9   3 -20    3.08    0.33
   9   3 -20    3.10    0.30
   9  -3 -20    3.74    0.36
   9   3 -19    0.12    0.11
   9  -3 -19    0.11    0.12
   9   3 -19    0.02    0.10
   9   3 -18    3.33    0.34
   9  -3 -18    3.38    0.34
   9  -3 -17    0.57    0.16
   9  -3 -17    0.46    0.15
   9   3 -17    0.55    0.17
   9  -3 -16    0.88    0.19
   9   3 -16    1.00    0.21
   9  -3 -15    0.63    0.16
   9   3 -15    0.85    0.19
   9  -3 -14    2.63    0.28
   9   3 -14    1.91    0.27
   9  -3 -13    1.56    0.23
   9   3 -13    1.19    0.20
   9  -3 -12    1.22    0.20
   9   3 -12    0.98    0.19
   9  -3 -11    0.95    0.19
   9   3 -11    0.77    0.17
   9  -3 -10    0.06    0.11
   9   3 -10   -0.01    0.11
   9  -3  -9    2.24    0.25
   9   3  -9    2.54    0.28
   9  -3  -8    0.55    0.11
   9   3  -8    0.38    0.14
   9  -3  -7   -0.10    0.13
   9   3  -7    0.17    0.12
   9   3  -6    3.14    0.30
   9   3  -5    0.58    0.15
   9   3  -4    7.17    0.45
   9   3  -3    7.36    0.45
   9   3  -2   12.99    0.59
   9   3  -1    0.26    0.14
   9   3   0    4.31    0.35
   9   3   1    9.50    0.51
   9   3   2    1.68    0.24
  -9  -3  -2    1.65    0.16
   9   3   3    5.82    0.40
  -9  -3  -3    5.59    0.28
   9   3   4    1.99    0.24
  -9  -3  -4    1.64    0.16
   9   3   5    0.52    0.17
  -9  -3  -5    0.25    0.09
   9   3   6    9.04    0.48
  -9  -3  -6    8.24    0.36
   9   3   7    0.27    0.13
  -9  -3  -7    0.24    0.09
  -9   3  -7    0.36    0.12
   9   3   8    0.82    0.16
  -9  -3  -8    0.57    0.11
   9   3   9    1.06    0.18
  -9  -3  -9    1.13    0.16
  -9   3  -9    1.20    0.17
   9   3  10    1.61    0.22
  -9   3 -10    1.97    0.22
  -9  -3 -10    2.01    0.20
   9   3  11    2.37    0.25
  -9   3 -11    2.45    0.25
  -9  -3 -11    1.97    0.21
  -9  -3 -12    1.97    0.21
  -9   3 -12    1.81    0.22
  -9   3 -13    0.04    0.09
  -9  -3 -13    0.09    0.08
  -9   3 -14    0.74    0.16
  -9  -3 -14    0.40    0.13
  -9  -3 -15    0.06    0.09
  -9   3 -15    0.05    0.09
  -9   3 -16    0.04    0.10
  -9  -3 -16    0.17    0.12
  -9  -3 -17    0.30    0.12
  -9  -3 -18    0.44    0.15
   9   4 -24    0.11    0.15
   9   4 -24   -0.05    0.12
   9   4 -23    0.72    0.20
   9   4 -23    0.88    0.19
   9   4 -22    0.93    0.19
   9   4 -22    0.81    0.20
   9   4 -21    0.44    0.13
   9   4 -21    0.79    0.20
   9   4 -20   -0.11    0.12
   9  -4 -20    0.15    0.16
   9   4 -20   -0.13    0.13
   9   4 -19   -0.02    0.10
   9  -4 -19    0.00    0.12
   9   4 -19    0.10    0.11
   9  -4 -18    1.02    0.20
   9   4 -18    0.58    0.16
   9  -4 -17    2.66    0.30
   9   4 -17    3.55    0.35
   9  -4 -16    0.43    0.17
   9   4 -16    0.53    0.17
   9   4 -15    4.30    0.38
   9   4 -14    0.26    0.12
   9   4 -13    0.58    0.15
   9   4 -12    1.35    0.21
   9   4 -11    0.94    0.20
   9   4 -10    0.27    0.13
   9   4  -9    1.20    0.21
   9   4  -8    0.05    0.11
   9   4  -7    8.54    0.49
   9   4  -6    2.13    0.26
   9   4  -5    0.26    0.12
   9   4  -4    6.61    0.43
   9   4  -3    0.23    0.14
   9   4  -2    0.92    0.19
   9   4  -1    3.02    0.29
   9   4   0    3.09    0.30
  -9  -4   0    3.23    0.20
   9   4   1    5.02    0.37
  -9  -4  -1    5.77    0.27
   9   4   2    1.60    0.22
  -9  -4  -2    1.50    0.15
   9   4   3    5.32    0.38
  -9  -4  -3    5.35    0.27
   9   4   4    0.28    0.13
  -9  -4  -4    0.13    0.07
   9   4   5    6.35    0.42
  -9  -4  -5    6.48    0.31
   9   4   6    0.91    0.18
  -9  -4  -6    1.14    0.14
   9   4   7    0.43    0.13
  -9  -4  -7    0.35    0.09
   9   4   8    1.20    0.19
  -9   4  -8    1.04    0.17
  -9  -4  -8    0.94    0.13
   9   4   9    1.31    0.20
  -9   4  -9    1.56    0.20
  -9  -4  -9    1.36    0.17
  -9  -4 -10    0.36    0.11
   9   4  10    0.19    0.10
  -9   4 -10    0.28    0.11
   9   4  11    0.03    0.09
  -9  -4 -11   -0.08    0.09
  -9  -4 -12    1.16    0.17
  -9   4 -12    1.31    0.20
  -9  -4 -13    1.24    0.18
  -9   4 -13    1.25    0.19
  -9   4 -14    0.22    0.12
  -9  -4 -14    0.12    0.10
  -9  -4 -15    0.72    0.16
  -9   4 -15    0.86    0.18
  -9   4 -16    0.20    0.13
  -9  -4 -16   -0.01    0.10
   9   5 -22   -0.13    0.12
   9   5 -22    0.09    0.15
   9   5 -21    0.06    0.11
   9   5 -21    0.06    0.12
   9   5 -20    0.96    0.19
   9   5 -20    0.97    0.21
   9   5 -19    0.20    0.13
   9  -5 -19    0.16    0.14
   9   5 -19    0.30    0.18
   9   5 -18    7.56    0.51
   9  -5 -18    8.16    0.52
   9  -5 -17    1.57    0.25
   9   5 -17    1.44    0.24
   9  -5 -16    1.92    0.26
   9   5 -16    2.31    0.30
   9  -5 -15    2.20    0.27
   9   5 -15    2.65    0.31
   9   5 -14    2.43    0.28
   9   5 -13    2.88    0.31
   9   5 -12    6.20    0.44
   9   5 -11    0.99    0.20
   9   5 -10    4.38    0.38
   9   5  -9   -0.01    0.12
   9   5  -8    0.17    0.13
   9   5  -7    2.95    0.31
   9   5  -6    6.95    0.45
   9   5  -5    0.31    0.14
   9   5  -4    0.40    0.15
   9   5  -3    5.09    0.38
   9   5  -2    4.70    0.37
  -9  -5   2    5.23    0.23
   9   5  -1    0.20    0.11
  -9  -5   1    0.51    0.09
   9   5   0    0.02    0.11
  -9  -5   0    0.17    0.06
   9   5   1    0.38    0.14
  -9  -5  -1    0.80    0.10
   9   5   2    0.01    0.10
  -9  -5  -2    0.14    0.06
  -9  -5  -3    0.86    0.11
   9   5   3    0.84    0.17
   9   5   4    0.37    0.12
  -9  -5  -4    0.33    0.08
   9   5   5    0.86    0.18
  -9  -5  -5    0.54    0.10
   9   5   6    3.34    0.31
  -9  -5  -6    3.41    0.22
   9   5   7    0.87    0.18
  -9  -5  -7    0.96    0.13
  -9  -5  -8    2.66    0.22
   9   5   8    2.39    0.27
  -9   5  -8    2.81    0.26
   9   5   9    0.11    0.11
  -9  -5  -9   -0.01    0.07
  -9   5  -9    0.10    0.11
   9   5  10    0.48    0.15
  -9   5 -10    0.47    0.13
  -9  -5 -10    0.46    0.11
  -9  -5 -11    0.09    0.09
   9   5  11    0.24    0.12
  -9   5 -11    0.20    0.13
  -9  -5 -12    7.06    0.38
  -9   5 -12    7.59    0.44
  -9  -5 -13    0.29    0.12
  -9   5 -13    0.33    0.14
  -9   5 -14    0.45    0.12
  -9  -5 -14    0.16    0.09
  -9   5 -15    0.00    0.10
   9   6 -21    1.50    0.26
   9   6 -20    0.19    0.13
   9   6 -20    0.14    0.14
   9   6 -19    0.01    0.10
   9   6 -19   -0.13    0.14
   9  -6 -18    1.88    0.27
   9   6 -18    1.12    0.23
   9  -6 -17    0.53    0.16
   9   6 -17    0.86    0.18
   9  -6 -16    0.11    0.10
   9   6 -16    0.13    0.14
   9   6 -15    4.74    0.40
   9  -6 -15    5.54    0.41
   9  -6 -14    0.62    0.17
   9   6 -14    0.91    0.20
   9   6 -13    2.36    0.29
   9   6 -12   -0.17    0.14
   9   6 -11    0.05    0.11
   9   6 -10    0.30    0.14
   9   6  -9    4.05    0.36
   9   6  -8    4.88    0.39
   9   6  -7    6.26    0.44
   9   6  -6    3.12    0.31
   9   6  -5    0.04    0.11
   9   6  -4    0.59    0.16
   9   6  -3    1.76    0.23
   9   6  -2   -0.12    0.12
   9   6  -1   -0.07    0.09
   9   6   0    0.84    0.18
   9   6   1    1.72    0.24
   9   6   2   -0.02    0.10
   9   6   3    3.68    0.33
   9   6   4    0.92    0.19
   9   6   5    0.74    0.16
   9   6   6    2.36    0.27
   9   6   7    1.62    0.22
   9   6   8    0.37    0.14
  -9   6  -8    0.58    0.14
   9   6   9    5.58    0.39
  -9   6  -9    5.11    0.35
   9   6  10    0.87    0.17
  -9   6 -10    0.67    0.15
  -9   6 -11    4.46    0.34
  -9   6 -12    0.58    0.17
  -9   6 -13    0.09    0.09
  -9   6 -14    0.19    0.10
   9   7 -19    1.15    0.22
   9   7 -18    4.04    0.40
   9  -7 -18    3.73    0.37
   9  -7 -17    0.02    0.11
   9   7 -17   -0.20    0.15
   9  -7 -16    0.31    0.17
   9   7 -16   -0.22    0.15
   9  -7 -15    0.57    0.18
   9   7 -15    0.19    0.12
   9   7 -14    3.21    0.35
   9  -7 -14    3.39    0.33
   9   7 -13    6.92    0.49
   9  -7 -13    6.35    0.44
   9   7 -12    5.47    0.43
   9   7 -11    5.02    0.41
   9   7 -10    4.66    0.40
   9   7  -9    0.13    0.11
   9   7  -8    0.20    0.13
   9   7  -7    0.50    0.15
   9   7  -6    3.41    0.34
   9   7  -5    1.36    0.23
   9   7  -4   -0.01    0.11
   9   7  -3   -0.09    0.11
   9   7  -2    3.82    0.35
   9   7  -1    0.13    0.12
   9   7   0    2.75    0.29
   9   7   1    0.52    0.15
   9   7   2    0.14    0.12
   9   7   3    1.31    0.20
   9   7   4    1.44    0.22
   9   7   5    0.34    0.13
   9   7   6    1.33    0.21
   9   7   7    0.17    0.11
   9   7   8    1.54    0.22
   9   7   9    0.27    0.13
  -9   7  -9    0.55    0.14
   9   7  10    0.82    0.17
  -9   7 -10    1.05    0.19
  -9   7 -11    1.78    0.24
  -9   7 -12    3.03    0.29
  -9   7 -13    2.49    0.27
   9  -8 -17    0.84    0.20
   9   8 -17    1.08    0.24
   9  -8 -16    0.46    0.18
   9   8 -16    0.73    0.21
   9   8 -15    9.65    0.60
   9  -8 -15   10.88    0.59
   9   8 -14    2.83    0.34
   9  -8 -14    2.92    0.32
   9   8 -13    4.50    0.41
   9  -8 -13    4.37    0.37
   9  -8 -12    0.10    0.11
   9   8 -12    0.54    0.17
   9   8 -11    0.57    0.18
   9   8 -10    0.32    0.13
   9   8  -9    4.14    0.38
   9   8  -8    0.30    0.15
   9   8  -7    5.30    0.42
   9   8  -6    1.80    0.25
   9   8  -5    0.14    0.11
   9   8  -4   -0.21    0.15
   9   8  -3   -0.01    0.12
   9   8  -2    0.06    0.11
   9   8  -1   -0.26    0.16
   9   8   0   -0.13    0.15
   9   8   1    0.67    0.15
   9   8   2    0.56    0.14
   9   8   3   -0.21    0.14
   9   8   4    1.81    0.25
   9   8   5    0.18    0.11
   9   8   6    0.18    0.11
   9   8   7    1.96    0.25
   9   8   8    1.60    0.24
   9   8   9    5.83    0.41
  -9   8  -9    5.27    0.37
  -9   8 -10    0.67    0.18
  -9   8 -11    2.24    0.26
   9  -9 -15    1.13    0.22
   9  -9 -14    2.72    0.31
   9   9 -14    2.90    0.33
   9  -9 -13    0.65    0.18
   9   9 -13    0.45    0.17
   9   9 -12    2.93    0.34
   9  -9 -12    3.40    0.33
   9  -9 -11    2.25    0.27
   9   9 -11    2.01    0.29
   9  -9 -10    1.18    0.20
   9   9 -10    1.26    0.22
   9   9  -9    0.08    0.12
   9   9  -8    0.28    0.12
   9   9  -7    1.00    0.21
   9   9  -6    0.67    0.18
   9   9  -5    2.49    0.31
   9   9  -4    3.45    0.34
   9   9  -3    0.80    0.20
   9   9  -2    0.59    0.16
   9   9  -1   -0.19    0.13
   9   9   0   -0.05    0.11
   9   9   1    1.42    0.23
   9   9   2   -0.15    0.14
   9   9   3   -0.14    0.13
   9   9   4    0.17    0.12
   9   9   5    2.04    0.26
   9   9   6    0.19    0.10
   9   9   7    2.29    0.28
   9   9   8   -0.11    0.12
   9   9   9   -0.04    0.12
  -9   9  -9   -0.14    0.11
  -9   9 -10    1.68    0.23
   9 -10 -14    1.44    0.24
   9 -10 -13    1.26    0.22
   9 -10 -12    0.32    0.15
   9  10 -12    0.27    0.15
   9 -10 -11    0.25    0.12
   9  10 -11    0.02    0.11
   9 -10 -10    1.25    0.21
   9  10 -10    1.37    0.23
   9 -10  -9    0.43    0.16
   9  10  -9    0.19    0.13
   9  10  -8    4.02    0.38
   9  10  -7    0.83    0.20
   9  10  -6    0.07    0.12
   9  10  -5    3.94    0.37
   9  10  -4    0.18    0.13
   9  10  -3    0.11    0.11
   9  10  -2    0.60    0.18
   9  10  -1    0.30    0.14
   9  10   0    0.08    0.11
   9  10   1    0.47    0.17
   9  10   2   -0.04    0.11
   9  10   3   -0.21    0.13
   9  10   4    1.30    0.23
   9  10   5    0.31    0.16
   9  10   6   -0.02    0.11
   9  10   7    0.30    0.12
   9  10   8    1.16    0.21
   9 -11 -13    0.59    0.18
   9 -11 -12    0.82    0.19
   9 -11 -11    0.48    0.15
   9 -11 -10    0.70    0.17
   9 -11  -9    0.17    0.12
   9 -11  -8    0.35    0.14
   9  11  -8    0.25    0.16
   9  11  -7    3.41    0.36
   9 -11  -7    3.48    0.33
   9  11  -6    3.81    0.38
   9  11  -5    0.72    0.19
   9  11  -4    0.44    0.14
   9  11  -3    1.94    0.27
   9  11  -2    1.05    0.22
   9  11  -1    0.44    0.16
   9  11   0    0.06    0.11
   9  11   1    0.23    0.13
   9  11   2    2.18    0.29
   9  11   3    2.81    0.34
   9  11   4    3.66    0.37
   9  11   5    6.10    0.46
   9  11   6    2.40    0.30
   9  11   7    0.67    0.19
   9 -12 -12    0.13    0.13
   9 -12 -11   -0.05    0.12
   9 -12 -10    0.96    0.19
   9 -12  -9    0.14    0.11
   9 -12  -8    3.24    0.32
   9 -12  -7   -0.08    0.11
   9 -12  -6    0.26    0.15
   9 -12  -5    4.72    0.37
   9  12  -4    0.96    0.22
   9  12  -3    0.04    0.12
   9  12  -2    0.08    0.12
   9  12  -1    2.58    0.31
   9  12   0    0.64    0.19
   9  12   1    4.91    0.42
   9  12   2    1.72    0.27
   9  12   3    1.44    0.25
   9  12   4    1.14    0.23
   9  12   5   -0.20    0.15
   9  12   6    0.15    0.13
   9 -13 -10    0.53    0.17
   9 -13  -9    0.88    0.19
   9 -13  -8    0.66    0.17
   9 -13  -7    0.29    0.15
   9 -13  -6   -0.01    0.11
   9  13   1    0.59    0.20
   9  13   2    0.89    0.20
   9  13   3   -0.20    0.14
   9  13   4    0.98    0.24
   9  13   5    0.76    0.22
   9  13   6    0.44    0.17
  10   0 -22    1.06    0.23
  10   0 -21    0.17    0.14
  10   0 -20    1.09    0.21
  10   0 -19   -0.08    0.12
  10   0 -19    0.04    0.13
  10   0 -18    2.39    0.29
  10   0 -17    0.03    0.11
  10   0 -16    1.46    0.24
  10   0 -15    0.05    0.11
  10   0 -14    0.14    0.13
  10   0 -13    0.29    0.16
  10   0 -12    2.58    0.31
  10   0 -11    0.78    0.22
  10   0 -10   28.85    0.95
  10   0  -9    0.47    0.19
  10   0  -8   16.79    0.72
  10   0  -7    0.13    0.17
  10   0  -6    3.67    0.35
  10   0  -5    0.16    0.15
  10   0  -4   12.08    0.60
  10   0  -3    0.11    0.11
  10   0  -2    0.21    0.12
  10   0  -1   -0.06    0.12
  10   0   0    0.08    0.11
  10   0   1    0.19    0.13
  10   0   2    0.07    0.12
  10   0   3    0.20    0.13
  10   0   4    0.21    0.12
 -10   0  -4    0.34    0.12
 -10   0  -5    0.20    0.09
 -10   0  -6    0.89    0.14
 -10   0  -7   -0.04    0.09
 -10   0  -8    0.02    0.09
 -10   0  -9   -0.06    0.09
 -10   0 -10    1.58    0.20
 -10   0 -11    0.13    0.11
 -10   0 -12    2.92    0.27
 -10   0 -13    0.29    0.14
 -10   0 -14    3.76    0.33
 -10   0 -15    0.25    0.12
  10  -1 -22    0.05    0.12
  10  -1 -21    0.54    0.18
  10   1 -21    0.66    0.19
  10  -1 -20    0.80    0.19
  10   1 -20    0.31    0.12
  10   1 -20    0.66    0.19
  10   1 -19    0.15    0.12
  10  -1 -19    0.39    0.18
  10  -1 -19    0.05    0.11
  10   1 -19    0.40    0.18
  10  -1 -18    0.36    0.13
  10  -1 -18    0.59    0.18
  10   1 -18    0.64    0.18
  10  -1 -17    0.27    0.14
  10   1 -17    0.00    0.10
  10  -1 -16    0.85    0.19
  10   1 -16    1.07    0.22
  10  -1 -15    0.88    0.20
  10   1 -15    1.05    0.20
  10  -1 -14    0.09    0.13
  10   1 -14    0.02    0.11
  10  -1 -13    5.04    0.41
  10   1 -13    5.07    0.42
  10  -1 -12    1.96    0.27
  10   1 -12    1.82    0.26
  10  -1 -11    5.02    0.41
  10   1 -11    4.96    0.41
  10  -1 -10    1.28    0.23
  10   1 -10    1.24    0.24
  10  -1  -9    2.26    0.28
  10   1  -9    2.55    0.30
  10  -1  -8    0.01    0.12
  10   1  -8    0.32    0.16
  10  -1  -7    9.48    0.54
  10   1  -7    8.74    0.53
  10  -1  -6    0.84    0.19
  10   1  -6    1.05    0.21
  10  -1  -5    0.41    0.16
  10   1  -5    0.85    0.19
  10  -1  -4    0.28    0.14
  10   1  -4    0.33    0.15
  10  -1  -3    0.62    0.17
  10   1  -3    0.74    0.18
  10  -1  -2    0.59    0.17
  10   1  -2    0.44    0.15
  10  -1  -1    3.64    0.33
  10   1  -1    3.17    0.32
  10  -1   0    0.73    0.16
  10   1   0    0.78    0.20
  10  -1   1    3.08    0.31
  10   1   1    3.13    0.32
  10   1   2    1.26    0.22
  10   1   3    0.22    0.14
 -10  -1  -3    0.10    0.06
  10   1   4    0.14    0.11
 -10  -1  -4    0.10    0.07
  10   1   5    0.31    0.14
 -10   1  -5    0.17    0.09
 -10  -1  -5    0.07    0.08
  10   1   6    0.14    0.12
 -10   1  -6    0.32    0.12
 -10  -1  -6    0.16    0.08
 -10   1  -7    0.03    0.08
 -10  -1  -7    0.08    0.08
 -10   1  -8    0.00    0.08
 -10  -1  -8   -0.12    0.09
 -10  -1  -9    0.21    0.10
 -10   1  -9    0.00    0.07
 -10  -1 -10    0.22    0.09
 -10   1 -10    0.27    0.11
 -10   1 -11    0.22    0.10
 -10  -1 -11    0.44    0.13
 -10   1 -12    0.36    0.14
 -10  -1 -12    0.45    0.13
 -10   1 -13    0.64    0.16
 -10  -1 -13    0.66    0.16
 -10   1 -14    0.11    0.09
 -10  -1 -14    0.09    0.10
 -10  -1 -15    0.91    0.17
 -10   1 -15    0.88    0.18
 -10  -1 -16    0.47    0.16
  10  -2 -22   -0.07    0.13
  10  -2 -21    0.33    0.20
  10   2 -21   -0.09    0.13
  10  -2 -20    1.33    0.24
  10   2 -20    0.76    0.17
  10   2 -20    1.28    0.25
  10   2 -19   -0.23    0.13
  10  -2 -19    0.18    0.14
  10   2 -19   -0.07    0.12
  10  -2 -18    0.38    0.14
  10  -2 -18    0.48    0.15
  10   2 -18    0.42    0.16
  10  -2 -17    0.48    0.15
  10   2 -17    0.60    0.19
  10  -2 -16    0.36    0.16
  10   2 -16    0.29    0.14
  10  -2 -15    1.01    0.20
  10   2 -15    1.01    0.21
  10  -2 -14   -0.04    0.10
  10   2 -14   -0.05    0.11
  10  -2 -13    0.32    0.14
  10   2 -13    0.14    0.11
  10  -2 -12    1.53    0.24
  10   2 -12    1.52    0.24
  10  -2 -11    0.42    0.14
  10   2 -11    0.61    0.16
  10  -2 -10    5.05    0.40
  10   2 -10    5.13    0.41
  10  -2  -9    0.75    0.18
  10   2  -9    0.71    0.17
  10  -2  -8    4.41    0.38
  10   2  -8    4.70    0.39
  10  -2  -7    0.60    0.18
  10   2  -7    0.75    0.19
  10  -2  -6    0.46    0.18
  10   2  -6    0.20    0.14
  10  -2  -5    2.59    0.29
  10   2  -5    3.02    0.32
  10  -2  -4    5.36    0.41
  10   2  -4    5.80    0.43
  10  -2  -3    0.72    0.17
  10   2  -3    1.07    0.22
  10   2  -2    1.71    0.24
  10   2  -1    2.51    0.29
  10   2   0    0.92    0.20
  10   2   1    7.91    0.49
  10   2   2    1.46    0.24
 -10  -2  -2    1.16    0.15
  10   2   3    0.43    0.16
 -10  -2  -3    0.54    0.12
  10   2   4    2.52    0.29
 -10  -2  -4    2.60    0.22
  10   2   5    0.21    0.13
 -10  -2  -5    0.18    0.09
  10   2   6    1.79    0.24
 -10   2  -6    1.69    0.21
 -10  -2  -6    1.99    0.20
  10   2   7    0.28    0.15
 -10   2  -7    0.35    0.11
 -10  -2  -7    0.42    0.11
  10   2   8    2.08    0.26
 -10  -2  -8    1.57    0.19
 -10   2  -8    1.83    0.22
 -10  -2  -9    0.18    0.10
 -10   2  -9    0.14    0.09
 -10  -2 -10    0.04    0.09
 -10   2 -10   -0.07    0.10
 -10  -2 -11    0.20    0.11
 -10   2 -11    0.04    0.10
 -10   2 -12    1.18    0.19
 -10  -2 -12    0.92    0.17
 -10  -2 -13    0.07    0.11
 -10   2 -13    0.37    0.13
 -10  -2 -14    2.78    0.28
 -10   2 -14    3.00    0.30
 -10  -2 -15    1.19    0.20
 -10  -2 -16    0.99    0.19
  10   3 -20    0.24    0.15
  10   3 -20    0.14    0.13
  10   3 -19    0.13    0.11
  10   3 -19    0.10    0.12
  10   3 -18    0.69    0.21
  10  -3 -17    0.51    0.15
  10   3 -17    1.01    0.22
  10   3 -16    3.67    0.37
  10   3 -15    3.04    0.34
  10   3 -14    0.46    0.16
  10   3 -13    0.93    0.20
  10   3 -12    4.54    0.40
  10   3 -11    0.12    0.13
  10   3 -10    1.25    0.22
  10   3  -9    0.31    0.14
  10   3  -8    1.35    0.23
  10   3  -7    4.13    0.37
  10   3  -6    0.77    0.19
  10   3  -5    1.49    0.23
  10   3  -4    0.05    0.11
  10   3  -3    0.01    0.12
  10   3  -2    4.59    0.38
  10   3  -1    0.13    0.11
  10   3   0    1.96    0.27
  10   3   1    0.74    0.17
 -10  -3  -1    0.82    0.12
  10   3   2    0.38    0.15
 -10  -3  -2    0.47    0.11
  10   3   3    0.58    0.16
 -10  -3  -3    0.58    0.11
  10   3   4    1.52    0.23
 -10  -3  -4    1.14    0.15
  10   3   5   -0.04    0.11
 -10  -3  -5    0.02    0.07
 -10  -3  -6    0.38    0.11
  10   3   6    0.43    0.15
 -10   3  -6    0.67    0.14
  10   3   7    1.50    0.23
 -10  -3  -7    1.10    0.16
 -10   3  -7    1.12    0.17
  10   3   8    2.04    0.27
 -10  -3  -8    1.61    0.19
 -10   3  -8    1.86    0.23
  10   3   9    6.03    0.42
 -10   3  -9    5.33    0.36
 -10  -3  -9    5.77    0.34
  10   3  10    0.05    0.11
 -10  -3 -10    0.06    0.09
 -10   3 -10    0.27    0.13
 -10   3 -11    1.45    0.21
 -10  -3 -11    1.04    0.17
 -10   3 -12    1.79    0.23
 -10  -3 -12    1.78    0.22
 -10   3 -13    0.25    0.12
 -10  -3 -13   -0.09    0.11
 -10  -3 -14    1.39    0.20
 -10  -3 -15    0.27    0.12
 -10  -3 -16    0.68    0.18
  10   4 -21    0.06    0.12
  10   4 -20    2.00    0.27
  10   4 -19    0.25    0.12
  10   4 -18    5.08    0.44
  10  -4 -17    0.56    0.20
  10   4 -17    0.17    0.14
  10  -4 -16    3.11    0.33
  10   4 -16    2.66    0.32
  10   4 -15    1.70    0.27
  10   4 -14    0.48    0.18
  10   4 -13   -0.20    0.14
  10   4 -12    2.99    0.33
  10   4 -11    1.69    0.27
  10   4 -10    0.09    0.11
  10   4  -9    0.65    0.18
  10   4  -8    0.32    0.12
  10   4  -7    0.74    0.18
  10   4  -6    0.16    0.13
  10   4  -5    0.11    0.12
  10   4  -4    1.23    0.22
  10   4  -3    3.32    0.34
  10   4  -2    2.17    0.28
  10   4  -1    0.01    0.12
 -10  -4   1    0.08    0.07
  10   4   0    0.17    0.12
 -10  -4   0    0.40    0.09
  10   4   1    2.98    0.31
 -10  -4  -1    2.68    0.20
  10   4   2    0.66    0.18
 -10  -4  -2    0.53    0.10
  10   4   3    0.11    0.11
 -10  -4  -3    0.05    0.07
  10   4   4    3.93    0.35
 -10  -4  -4    4.27    0.26
 -10  -4  -5    0.10    0.08
  10   4   5    0.08    0.12
  10   4   6    4.47    0.37
 -10  -4  -6    3.89    0.26
  10   4   7    0.06    0.14
 -10   4  -7    0.26    0.12
 -10  -4  -7    0.11    0.08
  10   4   8    2.28    0.27
 -10   4  -8    2.30    0.24
 -10  -4  -8    2.08    0.21
 -10  -4  -9    2.30    0.22
  10   4   9    2.75    0.29
 -10   4  -9    2.10    0.24
 -10  -4 -10    0.38    0.11
  10   4  10    0.73    0.18
 -10   4 -10    0.75    0.16
 -10  -4 -11    0.65    0.15
 -10   4 -11    1.01    0.19
 -10  -4 -12    3.09    0.28
 -10   4 -12    3.44    0.32
 -10  -4 -13    0.99    0.17
 -10  -4 -14    1.18    0.19
 -10  -4 -15    1.35    0.21
 -10  -4 -16    0.40    0.15
  10   5 -21    0.74    0.19
  10   5 -20    0.05    0.12
  10   5 -19    0.15    0.12
  10   5 -17    0.40    0.18
  10  -5 -16   -0.04    0.11
  10   5 -16    0.07    0.15
  10   5 -15    2.70    0.33
  10   5 -14    1.56    0.26
  10   5 -13    0.32    0.16
  10   5 -12    1.28    0.24
  10   5 -11    0.14    0.13
  10   5 -10    0.03    0.11
  10   5  -9    0.82    0.20
  10   5  -8    0.73    0.18
  10   5  -7    0.34    0.15
  10   5  -6    0.75    0.18
  10   5  -5    1.03    0.20
  10   5  -4    1.58    0.25
  10   5  -3    1.42    0.23
  10   5  -2    0.52    0.16
  10   5  -1    0.27    0.13
  10   5   0    0.16    0.13
  10   5   1    2.72    0.31
  10   5   2    0.21    0.14
  10   5   3    5.91    0.43
  10   5   4    0.11    0.13
  10   5   5    0.17    0.11
  10   5   6   -0.02    0.10
  10   5   7    0.55    0.16
 -10   5  -7    0.30    0.12
  10   5   8    0.51    0.16
 -10   5  -8    0.59    0.15
  10   5   9    3.33    0.33
 -10   5  -9    3.37    0.30
  10   5  10    0.34    0.15
 -10   5 -10    0.34    0.14
 -10   5 -11    1.47    0.22
  10   6 -19    0.55    0.17
  10  -6 -15    0.63    0.19
  10   6 -15    0.65    0.17
  10   6 -14    1.33    0.23
  10   6 -13    1.71    0.26
  10   6 -12    0.20    0.14
  10   6 -11    2.71    0.31
  10   6 -10    0.87    0.20
  10   6  -9    0.03    0.12
  10   6  -8    0.17    0.13
  10   6  -7    0.77    0.19
  10   6  -6    0.38    0.15
  10   6  -5   -0.19    0.13
  10   6  -4    0.25    0.14
  10   6  -3    3.50    0.35
  10   6  -2    3.37    0.35
  10   6  -1    0.17    0.15
  10   6   0    2.73    0.31
  10   6   1    0.14    0.11
  10   6   2   -0.06    0.11
  10   6   3    0.59    0.18
  10   6   4    5.99    0.44
  10   6   5    0.12    0.14
  10   6   6    3.35    0.34
  10   6   7   -0.04    0.12
  10   6   8   -0.06    0.11
 -10   6  -8    0.08    0.10
  10   6   9    0.29    0.15
 -10   6  -9    0.22    0.12
 -10   6 -10    0.43    0.14
  10  -7 -14   -0.13    0.13
  10   7 -13    0.63    0.17
  10   7 -12    0.06    0.12
  10   7 -11    0.44    0.16
  10   7 -10    0.24    0.13
  10   7  -9    0.35    0.15
  10   7  -8    0.41    0.16
  10   7  -7   -0.08    0.13
  10   7  -6    0.23    0.14
  10   7  -5   -0.11    0.13
  10   7  -4    0.82    0.20
  10   7  -3    0.92    0.19
  10   7  -2   -0.05    0.14
  10   7  -1    0.11    0.14
  10   7   0    0.76    0.19
  10   7   1   10.61    0.59
  10   7   2    1.18    0.24
  10   7   3    5.53    0.43
  10   7   4    0.31    0.13
  10   7   5    0.50    0.16
  10   7   6    0.01    0.11
  10   7   7    4.73    0.40
  10   7   8    1.15    0.22
 -10   7  -8    1.13    0.20
  10   7   9    2.90    0.31
  10  -8 -13    0.07    0.14
  10  -8 -12    0.49    0.15
  10   8 -11    1.70    0.27
  10   8 -10    0.04    0.13
  10   8  -9   -0.18    0.15
  10   8  -8    0.23    0.11
  10   8  -7    1.24    0.23
  10   8  -6   -0.12    0.13
  10   8  -5    0.60    0.19
  10   8  -4    1.23    0.23
  10   8  -3    0.15    0.11
  10   8  -2    2.51    0.32
  10   8  -1    0.21    0.12
  10   8   0    2.11    0.28
  10   8   1    0.88    0.21
  10   8   2    0.71    0.17
  10   8   3   -0.06    0.11
  10   8   4    1.26    0.23
  10   8   5    1.22    0.23
  10   8   6    0.82    0.20
  10   8   7    1.65    0.25
  10   8   8    0.03    0.13
  10  -9 -12   -0.08    0.13
  10  -9 -11    0.27    0.11
  10   9  -8    0.17    0.13
  10   9  -7    4.62    0.43
  10   9  -6    5.03    0.44
  10   9  -5    4.18    0.41
  10   9  -4    1.44    0.26
  10   9  -3    0.59    0.17
  10   9  -2    0.25    0.13
  10   9  -1   -0.14    0.14
  10   9   0    0.08    0.12
  10   9   1    2.40    0.31
  10   9   2    0.33    0.13
  10   9   3    0.08    0.12
  10   9   4    0.51    0.18
  10   9   5    0.29    0.16
  10   9   6    0.04    0.12
  10   9   7    0.35    0.18
  10 -10 -10    0.73    0.18
  10  10  -5    2.14    0.30
  10  10  -4    0.97    0.22
  10  10  -3    1.74    0.28
  10  10  -2    1.10    0.23
  10  10  -1    2.60    0.33
  10  10   0    0.51    0.17
  10  10   1    0.07    0.12
  10  10   2    0.03    0.14
  10  10   3    0.63    0.18
  10  10   4    0.45    0.18
  10  10   5    3.83    0.38
  10  10   6    0.45    0.17
  10  10   7    1.12    0.22
  10 -11  -9   -0.15    0.14
  10 -11  -8    0.22    0.14
  10  11   0    0.82    0.19
  10  11   1    2.31    0.31
  10  11   2    2.63    0.33
  10  11   3    1.42    0.26
  10  11   4    0.11    0.13
  10  11   5    0.37    0.17
  10  11   6    1.70    0.27
  10 -12  -7   -0.07    0.11
  10 -12  -6    0.13    0.13
  11   0 -15    1.68    0.27
  11   0 -14   -0.09    0.14
  11   0 -13    4.93    0.44
  11   0 -12    0.20    0.15
  11   0 -11    1.90    0.27
  11   0 -10    0.29    0.17
  11   0  -9    2.81    0.34
  11   0  -8    0.16    0.15
  11   0  -7    9.13    0.57
  11   0  -6    0.13    0.14
  11   0  -5    0.07    0.13
  11   0  -4    0.08    0.12
  11   0  -3    0.65    0.18
  11   0  -2    0.21    0.12
  11   0  -1    0.44    0.17
  11   0   0    0.13    0.12
  11   0   1    0.10    0.14
  11   0   2   -0.08    0.13
 -11   0  -3    2.82    0.24
 -11   0  -4    0.16    0.11
 -11   0  -5    3.06    0.26
 -11   0  -6    0.19    0.11
 -11   0  -7    0.01    0.09
 -11   0  -8   -0.03    0.10
 -11   0  -9    4.14    0.32
 -11   0 -10    0.21    0.12
 -11   0 -11    3.71    0.32
 -11   0 -12   -0.09    0.11
  11  -1 -15    0.33    0.18
  11  -1 -14    0.28    0.17
  11   1 -14   -0.02    0.12
  11  -1 -13    2.03    0.30
  11   1 -13    1.66    0.28
  11  -1 -12    3.97    0.39
  11   1 -12    3.95    0.40
  11  -1 -11    1.30    0.26
  11   1 -11    0.95    0.22
  11  -1 -10    9.25    0.57
  11   1 -10    9.42    0.58
  11  -1  -9    0.42    0.19
  11   1  -9    0.92    0.24
  11   1  -8    4.01    0.39
  11  -1  -8    3.05    0.34
  11  -1  -7    0.29    0.15
  11   1  -7    0.41    0.17
  11  -1  -6    0.24    0.15
  11   1  -6    0.40    0.17
  11  -1  -5    0.02    0.12
  11   1  -5    0.23    0.15
  11  -1  -4    0.47    0.17
  11   1  -4    0.61    0.18
  11  -1  -3    0.88    0.20
  11   1  -3    0.69    0.19
  11  -1  -2    0.85    0.19
  11   1  -2    0.76    0.18
  11  -1  -1   -0.01    0.12
  11   1  -1    0.10    0.12
  11   1   0    0.12    0.12
  11   1   1    0.10    0.13
  11   1   2    0.25    0.13
 -11  -1  -2    0.39    0.11
  11   1   3   -0.10    0.11
 -11  -1  -3    0.20    0.09
  11   1   4    0.72    0.20
 -11   1  -4    0.79    0.16
 -11  -1  -4    0.86    0.15
  11   1   5    0.31    0.17
 -11   1  -5    0.19    0.11
 -11  -1  -5    0.21    0.11
 -11   1  -6    4.13    0.31
 -11  -1  -6    4.43    0.32
 -11   1  -7    0.06    0.10
 -11  -1  -7    0.37    0.13
 -11   1  -8    2.36    0.26
 -11  -1  -8    2.81    0.26
 -11  -1  -9    0.69    0.16
 -11   1  -9    0.47    0.14
 -11   1 -10    0.00    0.09
 -11  -1 -10    0.21    0.12
 -11   1 -11    0.44    0.14
 -11  -1 -11    0.44    0.14
 -11  -1 -12    2.34    0.26
 -11  -1 -13    0.15    0.12
  11  -2 -15    3.72    0.38
  11  -2 -14    0.12    0.13
  11   2 -14    0.14    0.16
  11  -2 -13    1.55    0.25
  11   2 -13    2.26    0.31
  11  -2 -12   -0.13    0.13
  11   2 -12    0.12    0.12
  11  -2 -11    0.24    0.14
  11   2 -11    0.25    0.15
  11  -2 -10    0.19    0.15
  11   2 -10    0.20    0.16
  11  -2  -9    0.00    0.13
  11   2  -9    0.29    0.18
  11  -2  -8    0.24    0.12
  11   2  -8    0.02    0.11
  11  -2  -7    1.13    0.22
  11   2  -7    1.08    0.23
  11  -2  -6    0.35    0.17
  11   2  -6    0.08    0.14
  11   2  -5    0.27    0.14
  11   2  -4    0.23    0.16
  11   2  -3    0.38    0.17
  11   2  -2    0.30    0.15
  11   2  -1    0.80    0.20
  11   2   0    0.03    0.14
  11   2   1    1.12    0.24
 -11  -2  -1    0.89    0.13
  11   2   2   -0.09    0.13
 -11  -2  -2    0.09    0.08
  11   2   3    1.13    0.22
 -11  -2  -3    1.03    0.15
  11   2   4    0.32    0.15
 -11  -2  -4    0.51    0.12
  11   2   5    0.67    0.17
 -11   2  -5    0.95    0.17
 -11  -2  -5    0.90    0.15
  11   2   6    2.08    0.29
 -11   2  -6    2.01    0.23
 -11  -2  -6    1.99    0.21
 -11  -2  -7    0.19    0.12
  11   2   7    0.22    0.13
 -11   2  -7    0.12    0.11
 -11  -2  -8   -0.06    0.09
 -11   2  -8    0.06    0.09
 -11  -2  -9    1.46    0.20
 -11   2  -9    1.20    0.18
 -11  -2 -10    0.41    0.13
 -11   2 -10    0.19    0.10
 -11  -2 -11    1.27    0.20
 -11  -2 -12    0.14    0.13
 -11  -2 -13   -0.05    0.10
  11   3 -13    0.08    0.15
  11   3 -12    0.52    0.18
  11   3 -11    0.32    0.14
  11   3 -10    0.76    0.19
  11   3  -9   -0.01    0.11
  11   3  -8    0.39    0.17
  11   3  -7    0.90    0.20
  11   3  -6    0.88    0.20
  11   3  -5    0.08    0.14
  11   3  -4    0.91    0.20
  11   3  -3    0.00    0.11
  11   3  -2    0.26    0.15
  11   3  -1    0.34    0.16
  11   3   0    1.38    0.24
  11   3   1    0.13    0.13
  11   3   2    0.11    0.13
  11   3   3   -0.13    0.14
  11   3   4    1.66    0.26
  11   3   5    0.35    0.16
  11   3   6    4.24    0.39
 -11   3  -6    4.20    0.33
  11   3   7    1.85    0.28
 -11  -3  -7    2.02    0.22
 -11   3  -7    1.84    0.22
  11   3   8    2.52    0.31
 -11  -3  -8    2.35    0.24
 -11   3  -8    2.57    0.27
  11   3   9    1.05    0.22
 -11   3  -9    0.52    0.15
  11   4 -11    0.08    0.12
  11   4 -10    1.43    0.26
  11   4  -9    0.73    0.20
  11   4  -8    3.20    0.36
  11   4  -7    3.00    0.35
  11   4  -6    0.35    0.19
  11   4  -5    3.77    0.39
  11   4  -4   -0.06    0.12
  11   4  -3    0.21    0.16
  11   4  -2    0.73    0.19
  11   4  -1   -0.35    0.17
  11   4   0    0.32    0.16
  11   4   1    1.83    0.27
  11   4   2   -0.11    0.11
  11   4   3    0.63    0.19
  11   4   4    1.27    0.24
  11   4   5   -0.18    0.15
  11   4   6    2.32    0.30
 -11   4  -6    2.26    0.26
  11   4   7    0.81    0.20
 -11   4  -7    1.08    0.19
  11   4   8    0.06    0.15
 -11   4  -8    0.20    0.12
  11   4   9    1.54    0.25
  11   5 -10    1.14    0.24
  11   5  -9    0.19    0.14
  11   5  -8    1.01    0.22
  11   5  -7    3.17    0.36
  11   5  -6    0.28    0.15
  11   5  -5    0.90    0.22
  11   5  -4    2.74    0.34
  11   5  -3    0.33    0.16
  11   5  -2    4.04    0.40
  11   5  -1    2.32    0.31
  11   5   0    2.54    0.32
  11   5   1    0.12    0.13
  11   5   2    1.49    0.26
  11   5   3    0.46    0.18
  11   5   4    2.01    0.29
  11   5   5    0.05    0.12
  11   5   6    0.84    0.20
  11   5   7   -0.08    0.13
  11   5   8   -0.12    0.16
  11   5   9    0.30    0.17
  11   6  -8    0.18    0.15
  11   6  -7    1.81    0.29
  11   6  -6    0.66    0.21
  11   6  -5    5.73    0.47
  11   6  -4    0.14    0.14
  11   6  -3    0.39    0.16
  11   6  -2    0.07    0.12
  11   6  -1    0.43    0.19
  11   6   0    1.41    0.26
  11   6   1    3.92    0.39
  11   6   2    1.70    0.28
  11   6   3    4.06    0.40
  11   6   4    0.32    0.17
  11   6   5    0.60    0.18
  11   6   6   -0.06    0.13
  11   6   7    1.08    0.22
  11   6   8    0.15    0.13
  11   7  -5    0.08    0.15
  11   7  -4    1.70    0.28
  11   7  -3    1.01    0.22
  11   7  -2    4.85    0.44
  11   7  -1    0.12    0.13
  11   7   0    2.78    0.33
  11   7   1    0.22    0.16
  11   7   2    0.16    0.16
  11   7   3    0.33    0.16
  11   7   4    3.79    0.39
  11   7   5    0.11    0.13
  11   7   6    0.07    0.13
  11   7   7    0.56    0.18
  11   8  -2    0.12    0.16
  11   8  -1    0.50    0.18
  11   8   0    1.72    0.29
  11   8   1    3.09    0.36
  11   8   2    1.25    0.23
  11   8   3    1.02    0.22
  11   8   4    1.09    0.23
  11   8   5    1.60    0.28
  11   8   6    1.02    0.22
  11   8   7    0.11    0.13
  11   9   3   -0.10    0.13
  11   9   4    1.07    0.24
  11   9   5    1.23    0.24
  11   9   6    0.21    0.19
  12   0  -3   -0.11    0.12
  12   0  -2    2.23    0.31
  12   0  -1    0.52    0.20
  12   0   0    6.86    0.52
 -12   0  -2    3.07    0.28
 -12   0  -3    0.14    0.11
 -12   0  -4    0.17    0.10
 -12   0  -5    0.06    0.11
 -12   0  -6    3.69    0.31
 -12   0  -7    0.26    0.14
 -12   0  -8    0.83    0.17
  12   1  -3    0.85    0.20
  12   1  -2    0.43    0.18
  12   1  -1   -0.02    0.15
  12   1   0    0.19    0.15
  12   1   1    1.65    0.28
 -12  -1  -1    1.69    0.20
  12   1   2    0.47    0.21
 -12  -1  -2    0.52    0.14
  12   1   3    7.01    0.52
 -12   1  -3    6.16    0.39
 -12  -1  -3    6.49    0.38
 -12   1  -4    0.21    0.13
 -12  -1  -4    0.14    0.11
 -12   1  -5    2.72    0.27
 -12  -1  -5    3.17    0.28
 -12   1  -6    0.18    0.12
 -12  -1  -6    0.00    0.10
 -12   1  -7    0.05    0.10
 -12  -1  -7    0.04    0.10
 -12  -1  -8    0.51    0.15
 -12  -1  -9    0.68    0.16
  12   2  -2    1.83    0.29
  12   2  -1    0.36    0.17
  12   2   0    2.78    0.35
  12   2   1    0.45    0.19
  12   2   2    1.49    0.27
  12   2   3    1.19    0.24
  12   2   4    0.36    0.17
 -12   2  -4    0.56    0.15
  12   2   5    0.50    0.19
 -12   2  -5    0.49    0.14
  12   3  -1   -0.10    0.14
  12   3   0   -0.15    0.17
  12   3   1   -0.01    0.13
  12   3   2    0.75    0.20
  12   3   3    1.08    0.23
  12   3   4    0.55    0.20
  12   3   5    0.21    0.14
  12   3   6    0.76    0.21
  12   3   7    0.23    0.18
  12   4   2    0.07    0.13
  12   4   3    0.24    0.17
  12   4   4    2.21    0.32
  12   4   5    0.55    0.19
  12   4   6    1.48    0.26
  12   4   7    2.47    0.33
  12   4   8    2.61    0.35
  12   5   6   -0.22    0.16
  12   5   7    0.40    0.20
   0   0   0    0.00    0.00
;
_shelx_hkl_checksum              13745
_shelx_res_file
;
TITL 14 in P2(1)/n [Mn(3+)Cl(5,10,15,20-tetra-3-pyridinyl-21H,23H-Porphine(2-))]
    14.res
    created by SHELXL-2018/3 at 20:43:30 on 12-Jan-2020
CELL 0.71073   9.5189  14.2450  23.4079  90.000  95.920  90.000
ZERR   4       0.0004   0.0005   0.0009   0.000   0.003   0.000
LATT  1
SYMM 0.5-X, 0.5+Y, 0.5-Z
SFAC C H N CL MN
UNIT 160 96 32 4 4
shel 8 .84
L.S. 14
BOND
acta
bond $h
htab
FMAP 2
PLAN 5
WGHT    0.044800    1.858900
FVAR       0.08388
MN1   5    0.533154    0.511271    0.187448    11.00000    0.02946    0.01878 =
         0.02758   -0.00290    0.00787   -0.00305
CL1   4    0.302108    0.575517    0.147448    11.00000    0.03221    0.05214 =
         0.05639   -0.00087    0.00330    0.00179
N1    3    0.469856    0.389027    0.220761    11.00000    0.02639    0.02232 =
         0.03047   -0.00189    0.00713   -0.00270
N2    3    0.577656    0.442465    0.116244    11.00000    0.02597    0.02354 =
         0.02934   -0.00100    0.00621   -0.00113
N3    3    0.618118    0.628699    0.158208    11.00000    0.02719    0.02029 =
         0.02750   -0.00248    0.00614   -0.00035
N4    3    0.511381    0.574513    0.262562    11.00000    0.03240    0.02109 =
         0.02814   -0.00189    0.00722   -0.00128
N5    3    0.586978    0.033068    0.114567    11.00000    0.07549    0.03361 =
         0.09952   -0.01764    0.00188    0.00840
N6    3    1.032120    0.632009    0.003848    11.00000    0.03844    0.05508 =
         0.05027    0.00508    0.01261   -0.00780
N7    3    0.721036    0.967423    0.278277    11.00000    0.03217    0.02282 =
         0.03701   -0.00306    0.00202   -0.00059
N8    3    0.520514    0.388463    0.478679    11.00000    0.11771    0.05073 =
         0.03724    0.00286   -0.00331    0.01260
C1    1    0.443612    0.371973    0.276878    11.00000    0.02754    0.02770 =
         0.03266    0.00222    0.00717   -0.00021
C2    1    0.408648    0.274959    0.282889    11.00000    0.04666    0.02490 =
         0.03935    0.00511    0.01063   -0.00313
AFIX  43
H2A   2    0.387585    0.245471    0.316413    11.00000   -1.20000
AFIX   0
C3    1    0.411820    0.234460    0.231432    11.00000    0.04654    0.02044 =
         0.04548   -0.00077    0.00899   -0.00434
AFIX  43
H3A   2    0.390298    0.172147    0.222485    11.00000   -1.20000
AFIX   0
C4    1    0.454035    0.303819    0.192816    11.00000    0.02731    0.02220 =
         0.03630   -0.00140    0.00466   -0.00238
C5    1    0.489984    0.284566    0.137763    11.00000    0.02859    0.02479 =
         0.03799   -0.00453    0.00451   -0.00171
C6    1    0.550015    0.349566    0.103221    11.00000    0.02846    0.02414 =
         0.03646   -0.00620    0.00729   -0.00188
C7    1    0.600639    0.327724    0.049431    11.00000    0.04343    0.03058 =
         0.04472   -0.01495    0.01900   -0.00555
AFIX  43
H7A   2    0.591766    0.270236    0.030574    11.00000   -1.20000
AFIX   0
C8    1    0.663176    0.404631    0.030906    11.00000    0.03954    0.03739 =
         0.03978   -0.01149    0.01920   -0.00603
AFIX  43
H8A   2    0.706655    0.410062   -0.002742    11.00000   -1.20000
AFIX   0
C9    1    0.650550    0.476876    0.072594    11.00000    0.02555    0.02766 =
         0.03303   -0.00348    0.00649    0.00020
C10   1    0.703819    0.567322    0.069725    11.00000    0.02762    0.02764 =
         0.02822   -0.00112    0.00634   -0.00002
C11   1    0.678769    0.638975    0.107989    11.00000    0.02984    0.02426 =
         0.03127    0.00083    0.00667   -0.00148
C12   1    0.706133    0.736393    0.098917    11.00000    0.05280    0.02692 =
         0.03636    0.00234    0.01635   -0.00661
AFIX  43
H12A  2    0.748395    0.761748    0.068313    11.00000   -1.20000
AFIX   0
C13   1    0.659684    0.784586    0.142640    11.00000    0.05124    0.01889 =
         0.04045    0.00043    0.01164   -0.00206
AFIX  43
H13A  2    0.661286    0.849422    0.147317    11.00000   -1.20000
AFIX   0
C14   1    0.607074    0.717045    0.180805    11.00000    0.02878    0.01997 =
         0.03222   -0.00098    0.00423   -0.00041
C15   1    0.559573    0.737163    0.233769    11.00000    0.02580    0.01991 =
         0.03411   -0.00340    0.00298   -0.00047
C16   1    0.519003    0.669470    0.272227    11.00000    0.03173    0.02358 =
         0.02997   -0.00416    0.00580   -0.00122
C17   1    0.486476    0.688378    0.329425    11.00000    0.05792    0.02838 =
         0.03670   -0.00876    0.01523   -0.00156
AFIX  43
H17A  2    0.483226    0.747261    0.346399    11.00000   -1.20000
AFIX   0
C18   1    0.461510    0.605977    0.354183    11.00000    0.06242    0.03505 =
         0.03165   -0.00281    0.01684   -0.00120
AFIX  43
H18A  2    0.438947    0.597175    0.391532    11.00000   -1.20000
AFIX   0
C19   1    0.476037    0.534017    0.312435    11.00000    0.03727    0.02948 =
         0.02851   -0.00174    0.00814   -0.00213
C20   1    0.449773    0.438564    0.320722    11.00000    0.03529    0.02892 =
         0.03103    0.00169    0.00782   -0.00038
C21   1    0.583973    0.121236    0.133154    11.00000    0.05677    0.03619 =
         0.08183   -0.01849   -0.00591    0.00361
AFIX  43
H21A  2    0.658100    0.141035    0.159378    11.00000   -1.20000
AFIX   0
C22   1    0.478950    0.185767    0.116447    11.00000    0.04201    0.02380 =
         0.04028   -0.00658    0.01324   -0.00706
C23   1    0.368518    0.155298    0.078083    11.00000    0.05352    0.03301 =
         0.05365   -0.00704    0.00149   -0.00679
AFIX  43
H23A  2    0.294807    0.195670    0.065721    11.00000   -1.20000
AFIX   0
C24   1    0.369121    0.064323    0.058410    11.00000    0.07440    0.04246 =
         0.06012   -0.01616   -0.00292   -0.01897
AFIX  43
H24A  2    0.295726    0.042024    0.032681    11.00000   -1.20000
AFIX   0
C25   1    0.479821    0.007276    0.077436    11.00000    0.08662    0.03037 =
         0.07464   -0.01950    0.01797   -0.00726
AFIX  43
H25A  2    0.479674   -0.053741    0.063298    11.00000   -1.20000
AFIX   0
C26   1    0.938184    0.613812    0.040647    11.00000    0.04010    0.04260 =
         0.03417   -0.00128    0.00663   -0.00885
AFIX  43
H26A  2    0.967888    0.617434    0.079698    11.00000   -1.20000
AFIX   0
C27   1    0.798211    0.589693    0.024314    11.00000    0.03419    0.02323 =
         0.03348   -0.00031    0.00869   -0.00023
C28   1    0.755654    0.584334   -0.033542    11.00000    0.03523    0.04311 =
         0.03668    0.00310    0.00298    0.00013
AFIX  43
H28A  2    0.663564    0.567166   -0.046451    11.00000   -1.20000
AFIX   0
C29   1    0.851710    0.604831   -0.072312    11.00000    0.05353    0.04943 =
         0.03008    0.00533    0.00907    0.00243
AFIX  43
H29A  2    0.824931    0.603038   -0.111644    11.00000   -1.20000
AFIX   0
C30   1    0.986024    0.627636   -0.051618    11.00000    0.05103    0.04759 =
         0.04325    0.01100    0.02008    0.00097
AFIX  43
H30A  2    1.049841    0.641059   -0.078018    11.00000   -1.20000
AFIX   0
C31   1    0.698724    0.878675    0.262089    11.00000    0.02928    0.02592 =
         0.03761   -0.00549    0.00430    0.00145
AFIX  43
H31A  2    0.777197    0.842164    0.256587    11.00000   -1.20000
AFIX   0
C32   1    0.567281    0.836809    0.252857    11.00000    0.03004    0.02201 =
         0.02800   -0.00139    0.00563   -0.00156
C33   1    0.451348    0.890747    0.262226    11.00000    0.02612    0.03179 =
         0.04670   -0.00633    0.00677   -0.00215
AFIX  43
H33A  2    0.361051    0.865089    0.257610    11.00000   -1.20000
AFIX   0
C34   1    0.471353    0.983181    0.278519    11.00000    0.03544    0.03038 =
         0.05291   -0.00650    0.00756    0.00823
AFIX  43
H34A  2    0.394757    1.021074    0.284625    11.00000   -1.20000
AFIX   0
C35   1    0.606866    1.018449    0.285602    11.00000    0.04165    0.02164 =
         0.04045   -0.00505    0.00449    0.00077
AFIX  43
H35A  2    0.619310    1.081127    0.296038    11.00000   -1.20000
AFIX   0
C36   1    0.531649    0.417436    0.424589    11.00000    0.07499    0.03880 =
         0.04157   -0.00133    0.00304    0.00479
AFIX  43
H36A  2    0.615005    0.446732    0.416956    11.00000   -1.20000
AFIX   0
C37   1    0.426386    0.406243    0.379587    11.00000    0.05539    0.02420 =
         0.03366    0.00194    0.01228    0.00618
C38   1    0.302896    0.362720    0.391381    11.00000    0.06219    0.04892 =
         0.04392    0.01103    0.01912    0.00077
AFIX  43
H38A  2    0.229239    0.354387    0.362502    11.00000   -1.20000
AFIX   0
C39   1    0.290040    0.331870    0.446238    11.00000    0.09700    0.05809 =
         0.05482    0.01921    0.03570    0.00467
AFIX  43
H39A  2    0.208529    0.301258    0.454838    11.00000   -1.20000
AFIX   0
C40   1    0.398696    0.346908    0.487750    11.00000    0.13659    0.05121 =
         0.03780    0.01393    0.02226    0.01515
AFIX  43
H40A  2    0.387552    0.327000    0.524851    11.00000   -1.20000
AFIX   0
HKLF 4
REM  14 in P2(1)/n [Mn(3+)Cl(5,10,15,20-tetra-3-pyridinyl-21H,23H-Porphine(2-))]
REM wR2 = 0.0980, GooF = S = 1.047, Restrained GooF = 1.047 for all data
REM R1 = 0.0370 for 4759 Fo > 4sig(Fo) and 0.0465 for all 5560 data
REM 451 parameters refined using 0 restraints
END
WGHT      0.0447      1.8662
REM Instructions for potential hydrogen bonds
EQIV $3 -x+2, -y+1, -z
HTAB C8 N6_$3
EQIV $4 -x+1, -y+1, -z
HTAB C29 Cl1_$4
EQIV $1 -x+3/2, y+1/2, -z+1/2
HTAB C31 N1_$1
EQIV $5 -x+1/2, y+1/2, -z+1/2
HTAB C34 Cl1_$5
REM Highest difference peak  0.423,  deepest hole -0.361,  1-sigma level  0.049
Q1    1   0.4282  0.5364  0.1718  11.00000  0.05    0.42
Q2    1   0.3236  0.5173  0.1693  11.00000  0.05    0.31
Q3    1   0.5559  0.7037  0.2529  11.00000  0.05    0.26
Q4    1   0.4689  0.2975  0.1630  11.00000  0.05    0.24
Q5    1   0.4065  0.2760  0.2077  11.00000  0.05    0.24
;
_shelx_res_checksum              23032
loop_
_space_group_symop_operation_xyz
'x, y, z'
'-x+1/2, y+1/2, -z+1/2'
'-x, -y, -z'
'x-1/2, -y-1/2, z-1/2'
loop_
_atom_site_type_symbol
_atom_site_label
_atom_site_fract_x
_atom_site_fract_y
_atom_site_fract_z
_atom_site_U_iso_or_equiv
_atom_site_adp_type
_atom_site_calc_flag
_atom_site_occupancy
_atom_site_disorder_assembly
_atom_site_disorder_group
Mn Mn1 0.53315(3) 0.51127(2) 0.18745(2) 0.02493(11) Uani d 1 . .
Cl Cl1 0.30211(6) 0.57552(5) 0.14745(3) 0.04700(18) Uani d 1 . .
N N1 0.46986(18) 0.38903(12) 0.22076(7) 0.0261(4) Uani d 1 . .
N N2 0.57766(18) 0.44246(12) 0.11624(7) 0.0261(4) Uani d 1 . .
N N3 0.61812(18) 0.62870(12) 0.15821(7) 0.0248(4) Uani d 1 . .
N N4 0.51138(19) 0.57451(12) 0.26256(7) 0.0269(4) Uani d 1 . .
N N5 0.5870(3) 0.03307(18) 0.11457(13) 0.0700(8) Uani d 1 . .
N N6 1.0321(2) 0.63201(17) 0.00385(9) 0.0474(6) Uani d 1 . .
N N7 0.72104(19) 0.96742(13) 0.27828(8) 0.0308(4) Uani d 1 . .
N N8 0.5205(4) 0.38846(19) 0.47868(10) 0.0693(8) Uani d 1 . .
C C1 0.4436(2) 0.37197(16) 0.27688(9) 0.0290(5) Uani d 1 . .
C C2 0.4086(3) 0.27496(16) 0.28289(10) 0.0365(6) Uani d 1 . .
H H2A 0.387585 0.245471 0.316413 0.044 Uiso calc 1 . .
C C3 0.4118(3) 0.23446(16) 0.23143(10) 0.0372(6) Uani d 1 . .
H H3A 0.390298 0.172147 0.222485 0.045 Uiso calc 1 . .
C C4 0.4540(2) 0.30382(15) 0.19282(9) 0.0285(5) Uani d 1 . .
C C5 0.4900(2) 0.28457(16) 0.13776(10) 0.0304(5) Uani d 1 . .
C C6 0.5500(2) 0.34957(16) 0.10322(9) 0.0294(5) Uani d 1 . .
C C7 0.6006(3) 0.32772(17) 0.04943(10) 0.0386(6) Uani d 1 . .
H H7A 0.591766 0.270236 0.030574 0.046 Uiso calc 1 . .
C C8 0.6632(3) 0.40463(17) 0.03091(10) 0.0379(6) Uani d 1 . .
H H8A 0.706655 0.410062 -0.002742 0.045 Uiso calc 1 . .
C C9 0.6506(2) 0.47688(16) 0.07259(9) 0.0285(5) Uani d 1 . .
C C10 0.7038(2) 0.56732(16) 0.06973(9) 0.0276(5) Uani d 1 . .
C C11 0.6788(2) 0.63898(15) 0.10799(9) 0.0282(5) Uani d 1 . .
C C12 0.7061(3) 0.73639(17) 0.09892(10) 0.0379(6) Uani d 1 . .
H H12A 0.748395 0.761748 0.068313 0.045 Uiso calc 1 . .
C C13 0.6597(3) 0.78459(16) 0.14264(10) 0.0364(6) Uani d 1 . .
H H13A 0.661286 0.849422 0.147317 0.044 Uiso calc 1 . .
C C14 0.6071(2) 0.71704(15) 0.18080(9) 0.0269(5) Uani d 1 . .
C C15 0.5596(2) 0.73716(15) 0.23377(9) 0.0266(5) Uani d 1 . .
C C16 0.5190(2) 0.66947(15) 0.27223(9) 0.0282(5) Uani d 1 . .
C C17 0.4865(3) 0.68838(17) 0.32943(10) 0.0403(6) Uani d 1 . .
H H17A 0.483226 0.747261 0.346399 0.048 Uiso calc 1 . .
C C18 0.4615(3) 0.60598(18) 0.35418(10) 0.0422(6) Uani d 1 . .
H H18A 0.438947 0.597175 0.391532 0.051 Uiso calc 1 . .
C C19 0.4760(2) 0.53402(17) 0.31243(9) 0.0314(5) Uani d 1 . .
C C20 0.4498(2) 0.43856(16) 0.32072(9) 0.0314(5) Uani d 1 . .
C C21 0.5840(3) 0.1212(2) 0.13315(14) 0.0592(8) Uani d 1 . .
H H21A 0.658100 0.141035 0.159378 0.071 Uiso calc 1 . .
C C22 0.4790(3) 0.18577(16) 0.11645(10) 0.0347(5) Uani d 1 . .
C C23 0.3685(3) 0.15530(19) 0.07808(11) 0.0470(7) Uani d 1 . .
H H23A 0.294807 0.195670 0.065721 0.056 Uiso calc 1 . .
C C24 0.3691(4) 0.0643(2) 0.05841(13) 0.0597(8) Uani d 1 . .
H H24A 0.295726 0.042024 0.032681 0.072 Uiso calc 1 . .
C C25 0.4798(4) 0.0073(2) 0.07744(15) 0.0632(9) Uani d 1 . .
H H25A 0.479674 -0.053741 0.063298 0.076 Uiso calc 1 . .
C C26 0.9382(3) 0.61381(18) 0.04065(10) 0.0388(6) Uani d 1 . .
H H26A 0.967888 0.617434 0.079698 0.047 Uiso calc 1 . .
C C27 0.7982(2) 0.58969(16) 0.02431(9) 0.0299(5) Uani d 1 . .
C C28 0.7557(3) 0.58433(18) -0.03354(10) 0.0384(6) Uani d 1 . .
H H28A 0.663564 0.567166 -0.046451 0.046 Uiso calc 1 . .
C C29 0.8517(3) 0.60483(19) -0.07231(10) 0.0440(6) Uani d 1 . .
H H29A 0.824931 0.603038 -0.111644 0.053 Uiso calc 1 . .
C C30 0.9860(3) 0.62764(19) -0.05162(11) 0.0462(7) Uani d 1 . .
H H30A 1.049841 0.641059 -0.078018 0.055 Uiso calc 1 . .
C C31 0.6987(2) 0.87867(16) 0.26209(9) 0.0309(5) Uani d 1 . .
H H31A 0.777197 0.842164 0.256587 0.037 Uiso calc 1 . .
C C32 0.5673(2) 0.83681(15) 0.25286(9) 0.0265(5) Uani d 1 . .
C C33 0.4513(2) 0.89075(17) 0.26223(10) 0.0347(5) Uani d 1 . .
H H33A 0.361051 0.865089 0.257610 0.042 Uiso calc 1 . .
C C34 0.4714(3) 0.98318(17) 0.27852(11) 0.0394(6) Uani d 1 . .
H H34A 0.394757 1.021074 0.284625 0.047 Uiso calc 1 . .
C C35 0.6069(3) 1.01845(16) 0.28560(10) 0.0346(5) Uani d 1 . .
H H35A 0.619310 1.081127 0.296038 0.041 Uiso calc 1 . .
C C36 0.5316(3) 0.4174(2) 0.42459(11) 0.0520(7) Uani d 1 . .
H H36A 0.615005 0.446732 0.416956 0.062 Uiso calc 1 . .
C C37 0.4264(3) 0.40624(16) 0.37959(10) 0.0372(6) Uani d 1 . .
C C38 0.3029(3) 0.3627(2) 0.39138(12) 0.0507(7) Uani d 1 . .
H H38A 0.229239 0.354387 0.362502 0.061 Uiso calc 1 . .
C C39 0.2900(4) 0.3319(2) 0.44624(14) 0.0680(10) Uani d 1 . .
H H39A 0.208529 0.301258 0.454838 0.082 Uiso calc 1 . .
C C40 0.3987(5) 0.3469(2) 0.48775(13) 0.0743(11) Uani d 1 . .
H H40A 0.387552 0.327000 0.524851 0.089 Uiso calc 1 . .
loop_
_atom_site_aniso_label
_atom_site_aniso_U_11
_atom_site_aniso_U_22
_atom_site_aniso_U_33
_atom_site_aniso_U_12
_atom_site_aniso_U_13
_atom_site_aniso_U_23
Mn1 0.0295(2) 0.01878(18) 0.02758(19) -0.00305(14) 0.00787(13) -0.00290(13)
Cl1 0.0322(3) 0.0521(4) 0.0564(4) 0.0018(3) 0.0033(3) -0.0009(3)
N1 0.0264(10) 0.0223(10) 0.0305(10) -0.0027(8) 0.0071(7) -0.0019(7)
N2 0.0260(10) 0.0235(10) 0.0293(10) -0.0011(8) 0.0062(7) -0.0010(7)
N3 0.0272(10) 0.0203(9) 0.0275(9) -0.0004(8) 0.0061(7) -0.0025(7)
N4 0.0324(10) 0.0211(10) 0.0281(10) -0.0013(8) 0.0072(7) -0.0019(7)
N5 0.0755(19) 0.0336(14) 0.100(2) 0.0084(13) 0.0019(16) -0.0176(14)
N6 0.0384(12) 0.0551(15) 0.0503(14) -0.0078(11) 0.0126(10) 0.0051(11)
N7 0.0322(11) 0.0228(10) 0.0370(11) -0.0006(8) 0.0020(8) -0.0031(8)
N8 0.118(3) 0.0507(16) 0.0372(14) 0.0126(17) -0.0033(14) 0.0029(12)
C1 0.0275(12) 0.0277(12) 0.0327(12) -0.0002(10) 0.0072(9) 0.0022(9)
C2 0.0467(15) 0.0249(12) 0.0393(13) -0.0031(11) 0.0106(11) 0.0051(10)
C3 0.0465(15) 0.0204(12) 0.0455(14) -0.0043(11) 0.0090(11) -0.0008(10)
C4 0.0273(12) 0.0222(11) 0.0363(12) -0.0024(9) 0.0047(9) -0.0014(9)
C5 0.0286(12) 0.0248(12) 0.0380(13) -0.0017(10) 0.0045(9) -0.0045(10)
C6 0.0285(12) 0.0241(12) 0.0365(12) -0.0019(9) 0.0073(9) -0.0062(9)
C7 0.0434(15) 0.0306(13) 0.0447(14) -0.0056(11) 0.0190(11) -0.0149(11)
C8 0.0395(14) 0.0374(14) 0.0398(13) -0.0060(11) 0.0192(10) -0.0115(11)
C9 0.0256(12) 0.0277(12) 0.0330(12) 0.0002(9) 0.0065(9) -0.0035(9)
C10 0.0276(12) 0.0276(12) 0.0282(11) 0.0000(9) 0.0063(9) -0.0011(9)
C11 0.0298(12) 0.0243(12) 0.0313(12) -0.0015(10) 0.0067(9) 0.0008(9)
C12 0.0528(16) 0.0269(13) 0.0364(13) -0.0066(11) 0.0163(11) 0.0023(10)
C13 0.0512(15) 0.0189(12) 0.0405(13) -0.0021(11) 0.0116(11) 0.0004(10)
C14 0.0288(12) 0.0200(11) 0.0322(12) -0.0004(9) 0.0042(9) -0.0010(9)
C15 0.0258(11) 0.0199(11) 0.0341(12) -0.0005(9) 0.0030(9) -0.0034(9)
C16 0.0317(12) 0.0236(12) 0.0300(12) -0.0012(9) 0.0058(9) -0.0042(9)
C17 0.0579(17) 0.0284(13) 0.0367(13) -0.0016(12) 0.0152(11) -0.0088(10)
C18 0.0624(17) 0.0350(14) 0.0316(13) -0.0012(13) 0.0168(11) -0.0028(11)
C19 0.0373(13) 0.0295(13) 0.0285(12) -0.0021(10) 0.0081(9) -0.0017(9)
C20 0.0353(13) 0.0289(13) 0.0310(12) -0.0004(10) 0.0078(9) 0.0017(9)
C21 0.0568(19) 0.0362(16) 0.082(2) 0.0036(14) -0.0059(15) -0.0185(15)
C22 0.0420(14) 0.0238(12) 0.0403(13) -0.0071(11) 0.0132(10) -0.0066(10)
C23 0.0535(17) 0.0330(14) 0.0536(16) -0.0068(13) 0.0015(12) -0.0070(12)
C24 0.074(2) 0.0425(18) 0.0601(19) -0.0190(16) -0.0029(15) -0.0162(14)
C25 0.087(3) 0.0304(16) 0.075(2) -0.0073(16) 0.0180(18) -0.0195(15)
C26 0.0401(14) 0.0426(15) 0.0342(13) -0.0088(12) 0.0066(10) -0.0013(11)
C27 0.0342(13) 0.0232(11) 0.0335(12) -0.0002(10) 0.0087(9) -0.0003(9)
C28 0.0352(14) 0.0431(15) 0.0367(13) 0.0001(11) 0.0030(10) 0.0031(11)
C29 0.0535(17) 0.0494(17) 0.0301(13) 0.0024(13) 0.0091(11) 0.0053(11)
C30 0.0510(17) 0.0476(17) 0.0432(16) 0.0010(13) 0.0201(12) 0.0110(12)
C31 0.0293(12) 0.0259(12) 0.0376(13) 0.0014(10) 0.0043(9) -0.0055(10)
C32 0.0300(12) 0.0220(11) 0.0280(11) -0.0016(9) 0.0056(9) -0.0014(9)
C33 0.0261(12) 0.0318(13) 0.0467(14) -0.0022(10) 0.0068(10) -0.0063(11)
C34 0.0354(14) 0.0304(13) 0.0529(15) 0.0082(11) 0.0076(11) -0.0065(11)
C35 0.0417(14) 0.0216(12) 0.0404(13) 0.0008(11) 0.0045(10) -0.0051(10)
C36 0.075(2) 0.0388(15) 0.0416(16) 0.0048(14) 0.0030(13) -0.0013(12)
C37 0.0554(16) 0.0242(12) 0.0337(13) 0.0062(11) 0.0123(11) 0.0019(10)
C38 0.0622(19) 0.0489(17) 0.0439(15) 0.0008(14) 0.0191(13) 0.0110(13)
C39 0.097(3) 0.058(2) 0.055(2) 0.0047(19) 0.0357(19) 0.0192(16)
C40 0.137(4) 0.051(2) 0.0378(18) 0.015(2) 0.022(2) 0.0139(15)
loop_
_atom_type_symbol
_atom_type_description
_atom_type_scat_dispersion_real
_atom_type_scat_dispersion_imag
_atom_type_scat_source
C C 0.0033 0.0016 'International Tables Vol C Tables 4.2.6.8 and 6.1.1.4'
H H 0.0000 0.0000 'International Tables Vol C Tables 4.2.6.8 and 6.1.1.4'
N N 0.0061 0.0033 'International Tables Vol C Tables 4.2.6.8 and 6.1.1.4'
Cl Cl 0.1484 0.1585 'International Tables Vol C Tables 4.2.6.8 and 6.1.1.4'
Mn Mn 0.3368 0.7283 'International Tables Vol C Tables 4.2.6.8 and 6.1.1.4'
loop_
_geom_angle_atom_site_label_1
_geom_angle_atom_site_label_2
_geom_angle_atom_site_label_3
_geom_angle_site_symmetry_1
_geom_angle_site_symmetry_3
_geom_angle
_geom_angle_publ_flag
N4 Mn1 N3 . . 90.36(7) y
N4 Mn1 N2 . . 173.18(7) y
N3 Mn1 N2 . . 89.82(7) y
N4 Mn1 N1 . . 89.25(7) y
N3 Mn1 N1 . . 173.52(7) y
N2 Mn1 N1 . . 89.80(7) y
N4 Mn1 N7 . 2_645 90.51(7) y
N3 Mn1 N7 . 2_645 85.42(7) y
N2 Mn1 N7 . 2_645 82.71(7) y
N1 Mn1 N7 . 2_645 88.11(7) y
N4 Mn1 Cl1 . . 89.85(6) y
N3 Mn1 Cl1 . . 86.36(5) y
N2 Mn1 Cl1 . . 96.97(5) y
N1 Mn1 Cl1 . . 100.11(5) y
N7 Mn1 Cl1 2_645 . 171.77(5) y
C4 N1 C1 . . 105.91(18) ?
C4 N1 Mn1 . . 126.60(14) ?
C1 N1 Mn1 . . 127.34(14) ?
C6 N2 C9 . . 106.02(17) ?
C6 N2 Mn1 . . 126.76(14) ?
C9 N2 Mn1 . . 127.07(15) ?
C11 N3 C14 . . 106.76(17) ?
C11 N3 Mn1 . . 126.98(14) ?
C14 N3 Mn1 . . 125.62(14) ?
C16 N4 C19 . . 106.68(17) ?
C16 N4 Mn1 . . 125.38(14) ?
C19 N4 Mn1 . . 127.77(15) ?
C25 N5 C21 . . 115.9(3) ?
C30 N6 C26 . . 116.6(2) ?
C31 N7 C35 . . 116.5(2) ?
C31 N7 Mn1 . 2_655 116.75(15) ?
C35 N7 Mn1 . 2_655 125.23(15) ?
C40 N8 C36 . . 116.0(3) ?
N1 C1 C20 . . 125.5(2) ?
N1 C1 C2 . . 109.23(19) ?
C20 C1 C2 . . 125.2(2) ?
C3 C2 C1 . . 107.5(2) ?
C3 C2 H2A . . 126.3 ?
C1 C2 H2A . . 126.3 ?
C2 C3 C4 . . 107.8(2) ?
C2 C3 H3A . . 126.1 ?
C4 C3 H3A . . 126.1 ?
N1 C4 C5 . . 125.9(2) ?
N1 C4 C3 . . 109.48(19) ?
C5 C4 C3 . . 124.2(2) ?
C6 C5 C4 . . 124.1(2) ?
C6 C5 C22 . . 116.89(19) ?
C4 C5 C22 . . 118.6(2) ?
N2 C6 C5 . . 126.3(2) ?
N2 C6 C7 . . 109.29(19) ?
C5 C6 C7 . . 124.3(2) ?
C8 C7 C6 . . 108.0(2) ?
C8 C7 H7A . . 126.0 ?
C6 C7 H7A . . 126.0 ?
C7 C8 C9 . . 107.2(2) ?
C7 C8 H8A . . 126.4 ?
C9 C8 H8A . . 126.4 ?
N2 C9 C10 . . 125.32(19) ?
N2 C9 C8 . . 109.43(19) ?
C10 C9 C8 . . 125.3(2) ?
C9 C10 C11 . . 124.09(19) ?
C9 C10 C27 . . 118.77(19) ?
C11 C10 C27 . . 117.11(19) ?
N3 C11 C10 . . 126.0(2) ?
N3 C11 C12 . . 109.27(19) ?
C10 C11 C12 . . 124.6(2) ?
C13 C12 C11 . . 107.6(2) ?
C13 C12 H12A . . 126.2 ?
C11 C12 H12A . . 126.2 ?
C12 C13 C14 . . 107.1(2) ?
C12 C13 H13A . . 126.4 ?
C14 C13 H13A . . 126.4 ?
N3 C14 C15 . . 125.19(19) ?
N3 C14 C13 . . 109.18(18) ?
C15 C14 C13 . . 125.5(2) ?
C14 C15 C16 . . 124.5(2) ?
C14 C15 C32 . . 116.95(19) ?
C16 C15 C32 . . 118.18(19) ?
N4 C16 C15 . . 125.89(19) ?
N4 C16 C17 . . 109.09(19) ?
C15 C16 C17 . . 124.9(2) ?
C18 C17 C16 . . 107.7(2) ?
C18 C17 H17A . . 126.1 ?
C16 C17 H17A . . 126.1 ?
C17 C18 C19 . . 107.3(2) ?
C17 C18 H18A . . 126.3 ?
C19 C18 H18A . . 126.3 ?
N4 C19 C20 . . 126.0(2) ?
N4 C19 C18 . . 109.2(2) ?
C20 C19 C18 . . 124.7(2) ?
C1 C20 C19 . . 123.6(2) ?
C1 C20 C37 . . 118.1(2) ?
C19 C20 C37 . . 118.3(2) ?
N5 C21 C22 . . 125.0(3) ?
N5 C21 H21A . . 117.5 ?
C22 C21 H21A . . 117.5 ?
C23 C22 C21 . . 117.0(2) ?
C23 C22 C5 . . 122.4(2) ?
C21 C22 C5 . . 120.5(2) ?
C24 C23 C22 . . 119.0(3) ?
C24 C23 H23A . . 120.5 ?
C22 C23 H23A . . 120.5 ?
C25 C24 C23 . . 118.7(3) ?
C25 C24 H24A . . 120.6 ?
C23 C24 H24A . . 120.6 ?
N5 C25 C24 . . 124.4(3) ?
N5 C25 H25A . . 117.8 ?
C24 C25 H25A . . 117.8 ?
N6 C26 C27 . . 124.0(2) ?
N6 C26 H26A . . 118.0 ?
C27 C26 H26A . . 118.0 ?
C28 C27 C26 . . 117.5(2) ?
C28 C27 C10 . . 123.4(2) ?
C26 C27 C10 . . 119.1(2) ?
C27 C28 C29 . . 119.1(2) ?
C27 C28 H28A . . 120.4 ?
C29 C28 H28A . . 120.4 ?
C30 C29 C28 . . 118.5(2) ?
C30 C29 H29A . . 120.7 ?
C28 C29 H29A . . 120.7 ?
N6 C30 C29 . . 124.3(2) ?
N6 C30 H30A . . 117.9 ?
C29 C30 H30A . . 117.9 ?
N7 C31 C32 . . 124.7(2) ?
N7 C31 H31A . . 117.6 ?
C32 C31 H31A . . 117.6 ?
C33 C32 C31 . . 117.4(2) ?
C33 C32 C15 . . 124.3(2) ?
C31 C32 C15 . . 118.31(19) ?
C34 C33 C32 . . 119.1(2) ?
C34 C33 H33A . . 120.5 ?
C32 C33 H33A . . 120.5 ?
C35 C34 C33 . . 118.8(2) ?
C35 C34 H34A . . 120.6 ?
C33 C34 H34A . . 120.6 ?
N7 C35 C34 . . 123.4(2) ?
N7 C35 H35A . . 118.3 ?
C34 C35 H35A . . 118.3 ?
N8 C36 C37 . . 124.0(3) ?
N8 C36 H36A . . 118.0 ?
C37 C36 H36A . . 118.0 ?
C38 C37 C36 . . 117.6(2) ?
C38 C37 C20 . . 122.3(2) ?
C36 C37 C20 . . 120.1(2) ?
C39 C38 C37 . . 119.3(3) ?
C39 C38 H38A . . 120.3 ?
C37 C38 H38A . . 120.3 ?
C40 C39 C38 . . 118.8(3) ?
C40 C39 H39A . . 120.6 ?
C38 C39 H39A . . 120.6 ?
N8 C40 C39 . . 124.3(3) ?
N8 C40 H40A . . 117.9 ?
C39 C40 H40A . . 117.9 ?
loop_
_geom_bond_atom_site_label_1
_geom_bond_atom_site_label_2
_geom_bond_site_symmetry_2
_geom_bond_distance
_geom_bond_publ_flag
Mn1 N4 . 2.0053(17) y
Mn1 N3 . 2.0087(17) y
Mn1 N2 . 2.0159(17) y
Mn1 N1 . 2.0249(18) y
Mn1 N7 2_645 2.4741(18) y
Mn1 Cl1 . 2.4752(7) y
N1 C4 . 1.380(3) ?
N1 C1 . 1.384(3) ?
N2 C6 . 1.377(3) ?
N2 C9 . 1.383(3) ?
N3 C11 . 1.370(3) ?
N3 C14 . 1.373(3) ?
N4 C16 . 1.372(3) ?
N4 C19 . 1.375(3) ?
N5 C25 . 1.322(4) ?
N5 C21 . 1.330(4) ?
N6 C30 . 1.328(3) ?
N6 C26 . 1.330(3) ?
N7 C31 . 1.331(3) ?
N7 C35 . 1.333(3) ?
N8 C40 . 1.338(5) ?
N8 C36 . 1.346(4) ?
C1 C20 . 1.394(3) ?
C1 C2 . 1.432(3) ?
C2 C3 . 1.339(3) ?
C2 H2A . 0.9300 ?
C3 C4 . 1.425(3) ?
C3 H3A . 0.9300 ?
C4 C5 . 1.394(3) ?
C5 C6 . 1.390(3) ?
C5 C22 . 1.493(3) ?
C6 C7 . 1.428(3) ?
C7 C8 . 1.340(3) ?
C7 H7A . 0.9300 ?
C8 C9 . 1.432(3) ?
C8 H8A . 0.9300 ?
C9 C10 . 1.389(3) ?
C10 C11 . 1.395(3) ?
C10 C27 . 1.495(3) ?
C11 C12 . 1.432(3) ?
C12 C13 . 1.344(3) ?
C12 H12A . 0.9300 ?
C13 C14 . 1.438(3) ?
C13 H13A . 0.9300 ?
C14 C15 . 1.393(3) ?
C15 C16 . 1.400(3) ?
C15 C32 . 1.488(3) ?
C16 C17 . 1.431(3) ?
C17 C18 . 1.341(3) ?
C17 H17A . 0.9300 ?
C18 C19 . 1.433(3) ?
C18 H18A . 0.9300 ?
C19 C20 . 1.400(3) ?
C20 C37 . 1.491(3) ?
C21 C22 . 1.384(4) ?
C21 H21A . 0.9300 ?
C22 C23 . 1.380(4) ?
C23 C24 . 1.376(4) ?
C23 H23A . 0.9300 ?
C24 C25 . 1.368(5) ?
C24 H24A . 0.9300 ?
C25 H25A . 0.9300 ?
C26 C27 . 1.391(3) ?
C26 H26A . 0.9300 ?
C27 C28 . 1.375(3) ?
C28 C29 . 1.384(3) ?
C28 H28A . 0.9300 ?
C29 C30 . 1.359(4) ?
C29 H29A . 0.9300 ?
C30 H30A . 0.9300 ?
C31 C32 . 1.383(3) ?
C31 H31A . 0.9300 ?
C32 C33 . 1.381(3) ?
C33 C34 . 1.379(3) ?
C33 H33A . 0.9300 ?
C34 C35 . 1.378(3) ?
C34 H34A . 0.9300 ?
C35 H35A . 0.9300 ?
C36 C37 . 1.386(4) ?
C36 H36A . 0.9300 ?
C37 C38 . 1.382(4) ?
C38 C39 . 1.375(4) ?
C38 H38A . 0.9300 ?
C39 C40 . 1.361(5) ?
C39 H39A . 0.9300 ?
C40 H40A . 0.9300 ?
loop_
_geom_hbond_atom_site_label_D
_geom_hbond_atom_site_label_H
_geom_hbond_atom_site_label_A
_geom_hbond_site_symmetry_A
_geom_hbond_distance_DH
_geom_hbond_distance_HA
_geom_hbond_distance_DA
_geom_hbond_angle_DHA
_geom_hbond_publ_flag
C34 H34A Cl1 2_555 0.93 2.69 3.527(3) 150 yes

_cod_database_fobs_code 2022165
