#------------------------------------------------------------------------------
#$Date: 2016-01-06 12:18:03 +0200 (Wed, 06 Jan 2016) $
#$Revision: 173586 $
#$URL: svn://www.crystallography.net/cod/cif/4/03/17/4031739.cif $
#------------------------------------------------------------------------------
#
# This file is available in the Crystallography Open Database (COD),
# http://www.crystallography.net/
#
# All data on this site have been placed in the public domain by the
# contributors.
#
data_4031739
loop_
_publ_author_name
'Gehrold, Andreas C.'
'Bruhn, Torsten'
'Schneider, Heidi'
'Radius, Udo'
'Bringmann, Gerhard'
_publ_section_title
;
 Monomeric Chiral and Achiral Basket-Handle Porphyrins: Synthesis,
 Structural Features, and Arrested Tautomerism.
;
_journal_issue                   24
_journal_name_full               'The Journal of organic chemistry'
_journal_page_first              12359
_journal_page_last               12378
_journal_paper_doi               10.1021/acs.joc.5b02259
_journal_volume                  80
_journal_year                    2015
_chemical_formula_sum            'C50 H46 Cl In N4 O2'
_chemical_formula_weight         885.18
_space_group_crystal_system      monoclinic
_space_group_IT_number           15
_space_group_name_Hall           '-C 2yc'
_space_group_name_H-M_alt        'C 1 2/c 1'
_symmetry_space_group_name_Hall  '-C 2yc'
_symmetry_space_group_name_H-M   'C 1 2/c 1'
_atom_sites_solution_hydrogens   geom
_audit_creation_method           SHELXL-2014/6
_cell_angle_alpha                90
_cell_angle_beta                 120.622(2)
_cell_angle_gamma                90
_cell_formula_units_Z            4
_cell_length_a                   21.9867(11)
_cell_length_b                   14.2038(7)
_cell_length_c                   15.3868(8)
_cell_measurement_reflns_used    9866
_cell_measurement_temperature    100(2)
_cell_measurement_theta_max      26.125
_cell_measurement_theta_min      2.153
_cell_volume                     4135.1(4)
_computing_cell_refinement       'Saint+ ver. 7.68A (Bruker AXS)'
_computing_data_collection       'APEX2 ver. 2014.9 (Bruker AXS)'
_computing_data_reduction        'Saint+ ver. 7.68A (Bruker AXS)'
_computing_molecular_graphics    'XP ver. 5.1 (Bruker AXS, 1998)'
_computing_publication_material  'SHELXL-2014/6 (Sheldrick, 2014)'
_computing_structure_refinement  'SHELXL-2014/6 (Sheldrick, 2014)'
_computing_structure_solution    'SHELXL-2014/6 (Sheldrick, 2014)'
_diffrn_ambient_temperature      100(2)
_diffrn_measured_fraction_theta_full 1.000
_diffrn_measured_fraction_theta_max 0.999
_diffrn_measurement_device_type  'Bruker X8-APEX II'
_diffrn_radiation_monochromator  helios
_diffrn_radiation_source         'rotating anode'
_diffrn_radiation_type           MoK\a
_diffrn_radiation_wavelength     0.71073
_diffrn_reflns_av_R_equivalents  0.0329
_diffrn_reflns_av_unetI/netI     0.0228
_diffrn_reflns_laue_measured_fraction_full 1.000
_diffrn_reflns_laue_measured_fraction_max 0.999
_diffrn_reflns_limit_h_max       27
_diffrn_reflns_limit_h_min       -27
_diffrn_reflns_limit_k_max       17
_diffrn_reflns_limit_k_min       -17
_diffrn_reflns_limit_l_max       19
_diffrn_reflns_limit_l_min       -18
_diffrn_reflns_number            25636
_diffrn_reflns_point_group_measured_fraction_full 1.000
_diffrn_reflns_point_group_measured_fraction_max 0.999
_diffrn_reflns_theta_full        26.000
_diffrn_reflns_theta_max         26.143
_diffrn_reflns_theta_min         1.793
_exptl_absorpt_coefficient_mu    0.682
_exptl_absorpt_correction_T_max  0.7453
_exptl_absorpt_correction_T_min  0.6560
_exptl_absorpt_correction_type   analytical
_exptl_absorpt_process_details   'Sadabs 2014/4 (Bruker 2014)'
_exptl_crystal_colour            purple
_exptl_crystal_density_diffrn    1.422
_exptl_crystal_density_method    'not measured'
_exptl_crystal_description       block
_exptl_crystal_F_000             1824
_exptl_crystal_size_max          0.43
_exptl_crystal_size_mid          0.17
_exptl_crystal_size_min          0.07
_refine_diff_density_max         0.671
_refine_diff_density_min         -0.279
_refine_diff_density_rms         0.063
_refine_ls_extinction_method     none
_refine_ls_goodness_of_fit_ref   1.060
_refine_ls_hydrogen_treatment    constr
_refine_ls_matrix_type           full
_refine_ls_number_parameters     267
_refine_ls_number_reflns         4112
_refine_ls_number_restraints     0
_refine_ls_restrained_S_all      1.060
_refine_ls_R_factor_all          0.0272
_refine_ls_R_factor_gt           0.0242
_refine_ls_shift/su_max          0.002
_refine_ls_shift/su_mean         0.000
_refine_ls_structure_factor_coef Fsqd
_refine_ls_weighting_details
'w=1/[\s^2^(Fo^2^)+(0.0332P)^2^+4.5536P] where P=(Fo^2^+2Fc^2^)/3'
_refine_ls_weighting_scheme      calc
_refine_ls_wR_factor_gt          0.0613
_refine_ls_wR_factor_ref         0.0631
_reflns_Friedel_coverage         0.000
_reflns_number_gt                3798
_reflns_number_total             4112
_reflns_threshold_expression     'I > 2\s(I)'
_cod_data_source_file            jo5b02259_si_001.cif
_cod_data_source_block           In-10d
_cod_depositor_comments
'Adding full bibliography for 4031738--4031739.cif.'
_cod_database_code               4031739
_shelx_space_group_comment
;
The symmetry employed for this shelxl refinement is uniquely defined
by the following loop, which should always be used as a source of
symmetry information in preference to the above space-group names.
They are only intended as comments.
;
_shelxl_version_number           2014/6
_shelx_res_file
;
TITL test_a.res in C2/c
REM Old TITL test in Cc
REM SHELXT solution in C2/c
REM R1 0.073,  Rweak 0.004,  Alpha 0.025,  Orientation as input
REM Formula found by SHELXT:  C50 N2 O4 Cl In
CELL  0.71073  21.9867  14.2038  15.3868   90.000  120.622   90.000
ZERR    4.000   0.0011   0.0007   0.0008    0.000    0.002    0.000
LATT  7
SYMM -X, Y, 1/2-Z
SFAC C H N O CL IN
UNIT 200 184 16 8 4 4
TEMP -173.000
L.S. 20
BOND $H
LIST 4
ACTA 52
FMAP 2
PLAN -5
WGHT    0.033200    4.553600
FVAR       0.12671
IN    6    0.500000    0.575391    0.250000    10.50000    0.01866    0.01759 =
         0.01299    0.00000    0.01025    0.00000
CL1   5    0.500000    0.406888    0.250000    10.50000    0.04767    0.01954 =
         0.02585    0.00000    0.02691    0.00000
O1    4    0.333826    0.846093    0.248960    11.00000    0.01982    0.03300 =
         0.02375    0.00280    0.01204   -0.00189
N1    3    0.607886    0.615724    0.343262    11.00000    0.01851    0.02374 =
         0.01602    0.00263    0.00985    0.00155
C1    1    0.655935    0.639751    0.315258    11.00000    0.01900    0.02268 =
         0.02051    0.00323    0.01144    0.00339
N2    3    0.485803    0.613303    0.373270    11.00000    0.02100    0.01832 =
         0.01587   -0.00100    0.01196   -0.00084
C2    1    0.723259    0.653498    0.404182    11.00000    0.01868    0.03262 =
         0.02713    0.00636    0.01079    0.00254
AFIX  43
H2    2    0.765791    0.670547    0.406349    11.00000   -1.20000
AFIX   0
C3    1    0.715609    0.637931    0.484508    11.00000    0.02050    0.03264 =
         0.01924    0.00431    0.00700    0.00313
AFIX  43
H3    2    0.751882    0.640734    0.553522    11.00000   -1.20000
AFIX   0
C4    1    0.642731    0.616394    0.446623    11.00000    0.02197    0.02157 =
         0.01694    0.00421    0.00830    0.00295
C5    1    0.610942    0.609008    0.504694    11.00000    0.02555    0.02185 =
         0.01429    0.00325    0.00868    0.00224
AFIX  43
H5    2    0.642071    0.601773    0.575332    11.00000   -1.20000
AFIX   0
C6    1    0.539139    0.610910    0.472087    11.00000    0.02688    0.01660 =
         0.01664    0.00114    0.01268   -0.00025
C7    1    0.509649    0.625208    0.535058    11.00000    0.03176    0.02375 =
         0.01643    0.00027    0.01531   -0.00087
AFIX  43
H7    2    0.534724    0.624145    0.606791    11.00000   -1.20000
AFIX   0
C8    1    0.439946    0.640448    0.474403    11.00000    0.03022    0.02178 =
         0.02294   -0.00128    0.02023   -0.00027
AFIX  43
H8    2    0.407037    0.653483    0.495501    11.00000   -1.20000
AFIX   0
C9    1    0.424299    0.633400    0.371611    11.00000    0.02385    0.01823 =
         0.02045   -0.00118    0.01580   -0.00108
C10   1    0.359157    0.651347    0.284556    11.00000    0.02107    0.02236 =
         0.02246   -0.00352    0.01499   -0.00272
C11   1    0.302773    0.699678    0.296270    11.00000    0.01798    0.02863 =
         0.01647   -0.00270    0.00977    0.00059
C12   1    0.258741    0.653062    0.321781    11.00000    0.02179    0.02239 =
         0.02163   -0.00271    0.01233   -0.00073
AFIX  43
H12   2    0.264866    0.587269    0.334398    11.00000   -1.20000
AFIX   0
C13   1    0.205521    0.699310    0.329669    11.00000    0.01668    0.02768 =
         0.01685   -0.00321    0.00860   -0.00112
C15   1    0.241814    0.843906    0.286777    11.00000    0.02504    0.02354 =
         0.02268    0.00012    0.01237    0.00224
AFIX  43
H15   2    0.236334    0.909901    0.275357    11.00000   -1.20000
AFIX   0
C16   1    0.293728    0.796322    0.279197    11.00000    0.01913    0.02841 =
         0.01784   -0.00027    0.00983   -0.00291
C17   1    0.154700    0.645294    0.351564    11.00000    0.02103    0.02698 =
         0.02778   -0.00280    0.01551   -0.00128
C18   1    0.189037    0.556551    0.412395    11.00000    0.03360    0.02764 =
         0.04594    0.00453    0.02834    0.00068
AFIX 137
H18A  2    0.156910    0.526391    0.430492    11.00000   -1.50000
H18B  2    0.233255    0.573101    0.474019    11.00000   -1.50000
H18C  2    0.199063    0.513003    0.371854    11.00000   -1.50000
AFIX   0
C19   1    0.089871    0.618910    0.249596    11.00000    0.02663    0.04832 =
         0.03552   -0.01055    0.01665   -0.01182
AFIX 137
H19A  2    0.065304    0.676338    0.213449    11.00000   -1.50000
H19B  2    0.057810    0.579903    0.260982    11.00000   -1.50000
H19C  2    0.105103    0.583642    0.209245    11.00000   -1.50000
AFIX   0
C20   1    0.130602    0.705190    0.411116    11.00000    0.03101    0.03417 =
         0.03254   -0.00042    0.02415    0.00128
AFIX 137
H20A  2    0.104677    0.760264    0.370901    11.00000   -1.50000
H20B  2    0.171979    0.726013    0.474374    11.00000   -1.50000
H20C  2    0.099708    0.667676    0.426236    11.00000   -1.50000
AFIX   0
C21   1    0.404779    0.863773    0.328018    11.00000    0.02161    0.02614 =
         0.02187   -0.00143    0.01086   -0.00059
AFIX  23
H21A  2    0.419140    0.815783    0.381660    11.00000   -1.20000
H21B  2    0.407462    0.926362    0.358091    11.00000   -1.20000
AFIX   0
C22   1    0.454284    0.860822    0.287591    11.00000    0.02203    0.01769 =
         0.02373   -0.00064    0.01288    0.00040
C23   1    0.428566    0.859300    0.184386    11.00000    0.01720    0.02224 =
         0.02272   -0.00068    0.00803    0.00024
AFIX  43
H23   2    0.378959    0.856512    0.139095    11.00000   -1.20000
AFIX   0
C24   1    0.526630    0.861744    0.354478    11.00000    0.02491    0.01945 =
         0.02077    0.00047    0.01097   -0.00027
C25   1    0.556645    0.866415    0.466649    11.00000    0.02414    0.03801 =
         0.02008   -0.00049    0.00989   -0.00117
AFIX 137
H25A  2    0.539157    0.923107    0.483166    11.00000   -1.50000
H25B  2    0.608352    0.868618    0.501163    11.00000   -1.50000
H25C  2    0.542000    0.810566    0.488766    11.00000   -1.50000
AFIX   0
C14   1    0.197868    0.795621    0.310944    11.00000    0.01933    0.02623 =
         0.02309   -0.00220    0.01172    0.00340
AFIX  43
H14   2    0.161805    0.828781    0.314837    11.00000   -1.20000
AFIX   0
HKLF 4

REM  test_a.res in C2/c
REM R1 =  0.0242 for    3798 Fo > 4sig(Fo)  and  0.0272 for all    4112 data
REM    267 parameters refined using      0 restraints

END

WGHT      0.0332      4.5538

REM Highest difference peak  0.671,  deepest hole -0.279,  1-sigma level  0.063
Q1    1   0.4787  0.5222  0.2405  11.00000  0.05    0.67
Q2    1   0.4486  0.4280  0.2160  11.00000  0.05    0.62
Q3    1   0.1821  0.6774  0.3430  11.00000  0.05    0.42
Q4    1   0.4525  0.5934  0.2340  11.00000  0.05    0.38
Q5    1   0.2866  0.7455  0.2666  11.00000  0.05    0.35
;
_shelx_res_checksum              5550
_shelx_hkl_file
;
  -2   0   0  510.15   16.10
   2   0   0  510.05   16.10
  -2   0   0  619.94   17.10
  -4   0   0  792.32   23.10
  -4   0   0  774.22   22.90
  -4   0   0  751.52   22.80
  -4   0   0  757.12   22.90
   4   0   0  765.02   22.80
   4   0   0  774.22   23.20
  -6   0   0  500.05   15.20
   6   0   0  461.25   14.40
   6   0   0  473.45   15.10
  -6   0   0  472.75   14.90
  -6   0   0  463.55   14.40
  -6   0   0  477.55   14.80
  -8   0   0  351.66   11.30
   8   0   0  373.46   11.30
  -8   0   0  335.67   11.90
  -8   0   0  371.26   12.30
  10   0   0  376.76   12.80
 -10   0   0  382.86   13.20
  10   0   0  391.76   12.20
 -10   0   0  381.06   12.20
 -12   0   0  231.18    9.20
 -12   0   0  230.08    8.00
 -12   0   0  237.48    8.10
  12   0   0  232.98    8.90
 -14   0   0  340.47   11.40
 -14   0   0  327.57   12.80
 -14   0   0  356.86   11.50
  14   0   0  348.67   12.50
 -16   0   0  115.19    6.20
 -16   0   0  104.59    4.50
  16   0   0   93.99    5.40
 -18   0   0   90.39    4.00
  18   0   0   78.59    5.00
 -18   0   0   78.79    5.50
 -20   0   0  224.68   10.90
  20   0   0  237.88   10.20
 -22   0   0   16.60    3.20
  22   0   0   16.20    2.80
   1   1   0  923.41   28.00
   3  -1   0  878.21   26.20
   3  -1   0  904.81   26.10
  -3  -1   0  871.51   26.00
   3  -1   0  863.61   26.00
  -3  -1   0  882.61   26.30
  -3  -1   0  885.71   25.90
   3  -1   0  858.81   25.90
  -3   1   0  905.21   26.10
   3   1   0  870.71   26.40
  -3   1   0  870.71   25.90
   3   1   0  924.01   26.00
  -3   1   0  895.11   26.00
  -3   1   0  841.22   26.00
   3   1   0  887.41   26.00
  -5  -1   0  866.31   26.00
   5  -1   0  882.41   26.40
  -5  -1   0  860.11   26.40
  -5  -1   0  848.42   26.10
  -5  -1   0  943.21   26.80
   5  -1   0  862.31   26.20
   5  -1   0  875.31   26.50
  -5   1   0  867.61   26.20
  -5   1   0  903.11   26.50
   5   1   0  917.41   26.40
  -5   1   0  913.51   26.40
   5   1   0  877.51   26.30
  -5   1   0  859.11   26.20
  -7  -1   0  966.60   28.50
  -7  -1   0  989.70   28.10
   7  -1   0  931.11   27.60
  -7  -1   0  893.91   28.00
  -7  -1   0  908.91   27.30
  -7  -1   0  936.61   27.30
   7  -1   0  908.21   28.00
   7  -1   0  883.11   28.10
  -7   1   0  831.92   27.90
   7   1   0  974.60   28.10
  -7   1   0 1001.00   28.30
  -7   1   0  900.61   28.00
  -7   1   0  897.31   27.60
   7   1   0  894.51   27.80
  -7   1   0  959.70   27.90
  -9  -1   0 1074.19   31.60
   9  -1   0 1064.39   32.90
   9  -1   0 1106.29   32.00
  -9  -1   0 1093.99   31.60
  -9  -1   0 1048.70   32.60
   9   1   0 1053.79   32.40
  -9   1   0 1041.90   31.90
  -9   1   0 1065.69   32.70
 -11  -1   0   84.19    3.50
 -11  -1   0   88.79    3.50
 -11  -1   0   99.29    4.80
  11  -1   0   92.89    4.00
  11   1   0   82.89    4.20
 -11   1   0   76.19    4.40
 -11   1   0   87.79    3.90
 -13  -1   0  294.37   11.50
 -13  -1   0  319.47   10.10
 -13  -1   0  297.67   10.00
  13  -1   0  300.17   11.10
  13  -1   0  329.57   10.60
 -13   1   0  294.47   11.60
 -13   1   0  299.27   10.40
  13   1   0  311.87   11.30
 -15  -1   0  172.68    6.30
  15  -1   0  181.98    7.00
 -15  -1   0  169.88    8.00
 -15  -1   0  192.58    6.50
  15  -1   0  169.98    7.50
 -15   1   0  170.88    6.80
 -15   1   0  173.48    8.10
  15   1   0  174.58    7.70
 -15   1   0  174.48    6.80
 -17  -1   0  135.69    7.40
  17  -1   0  144.69    7.00
 -17  -1   0  151.18    5.60
  17   1   0  152.78    7.10
 -17   1   0  135.39    7.40
 -17   1   0  147.99    6.00
  19  -1   0   83.59    5.20
 -19  -1   0   84.39    5.90
 -19   1   0   85.19    5.80
  19   1   0   84.99    5.30
 -21  -1   0   52.99    5.10
  21  -1   0   59.99    4.60
 -21   1   0   70.29    5.60
  21   1   0   64.69    4.70
 -23  -1   0   16.30    3.40
  23  -1   0   12.50    2.60
 -23   1   0   10.50    3.00
  23   1   0   11.70    2.50
   0  -2   0  299.67    9.70
   0  -2   0  289.67    9.30
   0  -2   0  290.37    9.20
   0  -2   0  298.57    9.30
   0  -2   0  299.57    9.60
   0   2   0  288.17    9.30
   0   2   0  295.97    9.20
   0   2   0  293.47    9.70
   0   2   0  310.57    9.30
   2  -2   0 1163.28   34.80
  -2  -2   0 1183.08   34.60
  -2  -2   0 1199.38   34.80
  -2  -2   0 1178.48   34.70
   2  -2   0 1160.98   34.60
   2  -2   0 1184.08   34.70
  -2  -2   0 1181.68   34.50
   2   2   0 1228.78   34.60
  -2   2   0 1162.18   34.80
   2   2   0 1177.48   34.80
  -2   2   0 1196.28   34.50
   2   2   0 1197.38   34.50
  -2   2   0 1175.38   34.40
  -4  -2   0  187.98    6.30
  -4  -2   0  189.18    6.00
   4  -2   0  187.48    6.30
  -4  -2   0  175.28    6.20
   4  -2   0  176.38    6.20
   4  -2   0  185.68    6.20
   4  -2   0  185.58    6.40
  -4   2   0  179.08    6.30
  -4   2   0  177.98    6.10
  -4   2   0  189.88    6.10
   4   2   0  202.78    6.30
   4   2   0  183.68    6.20
   4   2   0  183.18    5.90
  -4   2   0  194.38    6.20
   6  -2   0  183.38    6.50
   6  -2   0  180.68    6.40
  -6  -2   0  177.68    6.50
   6  -2   0  183.88    6.60
  -6  -2   0  189.88    6.50
   6   2   0  187.18    6.50
  -6   2   0  195.58    6.60
   6   2   0  177.98    5.80
  -6   2   0  183.48    6.30
  -6   2   0  165.28    6.30
  -6   2   0  171.48    6.30
   6   2   0  174.48    6.40
   8  -2   0  280.17    9.90
   8  -2   0  285.97    9.50
  -8  -2   0  273.37    9.70
  -8  -2   0  271.37    8.80
  -8  -2   0  296.17    8.80
   8  -2   0  291.47    9.80
  -8   2   0  273.07    9.80
   8   2   0  271.57    9.60
  -8   2   0  286.07    9.80
  -8   2   0  274.37    9.70
  -8   2   0  272.57    9.40
  10  -2   0   90.39    4.70
 -10  -2   0   90.79    4.60
  10  -2   0   92.19    4.60
 -10  -2   0   93.69    3.60
 -10  -2   0   98.99    3.60
  10  -2   0   95.49    4.20
 -10   2   0   98.89    4.70
  10   2   0   89.99    4.40
 -10   2   0   93.99    4.20
  12  -2   0  168.38    7.50
 -12  -2   0  174.18    6.00
 -12  -2   0  170.68    7.40
 -12  -2   0  171.48    6.00
  12  -2   0  179.38    6.90
  12   2   0  175.58    7.20
 -12   2   0  178.18    7.50
 -12   2   0  175.48    6.70
 -14  -2   0   15.40    1.30
 -14  -2   0   13.50    2.20
 -14  -2   0   13.50    1.30
 -14   2   0    8.40    1.90
 -14   2   0   12.00    1.70
  14   2   0   13.90    2.00
 -16  -2   0   46.30    2.40
 -16  -2   0   52.39    4.10
  16  -2   0   47.30    3.50
  16   2   0   48.90    3.60
 -16   2   0   50.59    3.20
 -16   2   0   50.89    4.00
 -18  -2   0   59.69    4.80
  18  -2   0   66.19    4.40
  18   2   0   67.69    4.50
 -18   2   0   57.59    4.80
 -18   2   0   64.49    3.70
 -18   2   0   57.29    3.90
  20  -2   0    8.90    2.20
 -20  -2   0    7.60    2.40
  20   2   0   11.10    2.30
 -20   2   0    7.60    2.40
 -22  -2   0   52.79    5.10
  22  -2   0   47.70    4.30
 -22   2   0   55.59    5.30
  22   2   0   51.99    4.50
  -1  -3   0    0.20    0.30
  -1  -3   0    0.40    0.60
  -1  -3   0    3.00    0.50
  -1  -3   0    1.40    0.40
   1  -3   0    0.90    0.40
  -1  -3   0    2.00    0.50
   1  -3   0    1.20    0.40
   1  -3   0    0.30    0.60
  -1  -3   0    0.40    0.70
   1   3   0    2.70    0.80
   1   3   0    1.50    0.40
  -1   3   0    2.20    0.80
  -1   3   0    1.50    0.40
  -1   3   0    1.80    0.40
  -1   3   0    1.50    0.70
   1   3   0    0.60    0.60
   1   3   0    1.00    0.40
   3  -3   0   88.09    3.20
   3  -3   0   81.79    3.10
  -3  -3   0   85.89    3.40
  -3  -3   0   86.39    3.20
  -3  -3   0   90.79    3.30
  -3  -3   0   87.19    3.30
   3  -3   0   86.19    3.70
  -3   3   0   83.29    3.00
  -3   3   0   83.49    3.60
   3   3   0   85.49    3.40
   3   3   0   94.99    3.30
   3   3   0   87.09    3.30
  -3   3   0   89.89    3.10
   5  -3   0  108.19    4.30
   5  -3   0  111.49    4.30
   5  -3   0  108.49    4.20
  -5  -3   0  110.89    4.10
  -5  -3   0  110.59    4.00
  -5  -3   0  116.49    4.40
   5  -3   0  111.49    4.60
  -5  -3   0  109.99    4.30
  -5   3   0  113.59    4.60
   5   3   0  108.49    4.00
   5   3   0  105.29    4.20
   5   3   0  118.09    4.40
  -5   3   0  111.69    4.10
  -5   3   0  114.49    4.10
   7  -3   0    1.80    0.80
  -7  -3   0    0.90    0.50
   7  -3   0    0.90    0.70
  -7  -3   0    2.40    0.80
   7  -3   0   -0.10    0.60
   7  -3   0    1.20    0.70
   7   3   0    1.00    0.50
  -7   3   0    1.30    0.60
  -7   3   0    1.50    0.80
   7   3   0    0.50    0.60
   7   3   0    2.00    0.80
  -7   3   0    1.70    0.70
  -7   3   0    1.20    0.70
   9  -3   0  117.49    5.30
   9  -3   0  119.89    5.40
  -9  -3   0  122.09    4.40
   9  -3   0  119.79    5.20
  -9  -3   0  112.99    5.20
   9   3   0  120.79    4.30
  -9   3   0  116.59    5.10
   9   3   0  117.39    5.10
  -9   3   0  121.19    5.10
  -9   3   0  135.59    5.50
 -11  -3   0   31.20    1.80
 -11  -3   0   31.10    1.70
 -11  -3   0   27.60    2.50
  11  -3   0   31.00    2.70
  11  -3   0   29.20    2.60
  11   3   0   26.30    2.30
 -11   3   0   31.10    2.70
 -11   3   0   26.70    2.30
 -13  -3   0    3.20    0.70
 -13  -3   0    1.80    1.10
  13  -3   0    1.80    1.20
 -13  -3   0    1.80    0.70
 -13   3   0    0.60    0.90
 -13   3   0    3.10    1.20
  13   3   0    2.30    1.10
 -15  -3   0    1.70    0.70
 -15  -3   0    3.90    1.50
 -15   3   0    0.60    0.90
  15   3   0    2.10    1.10
 -15   3   0    1.80    1.20
 -17  -3   0    1.30    1.50
  17  -3   0    1.80    1.30
 -17   3   0    2.30    1.30
  17   3   0    1.00    1.20
 -17   3   0    2.40    1.40
 -17   3   0    3.00    1.50
  19  -3   0   10.70    2.20
 -19  -3   0    8.20    2.30
  19   3   0   11.70    2.30
 -19   3   0   14.80    2.10
 -19   3   0    9.50    2.10
 -19   3   0    8.80    2.40
  21  -3   0    3.90    1.80
 -21  -3   0    8.80    2.50
 -21   3   0   10.00    2.70
  21   3   0    6.90    2.00
 -23  -3   0   26.60    4.00
  23  -3   0   23.30    3.30
  23   3   0   23.30    3.30
 -23   3   0   22.90    3.90
   0  -4   0 9999.00  280.57
   0  -4   0 9859.61  280.37
   0   4   0 9398.46  280.47
   0   4   0 9814.62  281.07
   0   4   0 9629.24  281.27
   2  -4   0 1171.68   34.50
   2  -4   0 1127.49   33.70
  -2  -4   0 1150.48   33.80
  -2  -4   0 1147.69   34.20
   2  -4   0 1142.19   33.60
  -2  -4   0 1154.58   33.60
  -2  -4   0 1142.99   34.30
   2   4   0 1159.88   34.40
   2   4   0 1141.59   33.70
  -2   4   0 1132.59   34.50
   2   4   0 1151.98   34.20
  -2   4   0 1165.78   34.70
  -2   4   0 1180.08   33.60
   2   4   0 1149.08   33.70
  -2   4   0 1152.38   33.50
   4  -4   0   63.39    3.20
   4  -4   0   58.99    2.50
   4  -4   0   53.69    2.50
  -4  -4   0   62.59    2.80
  -4  -4   0   58.39    2.60
  -4  -4   0   55.39    2.70
  -4  -4   0   56.09    2.60
   4   4   0   61.09    2.70
   4   4   0   58.49    2.80
  -4   4   0   59.19    2.40
  -4   4   0   60.39    2.40
  -4   4   0   61.99    3.10
   4   4   0   59.59    2.60
   6  -4   0   -0.30    0.50
  -6  -4   0    0.30    0.50
   6  -4   0   -0.10    0.40
   6  -4   0    0.30    0.70
   6  -4   0   -0.10    0.50
  -6  -4   0    0.10    0.50
  -6  -4   0   -0.90    0.50
   6   4   0    0.40    0.50
  -6   4   0   -0.20    0.40
  -6   4   0    0.20    0.40
   6   4   0    0.80    0.70
  -6   4   0    0.20    0.70
  -8  -4   0  217.28    8.10
  -8  -4   0  229.98    7.60
   8  -4   0  228.48    8.30
   8  -4   0  207.78    8.00
  -8  -4   0  229.18    7.40
   8  -4   0  224.28    8.20
   8   4   0  223.38    7.50
   8   4   0  228.28    8.10
  -8   4   0  224.18    7.80
  -8   4   0  222.28    8.40
 -10  -4   0   11.00    1.10
  10  -4   0   13.70    1.80
 -10  -4   0   13.50    1.70
 -10  -4   0   14.40    1.20
  10  -4   0    9.60    1.60
  10   4   0   11.10    1.10
 -10   4   0   13.30    1.80
  10   4   0   10.90    1.60
 -12  -4   0  166.78    7.30
 -12  -4   0  183.98    6.20
  12  -4   0  169.98    7.60
 -12  -4   0  169.38    6.00
  12  -4   0  176.38    7.60
  12   4   0  177.78    7.30
 -12   4   0  180.08    7.70
 -12   4   0  170.88    7.20
 -14  -4   0   34.30    3.10
  14  -4   0   32.50    3.10
  14   4   0   33.40    2.90
 -14   4   0   40.20    3.50
 -14   4   0   33.00    2.90
  16  -4   0    0.80    1.30
 -16  -4   0    0.00    1.20
 -16   4   0    1.00    1.20
 -16   4   0    2.00    1.40
  16   4   0    0.90    1.00
 -16   4   0    1.10    1.40
  18  -4   0   60.59    4.20
 -18  -4   0   54.69    4.40
 -18   4   0   52.39    4.10
 -18   4   0   51.19    3.90
 -18   4   0   65.89    4.90
  18   4   0   52.49    4.10
  20  -4   0   15.60    2.60
 -20  -4   0   22.20    3.30
  20   4   0   19.00    2.80
 -20   4   0   17.20    3.20
  22  -4   0    4.60    1.90
 -22  -4   0    5.50    2.10
  22   4   0    4.70    1.80
 -22   4   0    2.50    2.00
  -1  -5   0 1347.57   40.10
   1  -5   0 1365.86   40.10
  -1  -5   0 1346.67   39.90
   1  -5   0 1313.57   39.10
   1  -5   0 1312.07   39.00
  -1  -5   0 1338.37   39.20
  -1  -5   0 1325.17   38.90
  -1  -5   0 1326.07   39.10
  -1  -5   0 1308.27   39.20
  -1   5   0 1385.26   39.10
  -1   5   0 1326.27   39.10
   1   5   0 1328.47   40.20
   1   5   0 1394.46   39.10
  -1   5   0 1362.26   40.20
  -1   5   0 1354.76   38.90
  -1   5   0 1328.57   40.30
   1   5   0 1323.47   40.00
   3  -5   0  272.47    9.70
  -3  -5   0  291.27    9.60
  -3  -5   0  274.87    9.00
   3  -5   0  268.47    8.70
  -3  -5   0  280.17    9.40
   3  -5   0  274.67    8.80
  -3  -5   0  264.97    8.70
  -3   5   0  272.07   10.00
   3   5   0  278.67    9.40
  -3   5   0  285.97    8.60
   3   5   0  274.27    8.90
  -3   5   0  276.67    9.80
  -3   5   0  272.87    8.60
   3   5   0  268.17    9.50
   3   5   0  274.17    8.90
  -5  -5   0  369.66   12.00
   5  -5   0  370.76   12.00
  -5  -5   0  376.86   12.10
  -5  -5   0  387.76   12.30
   5  -5   0  371.56   12.00
   5   5   0  400.16   12.20
  -5   5   0  377.26   13.00
  -5   5   0  375.56   12.80
   5   5   0  363.46   12.00
   5   5   0  365.96   12.30
  -5   5   0  378.16   11.60
  -7  -5   0  674.83   20.20
   7  -5   0  671.43   20.60
   7  -5   0  649.43   20.50
  -7  -5   0  669.13   20.40
  -7  -5   0  659.13   20.50
   7  -5   0  663.53   20.70
  -7   5   0  649.14   20.00
   7   5   0  672.33   20.60
  -7   5   0  621.44   21.00
   9  -5   0  473.45   16.20
   9  -5   0  490.95   16.40
  -9  -5   0  510.95   15.50
  -9  -5   0  526.45   15.70
  -9  -5   0  479.45   16.20
   9  -5   0  497.45   16.40
   9   5   0  491.25   16.20
  -9   5   0  508.15   16.80
   9   5   0  497.65   15.60
 -11  -5   0   59.29    3.60
  11  -5   0   61.49    3.80
 -11  -5   0   58.49    2.90
 -11  -5   0   61.19    2.80
  11  -5   0   56.39    3.70
  11   5   0   59.19    3.50
  11   5   0   55.09    2.70
 -11   5   0   58.29    3.80
 -13  -5   0  135.99    5.10
 -13  -5   0  127.49    4.90
  13  -5   0  130.69    6.50
  13  -5   0  129.49    6.40
 -13  -5   0  137.59    4.90
 -13  -5   0  131.39    6.30
  13   5   0  140.09    6.30
 -13   5   0  132.79    6.60
 -13   5   0  129.99    6.30
  15  -5   0  122.49    6.50
 -15  -5   0  117.69    6.30
 -15   5   0  117.09    6.40
 -15   5   0  120.29    6.40
 -15   5   0  129.49    6.20
  15   5   0  123.89    6.10
 -17  -5   0   65.69    4.70
  17  -5   0   76.59    5.20
  17   5   0   64.59    4.40
 -17   5   0   72.59    4.60
 -17   5   0   66.39    4.70
 -17   5   0   53.79    4.70
 -19  -5   0   94.29    6.10
  19  -5   0  107.99    5.90
 -19   5   0   90.99    6.30
 -19   5   0   96.89    5.60
 -19   5   0   93.69    5.80
  19   5   0   97.99    5.80
 -21  -5   0    8.10    2.50
  21  -5   0   10.00    2.30
  21   5   0    8.60    2.20
 -21   5   0    9.80    2.70
   0  -6   0    4.50    1.10
   0  -6   0    6.50    0.80
   0  -6   0    7.80    0.80
   0  -6   0    5.30    0.70
   0   6   0    6.40    0.70
   0   6   0    5.70    0.70
   0   6   0    7.20    1.30
   0   6   0    6.10    1.40
  -2  -6   0 1180.18   34.50
  -2  -6   0 1157.78   34.10
  -2  -6   0 1195.18   35.30
   2  -6   0 1163.08   34.30
   2  -6   0 1159.48   34.30
  -2  -6   0 1161.28   34.50
  -2  -6   0 1179.68   35.40
  -2  -6   0 1158.68   34.30
  -2   6   0 1149.19   34.20
  -2   6   0 1167.68   35.90
   2   6   0 1195.48   34.40
  -2   6   0 1178.08   34.00
   2   6   0 1139.69   35.50
  -2   6   0 1183.28   34.20
   2   6   0 1142.79   35.20
  -2   6   0 1147.39   35.60
  -4  -6   0  326.87   10.60
  -4  -6   0  339.17   11.40
   4  -6   0  341.97   10.70
  -4  -6   0  332.27   11.50
   4  -6   0  333.07   10.70
   4   6   0  335.97   10.90
  -4   6   0  336.27   10.50
  -4   6   0  333.77   10.40
   4   6   0  331.67   10.80
   4   6   0  330.87   11.50
  -4   6   0  337.67   12.00
  -4   6   0  331.47   12.10
   4   6   0  329.77   11.30
  -6  -6   0  470.45   14.80
   6  -6   0  466.35   14.70
  -6  -6   0  463.35   14.90
  -6  -6   0  449.46   14.50
   6  -6   0  463.05   14.60
  -6   6   0  468.25   14.10
  -6   6   0  450.25   15.90
  -6   6   0  445.66   15.50
   6   6   0  437.56   14.60
   6   6   0  459.65   15.00
   8  -6   0  442.26   14.60
  -8  -6   0  435.56   14.50
  -8  -6   0  463.95   14.30
  -8  -6   0  474.65   14.50
   8  -6   0  433.56   14.60
   8  -6   0  424.96   14.70
  -8   6   0  450.45   15.40
  -8   6   0  435.26   15.60
  -8   6   0  431.56   13.90
   8   6   0  437.26   14.60
   8   6   0  455.55   14.50
  10  -6   0  667.73   20.70
 -10  -6   0  636.34   19.80
 -10  -6   0  655.33   19.60
 -10  -6   0  610.24   20.30
  10  -6   0  635.34   20.60
  10  -6   0  606.44   20.40
  10   6   0  615.54   20.30
  10   6   0  634.74   19.70
 -10   6   0  635.94   21.00
 -10   6   0  627.54   21.30
 -12  -6   0   97.19    4.10
 -12  -6   0   99.79    4.30
 -12  -6   0   93.09    5.00
  12  -6   0   92.79    5.20
  12  -6   0   86.39    5.00
  12   6   0  100.29    4.20
 -12   6   0   95.79    5.60
  12   6   0   94.29    4.90
 -12   6   0  109.49    5.50
  14  -6   0   69.89    4.60
 -14  -6   0   69.09    3.10
  14  -6   0   69.09    4.60
 -14  -6   0   75.09    4.50
 -14   6   0   66.39    4.50
 -14   6   0   71.39    4.70
  14   6   0   68.29    4.20
 -14   6   0   68.39    4.80
 -16  -6   0  147.99    7.40
  16  -6   0  155.98    7.70
 -16   6   0  151.88    7.80
 -16   6   0  156.08    7.80
 -16   6   0  154.68    7.60
  16   6   0  155.08    7.30
  18  -6   0   79.29    5.60
 -18  -6   0   73.39    5.20
 -18   6   0   79.39    5.10
 -18   6   0   77.99    5.40
  18   6   0   74.39    5.00
 -18   6   0   81.29    5.70
  20  -6   0   64.69    4.60
 -20  -6   0   59.69    4.90
 -20   6   0   56.19    4.70
 -20   6   0   64.29    4.70
  20   6   0   63.79    4.70
 -20   6   0   71.09    5.50
 -22  -6   0   74.89    5.80
 -22   6   0   68.89    6.10
  22   6   0   83.99    5.60
   1  -7   0  352.26   10.60
   1  -7   0  327.87   10.50
  -1  -7   0  334.17   10.50
  -1  -7   0  324.97   10.70
  -1  -7   0  330.87   10.30
   1  -7   0  326.67   10.60
  -1   7   0  331.97   11.90
   1   7   0  346.07   12.10
  -1   7   0  317.27   12.10
  -1   7   0  335.57   10.50
   1   7   0  336.17   10.60
   1   7   0  326.87   11.70
  -1   7   0  333.87   10.60
  -1   7   0  343.77   10.40
   3  -7   0  634.84   19.70
   3  -7   0  637.14   19.50
  -3  -7   0  640.64   19.40
  -3  -7   0  645.64   19.80
  -3  -7   0  639.04   19.60
  -3   7   0  673.43   19.50
  -3   7   0  636.64   19.40
   3   7   0  663.93   19.80
  -3   7   0  650.93   21.10
  -3   7   0  645.24   19.20
   3   7   0  680.13   21.00
  -3   7   0  615.04   21.30
   3   7   0  623.84   20.60
   5  -7   0  187.68    6.60
  -5  -7   0  182.38    6.40
   5  -7   0  178.28    6.50
   5   7   0  178.78    7.20
  -5   7   0  165.38    7.80
   5   7   0  177.78    6.60
  -5   7   0  187.58    6.20
  -5   7   0  177.38    7.60
  -7  -7   0  276.97    9.70
   7  -7   0  266.97    9.50
   7  -7   0  230.68    9.10
   7  -7   0  268.77    9.30
  -7  -7   0  253.87    9.10
  -7  -7   0  259.17    9.40
  -7   7   0  264.77   10.40
   7   7   0  270.77    9.70
   7   7   0  276.67    9.40
  -7   7   0  273.67   10.80
   9  -7   0   22.90    2.20
   9  -7   0   20.50    2.10
  -9  -7   0   22.10    2.00
  -9  -7   0   21.10    2.10
  -9  -7   0   20.40    1.90
   9  -7   0   15.10    1.90
  -9   7   0   17.60    2.40
   9   7   0   18.70    1.90
  -9   7   0   25.50    3.00
   9   7   0   20.70    2.00
 -11  -7   0  423.06   13.40
  11  -7   0  366.06   13.80
  11  -7   0  393.26   14.10
 -11  -7   0  406.16   13.80
  11  -7   0  386.16   14.10
 -11  -7   0  418.16   13.20
 -11   7   0  372.76   14.80
  11   7   0  416.66   13.30
  11   7   0  395.26   13.80
 -11   7   0  391.16   14.70
  13  -7   0   56.49    4.00
  13  -7   0   44.50    3.70
 -13  -7   0   57.59    3.70
  13   7   0   51.39    3.60
 -13   7   0   43.60    4.20
 -13   7   0   65.09    4.40
  13   7   0   49.60    2.90
  15  -7   0   46.90    3.90
  15  -7   0   45.90    4.00
 -15  -7   0   39.70    3.50
 -15   7   0   42.20    4.10
 -15   7   0   49.30    4.10
 -15   7   0   40.40    3.80
  15   7   0   49.40    3.60
  17  -7   0   64.99    4.90
 -17  -7   0   59.99    4.40
  17   7   0   62.69    4.40
 -17   7   0   58.39    4.70
 -17   7   0   65.09    5.10
 -17   7   0   66.19    4.80
  19  -7   0   79.79    5.80
 -19  -7   0   82.49    5.50
 -19   7   0   83.69    5.80
 -19   7   0   83.29    5.50
  19   7   0   79.49    5.30
 -19   7   0   82.69    6.00
 -21  -7   0   59.89    5.10
 -21   7   0   51.49    5.20
  21   7   0   54.49    4.60
   0  -8   0  115.69    4.30
   0  -8   0  116.99    4.50
   0   8   0  115.69    5.70
   0   8   0  120.59    4.50
   0   8   0  113.99    4.30
   0   8   0  119.09    6.00
  -2  -8   0   60.59    2.70
   2  -8   0   54.79    2.70
  -2  -8   0   56.49    2.50
  -2  -8   0   60.39    2.90
   2  -8   0   58.69    2.80
  -2   8   0   63.09    4.20
   2   8   0   59.49    3.70
   2   8   0   61.89    2.90
  -2   8   0   61.99    2.70
  -2   8   0   52.39    3.70
   2   8   0   64.09    4.00
  -4  -8   0  253.87    8.70
   4  -8   0  255.07    8.40
  -4  -8   0  250.47    8.20
   4  -8   0  249.08    8.50
  -4  -8   0  256.67    8.50
   4   8   0  249.08    9.60
  -4   8   0  236.68   10.10
   4   8   0  234.88    8.50
  -4   8   0  259.47   10.00
   4   8   0  234.18    9.30
   6  -8   0  230.58    8.20
  -6  -8   0  229.18    8.00
   6  -8   0  233.68    8.30
   6   8   0  232.88    8.30
   6   8   0  218.98    8.90
  -6   8   0  233.98    9.60
  -6   8   0  225.08    9.80
   8  -8   0   27.70    2.30
   8  -8   0   26.50    2.40
  -8  -8   0   30.00    2.20
   8  -8   0   28.20    2.30
   8   8   0   27.40    2.50
  -8   8   0   30.80    3.40
   8   8   0   30.60    2.30
  -8   8   0   32.50    3.20
  10  -8   0  234.48    9.00
  10  -8   0  227.68    9.10
  10  -8   0  234.38    9.10
  10   8   0  236.18    8.80
 -10   8   0  224.78    9.80
  10   8   0  227.88    8.80
 -10   8   0  217.78   10.00
  12  -8   0   15.50    2.30
  12  -8   0   15.00    2.20
 -12  -8   0   12.60    1.90
  12  -8   0   15.30    2.30
  12   8   0   12.90    1.90
 -12   8   0   14.00    2.60
 -12   8   0   14.50    2.90
  12   8   0   13.50    1.70
  14  -8   0   52.79    4.10
  14  -8   0   49.20    4.00
 -14  -8   0   54.69    3.80
 -14   8   0   47.20    4.20
  14   8   0   54.59    3.80
 -14   8   0   49.40    4.60
  16  -8   0  121.89    7.00
 -16  -8   0  128.09    6.60
  16  -8   0  131.59    7.00
 -16   8   0  119.19    7.20
 -16   8   0  127.49    7.00
 -16   8   0  121.79    7.00
  16   8   0  120.99    6.40
  18  -8   0    4.70    2.10
 -18  -8   0    9.10    2.20
 -18   8   0    7.80    2.30
 -18   8   0    8.30    2.60
  18   8   0    7.00    1.80
 -18   8   0    5.60    2.10
 -20  -8   0   20.90    3.30
 -20   8   0   27.80    3.90
  20   8   0   32.30    3.60
 -20   8   0   42.00    4.60
 -20   8   0   30.10    3.70
  -1  -9   0   41.50    2.40
   1  -9   0   41.30    2.30
  -1  -9   0   44.00    2.20
   1  -9   0   39.90    2.10
  -1   9   0   42.20    3.70
   1   9   0   35.30    3.00
   1   9   0   41.50    3.40
  -1   9   0   45.00    3.50
   3  -9   0   11.20    1.30
   3  -9   0   12.00    1.30
  -3  -9   0   13.10    1.10
  -3  -9   0   13.20    1.30
  -3  -9   0   11.40    1.30
  -3   9   0   15.60    2.40
   3   9   0   15.10    2.10
   3   9   0   12.60    2.20
  -3   9   0   15.00    2.50
  -5  -9   0    2.20    0.70
  -5  -9   0    3.00    0.80
  -5  -9   0    2.40    0.80
   5  -9   0    1.50    0.80
   5  -9   0    2.20    0.90
   5   9   0    1.90    0.80
   5   9   0    2.00    1.20
  -5   9   0    4.60    1.80
  -5   9   0    2.30    1.30
  -7  -9   0    5.50    1.00
   7  -9   0    2.80    1.00
   7  -9   0    3.30    1.10
  -7   9   0    4.20    1.70
  -7   9   0    3.90    1.60
   7   9   0    4.50    1.10
   7   9   0    3.60    1.30
   9  -9   0   15.50    1.90
  -9  -9   0   18.60    1.90
   9  -9   0   17.50    2.20
   9  -9   0   15.90    2.00
  -9   9   0   15.70    2.70
  -9   9   0   14.50    2.80
   9   9   0   14.40    1.80
   9   9   0   20.00    2.40
  11  -9   0   -1.20    1.00
  11  -9   0    1.20    1.20
  11  -9   0   -0.30    1.20
 -11  -9   0    2.50    1.10
 -11   9   0    1.30    1.50
  11   9   0    1.10    0.90
  11   9   0    1.80    1.10
 -11   9   0    1.30    1.70
  13  -9   0   51.99    4.00
  13  -9   0   48.80    3.90
 -13  -9   0   51.49    3.60
  13  -9   0   46.20    3.70
  13   9   0   44.60    3.40
 -13   9   0   56.89    4.80
  13   9   0   49.70    3.30
 -13   9   0   53.79    4.40
  15  -9   0    6.70    2.00
 -15  -9   0    7.30    1.90
  15  -9   0    7.20    2.00
 -15   9   0    5.70    2.10
 -15   9   0    7.90    2.60
  15   9   0    5.30    1.60
  17  -9   0    2.50    1.90
 -17  -9   0    3.30    1.60
 -17   9   0    3.40    2.30
 -17   9   0    3.00    1.80
 -17   9   0    5.40    2.00
  17   9   0    2.70    1.40
 -19  -9   0   -0.70    1.30
 -19   9   0    1.30    2.10
 -19   9   0    2.20    1.70
 -19   9   0   -1.90    1.40
  19   9   0   -0.10    1.20
   0 -10   0   20.00    1.60
   0 -10   0   19.50    1.50
   0  10   0   19.40    2.60
   0  10   0   15.70    2.60
  -2 -10   0   22.10    1.50
   2 -10   0   21.20    1.80
   2 -10   0   25.50    1.80
  -2 -10   0   25.10    1.90
  -2 -10   0   22.10    1.60
   2  10   0   22.80    2.70
  -2  10   0   21.50    3.10
   2  10   0   21.80    2.90
  -2  10   0   21.30    2.90
  -4 -10   0    7.10    0.90
   4 -10   0    9.20    1.30
   4 -10   0    7.00    1.20
  -4 -10   0    7.90    1.30
  -4 -10   0    9.60    1.20
   4  10   0   10.10    2.20
  -4  10   0   10.70    2.20
  -4  10   0    8.80    2.20
   4  10   0    7.60    1.80
  -6 -10   0   38.00    2.70
  -6 -10   0   34.20    2.30
   6 -10   0   38.10    2.70
  -6 -10   0   37.70    2.20
   6 -10   0   35.40    2.50
  -6  10   0   42.20    3.90
   6  10   0   33.60    3.30
  -6  10   0   35.00    3.90
  -8 -10   0   22.80    2.30
  -8 -10   0   20.40    1.80
   8 -10   0   22.30    2.30
   8 -10   0   25.00    2.30
  -8  10   0   17.00    3.10
  -8  10   0   22.60    3.10
   8  10   0   18.60    2.00
   8  10   0   24.90    2.70
  10 -10   0  222.28    9.00
 -10 -10   0  230.08    8.60
  10 -10   0  230.88    9.20
  10 -10   0  215.08    9.20
 -10  10   0  219.68   10.60
  10  10   0  226.98    8.90
 -10  10   0  229.98   10.30
 -12 -10   0   47.40    3.30
  12 -10   0   43.50    3.70
  12 -10   0   44.00    3.70
  12 -10   0   39.20    3.40
 -12  10   0   46.30    4.70
 -12  10   0   51.29    4.50
  12  10   0   41.00    3.30
  12  10   0   43.60    3.30
 -14 -10   0    1.60    1.20
  14 -10   0   -0.90    1.40
  14 -10   0    0.80    1.40
  14 -10   0   -0.40    1.40
  14  10   0    1.60    1.20
 -14  10   0    4.70    2.20
 -14  10   0    2.40    1.70
 -16 -10   0    9.00    2.00
  16 -10   0    8.50    2.50
 -16  10   0    9.60    2.40
  16  10   0   12.60    2.30
 -16  10   0   19.20    3.30
 -16  10   0   15.50    3.40
 -18 -10   0    0.00    1.30
 -18  10   0    0.20    1.70
  18  10   0    0.00    1.20
 -18  10   0    3.60    2.50
 -18  10   0    0.50    1.50
  -1 -11   0  130.39    5.60
   1 -11   0  141.39    5.70
  -1 -11   0  138.59    5.30
   1 -11   0  143.89    5.40
   1  11   0  142.19    7.10
  -1  11   0  140.29    7.20
  -1  11   0  141.79    7.60
   1  11   0  146.69    7.60
   3 -11   0  113.39    4.70
  -3 -11   0  105.49    4.80
  -3 -11   0  110.79    4.50
   3 -11   0  109.19    4.90
  -3 -11   0  105.39    4.20
  -3  11   0  109.29    6.40
   3  11   0   98.29    5.80
  -3  11   0  128.59    7.10
   3  11   0  118.89    6.50
  -5 -11   0   47.50    2.50
  -5 -11   0   46.60    3.00
  -5 -11   0   46.90    2.70
   5 -11   0   53.29    3.00
   5 -11   0   46.20    3.00
  -5  11   0   56.99    4.80
  -5  11   0   44.50    4.20
   5  11   0   54.59    4.20
  -7 -11   0   52.59    2.90
  -7 -11   0   52.39    3.40
   7 -11   0   55.49    3.50
   7 -11   0   61.09    3.50
  -7 -11   0   56.09    3.20
  -7  11   0   50.09    4.60
   7  11   0   49.90    4.10
  -7  11   0   66.79    5.30
  -9 -11   0   14.40    1.70
   9 -11   0   13.40    2.00
  -9 -11   0   13.70    2.00
   9 -11   0   10.40    2.10
   9 -11   0   10.20    2.00
  -9  11   0   18.80    3.40
   9  11   0   16.90    2.60
  -9  11   0   13.40    2.80
   9  11   0   12.90    1.90
  11 -11   0   68.69    4.50
 -11 -11   0   72.99    4.00
  11 -11   0   71.59    4.50
  11 -11   0   68.89    4.60
 -11  11   0   64.99    5.20
  11  11   0   73.89    4.70
 -11  11   0   65.79    5.80
  11  11   0   72.19    4.30
  13 -11   0   -0.10    1.30
 -13 -11   0    4.00    1.40
  13 -11   0    5.60    1.90
  13 -11   0    1.50    1.60
  13  11   0    2.20    1.30
 -13  11   0    3.60    2.20
 -13  11   0    4.60    2.10
 -15 -11   0   10.10    2.00
  15 -11   0    8.00    2.40
 -15  11   0   12.40    3.30
  15  11   0   12.40    2.20
 -15  11   0   13.20    3.10
  17 -11   0   18.00    3.40
 -17 -11   0   18.90    2.70
 -17  11   0   15.60    3.00
 -17  11   0   21.10    4.00
 -17  11   0   18.00    3.40
  17  11   0   14.80    2.60
   0 -12   0   12.40    1.40
   0 -12   0   10.10    1.50
   0  12   0   20.70    3.00
   0  12   0   15.00    2.90
  -2 -12   0   33.30    2.40
  -2 -12   0   34.10    2.10
   2 -12   0   33.70    2.50
  -2  12   0   31.70    4.00
  -2  12   0   30.90    3.60
   2  12   0   31.80    3.60
   2  12   0   31.40    3.80
  -4 -12   0  145.19    5.40
  -4 -12   0  144.39    6.20
   4 -12   0  150.68    6.20
  -4 -12   0  143.59    5.70
   4 -12   0  148.49    6.00
  -4  12   0  148.69    7.90
  -4  12   0  153.68    8.50
   4  12   0  124.79    7.40
  -6 -12   0   81.79    3.60
   6 -12   0   77.69    4.10
   6 -12   0   82.69    4.40
  -6 -12   0   76.09    3.90
  -6 -12   0   78.29    4.30
  -6  12   0   72.99    5.90
   6  12   0   75.09    5.30
  -6  12   0   78.49    5.70
   8 -12   0  177.58    7.60
   8 -12   0  190.18    7.90
  -8 -12   0  184.78    6.90
  -8 -12   0  177.98    7.20
  -8 -12   0  177.28    7.70
  -8  12   0  176.88    9.20
  -8  12   0  188.88   10.00
   8  12   0  176.88    8.60
  10 -12   0   13.10    2.20
 -10 -12   0    8.70    1.50
 -10 -12   0    5.90    1.50
  10 -12   0    8.20    2.00
 -10 -12   0    6.20    1.50
  10 -12   0    7.80    1.80
 -10  12   0    4.10    2.30
  10  12   0    7.80    1.60
 -10  12   0   10.70    2.80
  10  12   0    9.60    2.40
  12 -12   0  164.18    7.80
 -12 -12   0  153.28    6.90
 -12 -12   0  159.18    7.60
  12  12   0  159.58    7.30
 -12  12   0  168.08    9.60
 -12  12   0  160.48    8.90
 -14 -12   0   26.60    3.00
  14 -12   0   23.60    3.20
 -14 -12   0   21.80    2.50
  14  12   0   15.90    2.50
 -14  12   0   25.30    4.00
 -14  12   0   28.60    4.50
 -16 -12   0   41.20    3.60
  16 -12   0   45.00    4.50
 -16  12   0   39.60    5.20
 -16  12   0   34.10    4.70
  -1 -13   0   19.10    1.80
  -1 -13   0   17.80    2.00
   1 -13   0   19.20    1.80
   1 -13   0   18.30    2.00
   1  13   0   18.60    3.30
   1  13   0   18.30    3.10
  -1  13   0   25.50    3.80
  -1  13   0   20.90    3.20
  -3 -13   0   68.19    3.90
   3 -13   0   75.49    4.10
  -3 -13   0   68.29    3.40
   3 -13   0   74.99    3.80
  -3  13   0   58.49    5.00
  -3  13   0   64.09    5.70
   3  13   0   69.89    5.20
   3  13   0   77.99    5.60
  -5 -13   0   98.29    4.20
  -5 -13   0   95.69    4.90
  -5 -13   0  102.19    4.50
   5 -13   0  107.39    4.90
   5 -13   0  102.79    5.10
   5  13   0  101.29    6.50
  -5  13   0   86.59    6.30
  -5  13   0   92.09    6.80
   7 -13   0   20.30    2.30
  -7 -13   0   22.50    2.10
  -7 -13   0   21.80    1.80
  -7 -13   0   18.90    2.20
  -7  13   0   23.70    4.00
   7  13   0   20.30    3.10
  -7  13   0   19.50    3.50
  -9 -13   0  113.19    5.80
  -9 -13   0  111.89    5.40
  -9 -13   0  126.49    5.30
   9 -13   0  124.59    6.20
   9 -13   0  122.29    6.10
   9  13   0  118.39    6.90
  -9  13   0  111.99    7.50
  -9  13   0  107.59    7.80
 -11 -13   0   24.20    2.80
  11 -13   0   22.70    2.90
 -11 -13   0   23.80    2.50
 -11 -13   0   22.70    2.30
 -11  13   0   20.60    3.70
 -11  13   0   23.60    4.30
  13 -13   0  116.69    6.70
 -13 -13   0  120.19    5.80
 -13 -13   0  121.19    6.50
 -13  13   0  123.89    8.50
  13  13   0  121.19    6.30
 -13  13   0  124.79    8.10
 -15 -13   0   60.69    4.60
 -15 -13   0   64.89    4.30
  15 -13   0   61.69    5.00
  15  13   0   59.49    4.40
 -15  13   0   58.29    6.30
 -15  13   0   57.59    5.90
   0 -14   0  296.47   10.80
   0 -14   0  300.17   10.40
   0  14   0  285.37   13.40
   0  14   0  295.97   13.00
   2 -14   0   21.40    2.00
  -2 -14   0   19.30    2.10
  -2 -14   0   22.00    1.90
   2 -14   0   20.10    2.20
   2  14   0   26.70    3.90
   2  14   0   19.00    3.30
  -2  14   0   21.70    3.80
  -2  14   0   29.60    3.90
  -4 -14   0   72.19    3.60
  -4 -14   0   71.29    4.10
   4 -14   0   69.89    4.10
   4 -14   0   70.39    3.90
  -4  14   0   75.29    5.80
  -4  14   0   62.39    5.90
   4  14   0   65.49    5.40
   6 -14   0   36.80    2.90
  -6 -14   0   32.70    2.20
   6 -14   0   41.50    3.30
  -6 -14   0   35.40    2.90
  -6 -14   0   32.90    2.50
  -6  14   0   36.90    4.80
   6  14   0   30.10    3.90
  -8 -14   0    4.70    1.30
   8 -14   0    0.60    1.30
   8 -14   0    1.90    1.30
  -8 -14   0    5.70    1.50
  -8 -14   0    2.60    1.00
   8  14   0    3.70    2.00
  -8  14   0    0.20    2.00
  -8  14   0    4.00    2.10
  10 -14   0    6.40    1.90
 -10 -14   0    8.30    1.90
 -10 -14   0    6.70    1.40
 -10 -14   0    6.10    1.60
  10  14   0    5.80    2.20
 -10  14   0    6.90    2.90
 -10  14   0    4.10    2.40
 -12 -14   0   45.80    3.30
 -12 -14   0   52.09    3.70
 -12 -14   0   48.70    3.80
  12 -14   0   43.60    4.00
 -12  14   0   44.10    5.20
 -12  14   0   48.50    5.90
  14 -14   0   81.99    5.80
 -14 -14   0   88.79    4.90
 -14 -14   0   93.39    5.70
 -14 -14   0   88.39    5.20
 -14  14   0   80.49    6.80
 -14  14   0   99.29    7.90
  -1 -15   0    0.70    0.80
   1 -15   0    0.00    0.90
   1 -15   0    0.30    0.90
  -1 -15   0    0.40    0.90
   1  15   0   -0.10    1.70
   1  15   0    0.90    1.50
  -1  15   0    0.90    1.70
  -1  15   0   -0.60    1.30
   3 -15   0    6.30    1.60
   3 -15   0    6.80    1.50
  -3 -15   0    7.70    1.30
  -3 -15   0    5.70    1.40
  -3  15   0   11.90    2.90
   3  15   0    6.00    2.40
  -3  15   0    9.90    3.20
  -5 -15   0   18.30    2.30
   5 -15   0   23.20    2.40
   5 -15   0   18.70    2.40
  -5 -15   0   26.00    2.10
  -5  15   0   13.00    3.50
  -5  15   0   20.00    3.70
   5  15   0   20.20    3.70
   7 -15   0   17.00    2.40
  -7 -15   0   17.30    1.70
  -7 -15   0   16.10    1.90
  -7 -15   0   17.10    2.30
  -7  15   0   17.40    3.50
  -7  15   0   23.80    4.30
   7  15   0   20.00    3.50
  -9 -15   0    2.00    1.30
   9 -15   0    3.90    1.70
  -9 -15   0    3.80    1.10
  -9 -15   0    2.20    1.10
  -9  15   0    2.90    2.50
  -9  15   0    6.60    2.60
   9  15   0    5.80    2.30
 -11 -15   0   35.20    3.10
 -11 -15   0   27.00    3.10
  11 -15   0   29.40    3.40
 -11 -15   0   35.90    2.70
 -11  15   0   33.90    4.90
 -11  15   0   26.30    4.90
   0 -16   0    1.70    1.20
   0  16   0    1.30    1.60
   0  16   0    2.10    2.00
  -2 -16   0   17.60    1.90
  -2 -16   0   14.30    2.10
   2 -16   0   20.80    2.20
   2 -16   0   20.00    2.50
  -2  16   0   20.90    3.80
  -2  16   0   14.90    3.60
   2  16   0   11.60    3.20
  -4 -16   0    1.30    0.90
   4 -16   0    1.00    1.20
  -4 -16   0   -0.10    1.00
   4 -16   0    0.60    1.20
  -4  16   0    1.50    1.80
  -4  16   0   -0.10    2.20
   4  16   0   -0.80    1.90
   6 -16   0    1.50    1.40
  -6 -16   0   -0.60    1.00
   6  16   0   -1.30    1.70
  -6  16   0    2.30    1.90
  -6  16   0    4.30    2.60
  -8 -16   0    5.50    1.80
  -8  16   0    6.20    2.70
   8  16   0    6.20    2.50
  -8  16   0    6.60    3.20
   1 -17   0   -1.40    1.20
  -1 -17   0    0.30    1.20
  -1  17   0    1.10    2.30
  -1  17   0    1.50    2.00
   1  17   0    0.40    2.20
  -3 -17   0    2.70    1.50
  -3  17   0    2.50    2.50
   3  17   0    1.60    2.30
  -3  17   0    1.00    1.90
  -5 -17   0   15.10    2.40
  -5  17   0   21.20    4.50
  -5  17   0   20.00    4.20
   5  17   0   15.50    3.80
  24   0  -1    1.30    1.50
 -24   0   1    0.80    1.90
  22   0  -1   -0.60    1.10
 -22   0   1   -0.60    1.60
  20   0  -1    1.30    1.30
 -20   0   1    0.40    1.50
 -18   0   1    2.00    1.50
  18   0  -1    1.50    1.20
 -18   0   1   -0.40    0.90
 -16   0   1   -0.10    0.90
 -16   0   1   -0.50    1.00
  16   0  -1   -1.00    0.80
 -16   0   1   -0.40    0.80
  14   0  -1    0.90    0.90
 -14   0   1    0.40    0.80
 -14   0   1    0.10    0.80
 -14   0   1    0.10    0.70
 -12   0   1    0.20    0.60
 -12   0   1    0.50    0.90
 -12   0   1   -0.30    0.60
  12   0  -1    1.20    0.80
 -10   0   1    0.90    0.70
 -10   0   1   -0.50    0.70
  10   0  -1    0.30    0.70
  10   0  -1    0.40    0.60
 -10   0   1    0.50    0.70
  -8   0   1    0.30    0.50
   8   0  -1    0.10    0.40
  -8   0   1   -0.80    0.60
   8   0  -1    0.50    0.50
  -8   0   1   -0.10    0.50
   8   0  -1    0.00    0.50
  -8   0   1    0.30    0.50
  -8   0   1   -0.30    0.40
  -6   0   1    0.40    0.50
   6   0  -1   -1.30    0.30
   6   0  -1   -1.10    0.30
   6   0  -1   -0.40    0.40
  -6   0   1   -1.00    0.40
  -6   0   1   -0.80    0.40
   4   0  -1   -0.80    0.20
  -4   0   1   -0.80    0.20
  -4   0   1   -0.40    0.30
   4   0  -1   -0.80    0.30
   4   0  -1   -0.60    0.30
  -4   0   1   -0.90    0.20
   2   0  -1    0.10    0.20
  -2   0   1    0.20    0.20
   2   0  -1    0.10    0.10
  -2   0   1   -0.10    0.10
   2   0  -1    0.00    0.10
  -2   0   1    0.00    0.10
   0   0  -1   -4.10    0.10
   0   0   1   -4.10    0.10
   0   0   1   -4.20    0.10
   0   0  -1   -4.10    0.10
  -2   0  -1   -2.20    0.20
  -2   0  -1   -2.30    0.20
   2   0   1   -2.50    0.30
  -2   0  -1   -2.70    0.30
  -2   0  -1   -2.20    0.30
   2   0   1   -2.10    0.30
  -2   0  -1   -2.30    0.30
   4   0   1    0.40    0.40
   4   0   1    0.40    0.30
   4   0   1   -0.50    0.40
  -4   0  -1   -0.40    0.40
  -4   0  -1    0.10    0.30
  -4   0  -1    0.10    0.50
  -4   0  -1    1.60    0.60
  -6   0  -1   -0.90    0.50
  -6   0  -1   -0.60    0.30
  -6   0  -1   -0.90    0.60
   6   0   1   -1.10    0.40
  -6   0  -1    0.40    0.60
   6   0   1   -0.50    0.30
  -6   0  -1   -1.20    0.50
   6   0   1   -1.80    0.50
  -8   0  -1    0.40    0.80
   8   0   1    0.70    0.90
   8   0   1    0.10    0.40
  -8   0  -1    0.20    0.50
 -10   0  -1    0.10    0.80
 -10   0  -1    0.30    0.50
  10   0   1   -0.40    0.40
 -12   0  -1    0.20    0.90
  12   0   1   -0.70    0.80
 -12   0  -1   -0.20    0.60
 -12   0  -1    0.00    0.50
 -14   0  -1    0.10    0.70
  14   0   1    0.30    1.00
 -14   0  -1    0.00    0.80
 -14   0  -1    0.80    1.10
 -14   0  -1    0.30    0.60
 -16   0  -1    1.00    0.90
 -16   0  -1    0.10    1.10
  16   0   1   -1.20    0.90
 -16   0  -1    1.50    0.80
  18   0   1   -0.70    1.20
 -18   0  -1    1.10    1.40
 -20   0  -1    0.80    1.60
  20   0   1   -1.30    1.30
 -22   0  -1   -0.30    1.70
  22   0   1   -0.50    1.40
 -23  -1   1   11.00    2.90
  23  -1  -1    9.60    2.30
 -23   1   1    7.00    2.50
  23   1  -1    5.60    2.00
  21  -1  -1    0.60    1.20
 -21  -1   1    2.60    2.00
  21   1  -1   -1.20    1.10
 -21   1   1    0.70    1.50
 -19  -1   1   48.40    4.50
  19  -1  -1   44.80    3.70
 -19   1   1   55.29    4.70
  19   1  -1   53.99    3.90
 -19   1   1   55.29    3.60
  17  -1  -1    5.80    1.60
 -17  -1   1    3.60    1.10
 -17  -1   1    6.00    1.80
  17   1  -1    4.50    1.40
 -17   1   1    3.60    1.20
 -17   1   1    2.10    1.40
 -15  -1   1    7.90    1.30
  15  -1  -1    6.40    1.50
 -15  -1   1    5.00    1.10
 -15  -1   1    8.70    1.90
 -15   1   1    4.60    1.30
  15   1  -1    5.10    1.40
 -15   1   1    6.30    1.70
 -13  -1   1   44.60    2.50
  13  -1  -1   35.70    2.60
  13  -1  -1   44.30    2.80
 -13  -1   1   39.10    3.10
 -13  -1   1   40.00    2.40
  13   1  -1   39.70    2.80
 -13   1   1   43.30    2.70
 -13   1   1   39.90    3.10
  11  -1  -1   55.39    2.90
 -11  -1   1   50.39    2.60
 -11  -1   1   51.29    2.70
  11  -1  -1   46.30    3.10
  11  -1  -1   49.20    2.90
 -11  -1   1   49.20    3.20
 -11   1   1   52.69    2.90
 -11   1   1   48.80    3.30
  11   1  -1   50.19    2.90
  -9  -1   1   74.49    3.20
  -9  -1   1   75.69    3.20
  -9  -1   1   76.19    4.00
   9  -1  -1   70.89    3.40
   9  -1  -1   75.69    3.50
   9  -1  -1   79.79    3.80
  -9  -1   1   71.89    3.70
  -9   1   1   70.09    3.70
  -9   1   1   73.69    3.80
  -9   1   1   75.69    3.50
   9   1  -1   72.79    3.50
  -7  -1   1   27.30    1.80
   7  -1  -1   22.50    1.70
  -7  -1   1   26.20    1.80
   7  -1  -1   24.50    1.60
  -7  -1   1   24.30    1.50
  -7  -1   1   24.90    1.50
  -7  -1   1   24.60    1.70
  -7   1   1   25.90    1.80
  -7   1   1   24.20    1.60
   7   1  -1   20.80    1.50
  -7   1   1   25.70    1.70
   5  -1  -1  194.38    6.50
  -5  -1   1  205.38    6.50
  -5  -1   1  203.28    6.60
  -5  -1   1  199.78    6.40
   5  -1  -1  192.18    6.60
   5  -1  -1  196.68    6.60
  -5  -1   1  192.68    6.60
  -5   1   1  200.18    6.50
  -5   1   1  183.28    6.60
   5   1  -1  200.28    6.40
   5   1  -1  195.58    6.40
  -5   1   1  207.08    6.60
   3  -1  -1   56.19    2.30
  -3  -1   1   58.89    2.10
   3  -1  -1   58.89    2.10
  -3  -1   1   61.09    2.20
  -3  -1   1   58.29    2.20
   3  -1  -1   58.39    2.10
   3   1  -1   57.49    2.10
  -3   1   1   55.79    2.30
   3   1  -1   59.29    2.30
  -3   1   1   60.09    2.10
  -1  -1   1  729.73   22.00
   1  -1  -1  746.33   21.90
   1  -1  -1  731.33   21.80
  -1   1   1  760.42   22.10
  -1  -1  -1 1133.29   35.90
   1  -1   1 1195.48   34.40
   1  -1   1 1147.99   34.30
  -1  -1  -1 1171.28   34.20
   1  -1   1 1155.08   34.40
  -1  -1  -1 1195.18   34.50
  -1   1  -1 1152.48   34.40
  -1   1  -1 1160.58   34.40
  -1   1  -1 1202.78   34.30
   1   1   1 1146.69   36.20
  -1   1  -1 1162.48   34.40
   1   1   1 1183.38   34.50
   1   1   1 1205.68   34.20
  -1   1  -1 1156.78   34.50
   3  -1   1    3.70    0.50
  -3  -1  -1    2.00    0.50
   3  -1   1    1.80    0.50
   3  -1   1    2.20    0.60
  -3  -1  -1    2.70    0.70
  -3   1  -1    1.20    0.50
  -3   1  -1    1.80    0.50
  -3   1  -1    2.60    0.50
   3   1   1    3.80    0.80
  -3   1  -1    3.20    0.60
   3   1   1    1.90    0.50
  -3   1  -1    1.70    0.50
  -3   1  -1    1.60    0.60
  -5  -1  -1    4.50    1.00
  -5  -1  -1    4.80    0.90
   5  -1   1    4.70    0.70
   5  -1   1    4.60    0.90
   5   1   1    4.30    0.80
  -5   1  -1    4.70    0.70
  -5   1  -1    6.00    1.00
  -5   1  -1    5.90    0.90
  -5   1  -1    5.60    0.90
  -5   1  -1    3.30    0.80
   7  -1   1   20.90    2.00
  -7  -1  -1   23.40    1.90
   7  -1   1   21.70    1.50
  -7   1  -1   23.40    2.10
  -7   1  -1   23.20    1.50
   7   1   1   20.50    1.80
  -7   1  -1   21.20    1.90
  -7   1  -1   21.40    1.90
   9  -1   1   23.30    1.70
   9  -1   1   23.00    2.30
  -9  -1  -1   24.20    1.30
  -9  -1  -1   22.30    2.10
  -9   1  -1   25.10    1.70
   9   1   1   24.20    2.10
  -9   1  -1   23.40    2.20
 -11  -1  -1    1.20    1.00
  11  -1   1    0.40    0.90
  11  -1   1   -0.40    0.50
 -11  -1  -1    0.00    0.40
  11   1   1    0.70    0.70
 -11   1  -1   -0.20    0.70
 -11   1  -1    1.10    0.70
 -13  -1  -1   52.59    3.80
 -13  -1  -1   50.29    2.30
  13  -1   1   49.10    2.80
 -13   1  -1   44.30    3.50
  13   1   1   50.19    3.50
 -13   1  -1   53.39    2.80
 -15  -1  -1    0.80    1.20
  15  -1   1    1.70    1.20
 -15  -1  -1    1.50    0.60
 -15   1  -1    0.90    0.80
 -15   1  -1    1.40    1.20
  15   1   1   -0.10    1.00
 -15   1  -1    0.90    0.90
  17  -1   1   65.09    4.50
 -17  -1  -1   65.09    4.80
  17   1   1   63.49    4.50
 -17   1  -1   69.49    5.00
 -17   1  -1   58.39    3.40
 -17   1  -1   62.79    3.30
 -19  -1  -1    2.30    1.80
  19  -1   1    1.80    1.60
 -19   1  -1    2.50    1.70
  19   1   1    1.00    1.30
 -21  -1  -1    3.00    1.80
  21  -1   1    8.20    2.20
 -21   1  -1    3.50    2.00
  21   1   1    9.50    2.40
  22  -2  -1   17.00    2.70
 -22  -2   1   12.80    3.00
 -22   2   1   14.20    3.20
  22   2  -1   12.40    2.50
  20  -2  -1   55.59    4.10
 -20  -2   1   53.59    4.70
 -20   2   1   51.79    3.60
  20   2  -1   50.49    3.90
 -20   2   1   48.60    4.60
 -18  -2   1    5.50    1.20
  18  -2  -1    7.60    1.80
 -18  -2   1    7.30    2.20
 -18   2   1    3.40    1.80
 -18   2   1    4.00    1.40
  18   2  -1    8.00    1.90
  16  -2  -1   17.20    2.20
 -16  -2   1   16.80    1.60
 -16  -2   1   15.40    2.50
 -16  -2   1   18.60    1.70
 -16   2   1   18.30    2.10
 -16   2   1   10.80    2.30
  16   2  -1   17.40    2.20
 -14  -2   1  238.78    8.40
  14  -2  -1  236.18    9.10
 -14  -2   1  245.58    8.40
 -14  -2   1  240.78    9.70
 -14   2   1  236.28    9.00
  14   2  -1  250.47    9.30
 -14   2   1  248.08    9.90
 -12  -2   1  131.49    5.10
  12  -2  -1  136.39    6.10
 -12  -2   1  137.39    5.10
 -12  -2   1  130.19    6.00
  12   2  -1  127.79    5.60
 -12   2   1  133.99    6.10
 -12   2   1  133.19    5.70
 -10  -2   1  544.05   17.10
 -10  -2   1  573.64   18.00
  10  -2  -1  545.95   17.90
  10  -2  -1  542.45   17.90
 -10  -2   1  570.44   17.10
  10  -2  -1  563.04   17.70
 -10   2   1  600.14   18.00
 -10   2   1  536.65   17.60
 -10   2   1  520.25   17.60
  10   2  -1  538.15   17.60
   8  -2  -1  291.77   10.10
   8  -2  -1  306.37   10.30
  -8  -2   1  298.47   10.20
  -8  -2   1  300.77   10.10
  -8  -2   1  309.67    9.70
  -8  -2   1  325.27   10.30
   8  -2  -1  320.17   10.30
   8   2  -1  304.57    9.70
  -8   2   1  316.17   10.20
   8   2  -1  295.87   10.00
  -8   2   1  296.07   10.20
   8   2  -1  312.67   10.30
  -8   2   1  264.67    9.90
   6  -2  -1    2.40    0.70
   6  -2  -1    2.90    0.80
  -6  -2   1    1.60    0.60
  -6  -2   1    3.00    0.70
   6  -2  -1    1.40    0.60
  -6  -2   1    1.60    0.50
  -6   2   1    1.90    0.60
   6   2  -1    2.20    0.60
  -6   2   1    2.50    0.60
   6   2  -1    2.40    0.60
   6   2  -1    2.80    0.60
  -6   2   1    2.20    0.70
  -6   2   1    1.90    0.60
   4  -2  -1  533.85   16.10
  -4  -2   1  528.85   16.20
   4  -2  -1  540.35   16.50
  -4  -2   1  537.45   16.10
  -4  -2   1  542.85   16.30
   4  -2  -1  544.45   16.20
  -4   2   1  518.15   16.50
   4   2  -1  561.84   16.20
   4   2  -1  533.35   16.30
   4   2  -1  533.15   16.10
  -4   2   1  543.65   16.00
  -4   2   1  533.85   16.00
   2  -2  -1  373.26   11.30
   2  -2  -1  373.66   11.60
  -2  -2   1  369.06   11.10
  -2  -2   1  369.96   11.20
  -2  -2   1  377.96   11.50
   2  -2  -1  368.76   11.20
  -2  -2   1  378.66   11.20
   2   2  -1  390.36   11.20
   2   2  -1  369.76   11.20
  -2   2   1  363.76   11.20
  -2   2   1  372.86   11.10
  -2   2   1  367.36   11.60
   0  -2  -1  704.43   20.50
   0  -2  -1  668.13   20.20
   0  -2   1  696.93   20.70
   0  -2   1  696.13   20.60
   0  -2  -1  699.83   20.30
   0  -2  -1  698.53   20.30
   0  -2   1  671.13   20.30
   0  -2   1  696.23   20.60
   0   2  -1  694.23   20.70
   0   2   1  700.33   20.20
   0   2   1  674.73   20.50
   0   2  -1  694.33   20.60
   0   2   1  692.03   20.30
   0   2  -1  668.73   20.20
   0   2  -1  688.33   20.60
   2  -2   1  176.88    6.10
   2  -2   1  185.58    5.80
  -2  -2  -1  176.08    5.60
  -2  -2  -1  173.08    5.80
   2  -2   1  182.48    5.90
  -2  -2  -1  187.68    6.00
   2  -2   1  179.38    6.00
   2   2   1  177.78    5.70
  -2   2  -1  171.78    6.00
  -2   2  -1  184.18    5.80
   2   2   1  176.98    5.70
   2   2   1  182.28    5.90
  -2   2  -1  168.38    6.10
  -2   2  -1  182.08    5.70
   2   2   1  187.78    5.90
   4  -2   1  338.87   11.10
   4  -2   1  337.47   10.90
   4  -2   1  345.97   11.10
   4  -2   1  347.17   10.90
  -4  -2  -1  334.57   10.90
  -4  -2  -1  350.26   11.40
  -4   2  -1  346.07   10.80
   4   2   1  375.56   11.10
  -4   2  -1  344.67   10.90
   4   2   1  332.17   10.90
  -4   2  -1  353.66   11.10
  -4   2  -1  332.87   10.90
  -4   2  -1  326.07   11.00
   6  -2   1  449.56   14.20
  -6  -2  -1  425.26   14.00
   6  -2   1  429.56   13.90
   6  -2   1  427.66   14.30
   6  -2   1  434.16   13.70
  -6   2  -1  465.35   14.20
  -6   2  -1  416.66   13.90
  -6   2  -1  435.66   13.80
  -6   2  -1  454.95   14.10
  -6   2  -1  420.16   13.70
  -6   2  -1  424.76   13.80
   6   2   1  403.06   13.90
   6   2   1  462.25   14.10
  -8  -2  -1  458.35   15.20
   8  -2   1  448.86   15.50
   8  -2   1  474.35   14.80
  -8   2  -1  465.05   15.20
  -8   2  -1  470.55   14.70
   8   2   1  461.55   15.20
  10  -2   1    6.90    1.10
  10  -2   1    6.20    1.50
 -10  -2  -1    4.40    1.20
  10   2   1    2.50    1.00
 -10   2  -1    4.30    1.00
 -10   2  -1    3.80    1.20
 -12  -2  -1   27.30    2.70
  12  -2   1   24.40    2.70
  12  -2   1   28.20    2.30
  12   2   1   29.70    2.70
 -12   2  -1   31.90    2.40
 -12   2  -1   27.50    2.10
 -12   2  -1   32.30    2.90
  14  -2   1  115.29    6.40
 -14  -2  -1  115.29    6.10
 -14   2  -1  110.49    5.10
 -14   2  -1  114.39    6.10
 -14   2  -1  109.69    5.00
  14   2   1  113.29    5.80
 -16  -2  -1   43.90    3.90
  16  -2   1   45.70    3.60
 -16   2  -1   44.70    3.10
 -16   2  -1   45.90    4.00
  16   2   1   45.00    3.80
 -16   2  -1   48.60    3.00
 -18  -2  -1  108.59    6.40
  18  -2   1   91.49    5.60
  18   2   1   92.69    5.70
 -18   2  -1   96.89    6.30
  20  -2   1   42.30    4.00
 -20  -2  -1   39.00    4.30
  20   2   1   39.10    3.90
 -20   2  -1   41.90    4.50
 -22  -2  -1   35.10    4.40
  22  -2   1   28.40    3.70
 -22   2  -1   35.70    4.50
  22   2   1   24.30    3.50
  23  -3  -1   14.40    2.60
 -23  -3   1    9.90    2.80
  23   3  -1   11.60    2.50
 -23   3   1   12.30    3.10
 -21  -3   1   32.90    4.00
  21  -3  -1   30.40    3.30
  21   3  -1   30.10    3.30
 -21   3   1   29.00    3.90
  19  -3  -1   48.60    3.80
 -19  -3   1   48.90    4.40
 -19   3   1   53.69    3.80
 -19   3   1   59.39    4.70
  19   3  -1   50.19    3.90
 -17  -3   1   31.10    3.40
 -17  -3   1   33.50    2.20
  17  -3  -1   36.40    3.10
 -17   3   1   30.40    3.40
  17   3  -1   33.60    3.10
 -17   3   1   29.10    2.90
  15  -3  -1   59.79    3.70
 -15  -3   1   64.59    3.20
 -15  -3   1   68.89    4.40
 -15   3   1   69.19    4.00
 -15   3   1   67.39    4.50
  15   3  -1   67.29    4.00
  13  -3  -1   47.00    3.40
 -13  -3   1   48.80    3.40
  13  -3  -1   49.70    3.40
 -13  -3   1   47.50    2.60
 -13   3   1   44.90    3.40
  13   3  -1   45.40    3.10
 -13   3   1   46.80    3.20
  11  -3  -1  265.77    9.50
 -11  -3   1  244.68    9.30
  11  -3  -1  247.28    9.20
 -11  -3   1  239.08    8.30
 -11   3   1  244.98    9.20
  11   3  -1  246.28    9.00
  -9  -3   1  349.07   11.80
   9  -3  -1  363.16   12.00
   9  -3  -1  347.77   11.80
   9  -3  -1  339.77   11.70
  -9   3   1  307.17   11.30
   9   3  -1  354.56   11.60
  -9   3   1  354.16   11.90
  -9   3   1  371.46   11.70
   9   3  -1  343.27   11.10
  -7  -3   1  227.88    7.70
  -7  -3   1  230.78    7.90
   7  -3  -1  228.38    7.80
   7  -3  -1  231.48    8.20
  -7  -3   1  220.88    7.90
   7  -3  -1  217.88    7.90
   7   3  -1  230.18    7.80
  -7   3   1  234.58    7.70
  -7   3   1  219.68    8.20
   7   3  -1  217.38    7.60
  -7   3   1  227.38    7.60
  -7   3   1  238.88    7.70
   7   3  -1  239.28    8.00
   5  -3  -1   59.29    2.50
   5  -3  -1   64.89    2.70
   5  -3  -1   65.59    3.10
  -5  -3   1   65.89    2.80
  -5  -3   1   58.69    2.60
   5  -3  -1   65.39    2.60
  -5   3   1   62.09    2.50
  -5   3   1   60.59    2.40
   5   3  -1   62.09    2.80
   5   3  -1   66.79    2.80
   5   3  -1   60.09    2.60
  -5   3   1   65.59    3.10
  -3  -3   1  609.14   18.50
  -3  -3   1  618.94   18.60
   3  -3  -1  601.84   18.80
   3  -3  -1  598.64   18.10
   3  -3  -1  623.64   18.10
  -3  -3   1  601.64   18.20
  -3  -3   1  625.14   18.10
  -3   3   1  611.24   17.90
   3   3  -1  599.24   18.20
   3   3  -1  633.54   18.20
   3   3  -1  612.64   18.70
  -3   3   1  585.44   18.70
  -3   3   1  622.44   18.10
  -1  -3   1 1942.41   57.99
   1  -3  -1 1985.40   57.59
  -1  -3   1 2015.70   57.99
   1  -3  -1 2008.70   57.89
   1  -3  -1 1892.51   57.39
  -1  -3   1 1993.40   58.09
  -1  -3   1 1979.00   58.19
   1  -3  -1 1915.21   57.79
   1  -3  -1 1949.51   57.59
  -1  -3   1 2067.39   57.89
   1   3  -1 2027.70   57.89
   1   3  -1 1945.81   58.09
  -1   3   1 2002.50   57.29
   1   3  -1 1944.01   57.99
  -1   3   1 2062.29   57.39
   1   3  -1 2014.00   57.59
  -1   3   1 1976.30   57.99
  -1  -3  -1  365.26   11.00
   1  -3   1  369.06   10.80
  -1  -3  -1  357.66   10.90
  -1  -3  -1  355.36   11.20
   1  -3   1  339.57   10.90
   1  -3   1  361.16   11.50
   1  -3   1  357.56   11.60
  -1   3  -1  343.67   11.50
  -1   3  -1  360.76   10.90
  -1   3  -1  357.86   11.60
   1   3   1  363.26   11.20
   1   3   1  363.16   11.30
   1   3   1  358.56   11.00
   1   3   1  369.96   11.00
   3  -3   1   43.20    1.90
  -3  -3  -1   39.90    2.00
  -3  -3  -1   40.00    2.10
   3  -3   1   42.90    2.10
   3  -3   1   39.70    2.20
  -3  -3  -1   42.10    1.80
   3   3   1   40.60    2.00
   3   3   1   40.90    1.80
  -3   3  -1   41.10    1.90
   3   3   1   39.40    1.90
  -3   3  -1   40.00    1.80
  -3   3  -1   37.50    2.30
   3   3   1   45.60    2.10
  -3   3  -1   42.20    2.30
   5  -3   1  165.68    6.20
  -5  -3  -1  162.98    5.30
  -5  -3  -1  149.88    5.80
   5  -3   1  157.08    5.80
   5  -3   1  166.18    6.10
  -5  -3  -1  158.28    5.20
   5  -3   1  151.48    6.00
  -5   3  -1  159.68    6.10
  -5   3  -1  165.88    5.70
  -5   3  -1  165.08    6.20
  -5   3  -1  168.58    5.90
   5   3   1  152.08    5.90
   5   3   1  180.48    6.20
  -7  -3  -1  264.67    9.60
   7  -3   1  281.07    9.60
   7  -3   1  268.27    9.90
   7  -3   1  267.77    9.80
   7  -3   1  266.17    9.60
  -7   3  -1  281.77    9.70
   7   3   1  277.27    9.70
  -7   3  -1  299.17    9.90
  -7   3  -1  284.47    9.80
  -7   3  -1  290.37    9.60
  -7   3  -1  273.07    9.50
   9  -3   1   57.59    3.60
  -9  -3  -1   51.49    3.20
   9  -3   1   56.89    3.20
  -9   3  -1   56.49    3.10
   9   3   1   50.19    3.10
  -9   3  -1   50.29    3.20
  -9   3  -1   52.59    3.30
  11  -3   1    3.50    1.30
 -11  -3  -1    4.40    1.30
 -11   3  -1    7.00    1.50
 -11   3  -1    4.00    1.10
  11   3   1    1.90    1.00
 -11   3  -1    4.30    1.30
 -13  -3  -1  185.98    8.10
  13  -3   1  185.08    8.40
 -13   3  -1  180.48    8.20
 -13   3  -1  181.48    7.50
 -13   3  -1  189.18    7.40
  13   3   1  192.88    8.00
 -15  -3  -1   70.69    4.70
  15  -3   1   65.29    4.90
 -15   3  -1   69.79    4.10
  15   3   1   69.39    4.40
 -15   3  -1   62.69    4.60
 -15   3  -1   71.09    3.90
 -17  -3  -1   90.59    5.80
 -17   3  -1   90.09    4.60
  17   3   1   87.39    5.40
 -17   3  -1   80.49    5.60
 -17   3  -1   97.49    5.00
 -19  -3  -1   52.79    4.70
  19  -3   1   43.00    4.00
 -19   3  -1   56.29    5.00
  19   3   1   50.09    4.30
  21  -3   1   18.10    3.00
 -21  -3  -1   15.40    3.20
  21   3   1   19.90    3.10
 -21   3  -1   18.90    3.40
  22  -4  -1   56.39    4.30
 -22  -4   1   57.29    5.10
 -22   4   1   52.59    5.20
  22   4  -1   55.29    4.40
 -20  -4   1   20.00    3.20
  20  -4  -1   20.30    2.70
 -20   4   1   23.70    3.00
 -20   4   1   19.20    3.20
 -20   4   1   26.70    3.00
  20   4  -1   21.70    2.80
  18  -4  -1   92.19    5.20
 -18  -4   1   91.49    5.80
 -18   4   1  100.89    5.50
 -18   4   1   96.99    6.10
  18   4  -1   99.99    5.50
 -16  -4   1   49.30    3.90
 -16  -4   1   51.39    2.80
  16   4  -1   55.49    3.70
 -16   4   1   45.80    3.60
 -16   4   1   50.19    4.00
 -14  -4   1    9.10    1.80
  14  -4  -1    5.40    1.60
  14  -4  -1   10.70    1.90
 -14  -4   1    9.20    1.20
 -14  -4   1   12.50    1.40
  14   4  -1    9.30    1.60
 -14   4   1    6.00    1.70
 -14   4   1    9.40    1.80
 -12  -4   1  251.47    8.50
 -12  -4   1  242.08    9.30
  12  -4  -1  235.68    9.30
 -12  -4   1  246.78    8.40
  12  -4  -1  238.88    9.50
  12   4  -1  240.38    8.40
  12   4  -1  247.28    9.10
 -12   4   1  249.28    9.40
 -10  -4   1  116.09    4.60
  10  -4  -1  111.39    5.10
 -10  -4   1  107.39    4.90
  10  -4  -1  109.79    5.00
 -10   4   1  115.79    5.30
 -10   4   1  116.19    4.70
  10   4  -1  108.49    4.80
  10   4  -1  102.19    4.40
   8  -4  -1   76.99    3.70
  -8  -4   1   83.99    3.80
   8  -4  -1   67.79    3.50
   8  -4  -1   84.39    3.80
  -8  -4   1   81.59    3.60
  -8   4   1   81.29    3.40
   8   4  -1   77.19    3.60
   8   4  -1   82.69    3.60
  -8   4   1   81.49    4.10
   6  -4  -1  305.37   10.00
  -6  -4   1  320.17   10.40
   6  -4  -1  311.17   10.10
   6  -4  -1  304.77   10.20
   6  -4  -1  325.07   10.90
  -6  -4   1  305.97   10.10
  -6  -4   1  314.17   10.30
   6   4  -1  336.47   10.30
  -6   4   1  311.77   10.80
   6   4  -1  307.97   10.10
   6   4  -1  320.87   10.40
  -6   4   1  298.87    9.70
  -6   4   1  319.47   10.00
  -4  -4   1  456.85   14.30
  -4  -4   1  440.86   13.90
   4  -4  -1  450.45   13.80
   4  -4  -1  450.35   13.60
   4  -4  -1  453.55   14.60
  -4  -4   1  443.46   14.10
  -4  -4   1  448.96   13.70
  -4   4   1  447.06   14.60
   4   4  -1  461.75   13.80
   4   4  -1  442.16   14.30
  -4   4   1  459.25   13.70
  -4   4   1  453.65   13.40
  -2  -4   1  549.85   16.70
   2  -4  -1  527.95   16.00
  -2  -4   1  535.25   15.90
  -2  -4   1  540.45   16.90
  -2  -4   1  533.55   15.80
   2  -4  -1  534.55   15.90
   2  -4  -1  565.64   16.90
  -2  -4   1  530.25   16.20
  -2  -4   1  541.05   16.10
  -2   4   1  530.65   15.90
   2   4  -1  542.85   16.90
  -2   4   1  518.65   15.80
   2   4  -1  543.65   15.90
  -2   4   1  536.35   16.90
   2   4  -1  524.05   16.70
  -2   4   1  527.55   16.00
   0  -4  -1  454.95   13.60
   0  -4  -1  435.16   13.40
   0  -4   1  457.05   14.50
   0  -4   1  444.76   13.30
   0  -4   1  435.26   13.60
   0  -4  -1  452.25   13.60
   0  -4  -1  446.96   14.10
   0  -4   1  441.36   14.30
   0   4   1  451.25   14.20
   0   4   1  443.66   13.50
   0   4  -1  442.56   13.50
   0   4  -1  451.05   13.20
   0   4   1  451.45   13.50
   0   4  -1  455.25   13.30
   0   4  -1  442.96   14.50
   0   4   1  460.55   14.30
   0   4   1  469.85   13.70
   2  -4   1  220.38    7.60
  -2  -4  -1  205.98    6.90
  -2  -4  -1  204.58    7.10
  -2  -4  -1  206.28    6.80
   2  -4   1  210.18    6.70
   2  -4   1  206.08    6.90
  -2   4  -1  204.58    7.70
   2   4   1  197.48    7.00
  -2   4  -1  211.38    6.70
   2   4   1  210.78    7.20
  -2   4  -1  208.68    7.50
   2   4   1  224.28    7.00
   2   4   1  205.38    6.90
  -4  -4  -1  169.68    6.10
  -4  -4  -1  162.48    5.70
  -4  -4  -1  162.78    5.90
   4  -4   1  159.68    5.90
   4  -4   1  165.68    5.80
   4  -4   1  175.88    6.40
  -4   4  -1  168.88    6.60
  -4   4  -1  166.48    5.70
   4   4   1  172.18    6.10
  -4   4  -1  156.18    6.30
  -4   4  -1  165.98    5.60
   4   4   1  160.48    5.90
   4   4   1  164.48    5.80
   4   4   1  165.48    5.70
  -6  -4  -1  115.79    4.10
  -6  -4  -1  116.29    4.80
   6  -4   1  112.79    4.70
   6  -4   1  124.79    5.20
  -6  -4  -1  112.89    4.20
   6  -4   1  105.59    4.80
   6  -4   1  124.69    5.10
  -6   4  -1  107.89    5.00
   6   4   1  116.99    4.80
  -6   4  -1  109.39    5.20
  -6   4  -1  116.49    4.50
  -6   4  -1  122.29    4.60
   8  -4   1   54.49    3.20
  -8  -4  -1   54.79    2.30
  -8  -4  -1   52.79    2.20
   8  -4   1   40.30    3.00
   8  -4   1   52.59    3.10
  -8  -4  -1   49.80    3.00
  -8   4  -1   52.29    3.40
  -8   4  -1   52.09    3.10
   8   4   1   49.40    3.00
   8   4   1   47.80    2.10
 -10  -4  -1  268.07   10.10
  10  -4   1  277.77   10.50
  10  -4   1  284.97   10.30
 -10   4  -1  267.77   10.20
 -10   4  -1  266.57   10.20
 -10   4  -1  275.27   10.00
  10   4   1  277.77   10.10
 -12  -4  -1   92.09    4.90
  12  -4   1   87.29    5.20
 -12   4  -1   83.99    4.50
 -12   4  -1   88.69    4.80
  12   4   1   96.29    4.90
 -12   4  -1   87.29    4.90
  14  -4   1   53.49    4.20
 -14  -4  -1   51.49    3.80
  14   4   1   49.00    3.60
 -14   4  -1   54.29    3.50
 -14   4  -1   49.99    3.90
 -14   4  -1   49.60    3.60
  16  -4   1   79.09    5.50
 -16  -4  -1   79.19    5.20
 -16   4  -1   78.59    4.70
 -16   4  -1   72.59    5.10
  16   4   1   73.89    4.80
 -16   4  -1   80.79    4.50
 -18  -4  -1   36.50    3.90
 -18   4  -1   41.00    3.30
 -18   4  -1   40.40    4.20
  18   4   1   37.50    3.70
 -18   4  -1   45.20    3.60
 -20  -4  -1   53.09    4.90
  20  -4   1   51.69    4.40
 -20   4  -1   46.10    4.80
  20   4   1   63.49    4.70
 -22  -4  -1   14.40    3.10
  22  -4   1    8.50    2.40
 -22   4  -1    9.60    2.80
  22   4   1    8.40    2.30
 -23  -5   1   10.70    2.80
 -23   5   1   17.50    3.50
  23   5  -1   14.10    2.70
 -21  -5   1   49.80    4.60
  21  -5  -1   43.00    3.80
  21   5  -1   52.99    4.10
 -21   5   1   34.20    4.30
 -21   5   1   47.30    4.40
 -21   5   1   39.50    3.80
  19  -5  -1   17.40    2.40
 -19  -5   1   15.50    2.70
  19   5  -1   15.40    2.50
 -19   5   1   13.10    2.40
 -19   5   1   13.70    2.70
 -19   5   1   10.60    2.50
 -17  -5   1   61.09    4.40
  17   5  -1   64.89    4.20
 -17   5   1   55.49    4.20
 -17   5   1   60.99    4.60
 -15  -5   1   58.69    4.10
  15  -5  -1   56.39    4.10
  15  -5  -1   59.19    4.30
 -15  -5   1   61.19    3.10
 -15   5   1   57.09    4.00
 -15   5   1   57.39    4.30
  15   5  -1   61.39    3.90
 -13  -5   1   80.19    3.80
  13  -5  -1   77.09    4.40
  13  -5  -1   75.59    4.50
 -13  -5   1   71.89    4.30
 -13   5   1   71.29    4.40
  13   5  -1   69.99    4.00
  13   5  -1   75.49    3.60
 -11  -5   1   13.00    1.50
  11  -5  -1   14.40    1.80
 -11  -5   1   16.40    1.90
  11  -5  -1   16.20    2.00
 -11   5   1   13.00    2.00
  11   5  -1   14.90    1.80
  11   5  -1   12.90    1.50
  -9  -5   1  200.38    7.20
  -9  -5   1  205.88    7.40
   9  -5  -1  200.08    7.40
  -9  -5   1  194.08    7.40
   9  -5  -1  193.68    7.60
   9  -5  -1  190.68    7.30
  -9   5   1  202.98    8.10
   9   5  -1  196.78    7.30
  -9   5   1  211.48    7.00
   9   5  -1  195.68    7.40
  -7  -5   1   64.09    3.10
   7  -5  -1   64.49    3.10
  -7  -5   1   67.89    3.30
  -7  -5   1   72.39    3.50
   7  -5  -1   61.99    3.10
   7  -5  -1   64.29    3.00
   7   5  -1   65.19    3.30
   7   5  -1   67.59    3.20
  -7   5   1   68.39    2.70
  -7   5   1   61.59    3.70
   7   5  -1   68.59    3.30
  -5  -5   1  111.99    4.80
   5  -5  -1  113.09    4.30
  -5  -5   1  107.19    4.10
  -5  -5   1  113.79    4.70
   5  -5  -1  102.19    4.00
   5   5  -1  116.69    4.40
  -5   5   1  115.09    3.80
  -5   5   1  116.79    5.20
   5   5  -1  111.39    4.30
   5   5  -1  108.59    4.80
  -5   5   1  120.69    4.20
   3  -5  -1  541.65   16.50
  -3  -5   1  574.24   17.40
  -3  -5   1  537.75   16.80
   3  -5  -1  572.04   17.80
   3  -5  -1  526.85   16.70
  -3  -5   1  548.35   16.80
  -3  -5   1  560.14   17.60
  -3  -5   1  546.15   16.40
   3   5  -1  573.34   17.70
  -3   5   1  564.14   16.60
  -3   5   1  544.25   16.40
  -3   5   1  539.85   17.70
   3   5  -1  565.64   16.60
   1  -5  -1  438.16   13.30
   1  -5  -1  459.35   14.30
   1  -5  -1  432.46   13.20
   1  -5  -1  433.76   13.40
  -1  -5   1  444.06   14.50
  -1  -5   1  445.46   14.30
  -1  -5   1  430.06   13.00
   1  -5  -1  433.96   13.30
  -1  -5   1  419.26   13.50
  -1  -5   1  436.36   13.10
  -1   5   1  448.76   13.30
  -1   5   1  437.86   14.30
   1   5  -1  445.06   14.50
   1   5  -1  437.66   13.50
  -1   5   1  439.86   14.50
   1   5  -1  448.96   13.10
  -1   5   1  457.45   13.50
  -1  -5  -1    1.30    0.40
  -1  -5  -1    1.00    0.60
  -1  -5  -1    0.90    0.50
   1  -5   1    0.50    0.30
   1  -5   1    0.50    0.60
   1  -5   1    1.00    0.40
   1  -5   1    1.40    0.80
  -1  -5  -1    1.10    0.40
  -1   5  -1    0.80    0.40
   1   5   1   -0.20    0.30
   1   5   1    0.80    0.60
  -1   5  -1    1.30    0.90
   1   5   1   -0.10    0.60
  -1   5  -1    2.00    0.80
  -1   5  -1    0.60    0.30
   1   5   1   -0.20    0.30
   3  -5   1  206.18    7.80
  -3  -5  -1  204.08    7.10
  -3  -5  -1  200.78    6.90
   3  -5   1  199.98    7.00
   3  -5   1  200.58    6.80
  -3  -5  -1  204.78    7.20
   3   5   1  198.18    6.90
  -3   5  -1  206.88    8.00
  -3   5  -1  192.98    7.60
   3   5   1  199.68    7.10
  -3   5  -1  209.98    6.70
   3   5   1  201.68    7.30
   3   5   1  214.88    7.10
  -3   5  -1  216.98    6.60
  -5  -5  -1  120.09    4.80
  -5  -5  -1  117.99    4.60
   5  -5   1  116.39    4.90
   5  -5   1  125.69    4.80
  -5   5  -1  119.89    5.40
  -5   5  -1  120.49    4.50
  -5   5  -1  120.89    4.40
   5   5   1  120.09    4.70
  -5   5  -1  123.59    5.60
   5   5   1  114.79    4.80
   7  -5   1  240.58    8.40
  -7  -5  -1  224.68    7.40
   7  -5   1  210.68    8.00
  -7  -5  -1  224.08    8.00
   7  -5   1  207.58    8.20
   7   5   1  206.98    8.00
  -7   5  -1  218.88    8.70
  -7   5  -1  222.58    8.50
   9  -5   1  217.88    8.90
   9  -5   1  226.18    8.70
   9  -5   1  242.58    9.00
  -9  -5  -1  231.28    7.50
  -9  -5  -1  231.28    8.70
  -9   5  -1  227.98    8.90
   9   5   1  234.38    8.70
  -9   5  -1  226.98    9.10
   9   5   1  235.68    7.60
  11  -5   1  232.58    9.80
  11  -5   1  254.47    9.80
 -11  -5  -1  260.47    9.70
 -11   5  -1  246.28    9.60
 -11   5  -1  262.27    9.90
 -11   5  -1  239.58    9.80
  11   5   1  240.58    9.50
 -13  -5  -1   15.40    2.20
  13  -5   1   11.10    2.20
 -13   5  -1   13.10    2.10
 -13   5  -1   13.80    2.30
  13   5   1   13.10    2.00
 -13   5  -1   15.20    2.30
  15  -5   1   69.09    5.00
 -15  -5  -1   81.19    4.90
  15   5   1   65.99    4.40
 -15   5  -1   69.59    4.80
 -15   5  -1   66.99    4.30
 -15   5  -1   74.59    4.70
 -17  -5  -1   14.70    2.70
  17  -5   1   15.20    2.90
 -17   5  -1   18.20    2.40
  17   5   1   15.30    2.50
 -17   5  -1   13.20    2.40
 -17   5  -1   11.90    2.60
 -19  -5  -1   51.99    4.60
  19   5   1   41.20    4.00
 -19   5  -1   43.00    4.50
  21  -5   1   21.30    3.20
 -21  -5  -1   16.70    3.20
  21   5   1   16.40    2.90
 -21   5  -1   19.30    3.50
 -22  -6   1   12.40    2.80
 -22   6   1   12.20    3.00
  22   6  -1   11.10    2.40
  20  -6  -1    3.10    1.60
 -20  -6   1   -0.80    1.40
 -20   6   1    2.40    2.00
 -20   6   1    1.10    1.60
 -20   6   1    0.10    1.50
  20   6  -1   -0.50    1.00
 -18  -6   1   72.79    5.00
 -18   6   1   70.59    5.30
  18   6  -1   74.09    4.80
 -18   6   1   83.79    5.60
 -18   6   1   79.29    5.10
  16  -6  -1   85.89    5.20
  16  -6  -1   82.09    5.30
 -16  -6   1   80.89    3.80
 -16  -6   1   78.79    5.00
 -16   6   1   78.49    5.10
  16   6  -1   83.69    4.80
 -16   6   1   80.69    5.30
  14  -6  -1    4.00    1.60
 -14  -6   1    5.40    1.50
  14  -6  -1    7.90    1.80
 -14  -6   1    5.90    1.30
 -14  -6   1    6.90    1.20
  14   6  -1    4.90    1.10
 -14   6   1    7.40    1.90
  14   6  -1   11.20    1.80
  12  -6  -1   -0.40    0.90
 -12  -6   1    2.80    1.10
  12  -6  -1    0.80    0.90
 -12  -6   1    1.00    0.90
 -12  -6   1    0.70    0.70
  12   6  -1    1.40    0.90
  12   6  -1    0.80    0.80
 -12   6   1    0.20    0.90
 -10  -6   1    4.40    1.10
  10  -6  -1    7.60    1.30
  10  -6  -1    7.00    1.20
  10  -6  -1    4.90    1.30
 -10  -6   1    7.30    1.30
 -10  -6   1    4.30    1.20
  10   6  -1    5.40    1.20
  10   6  -1    4.50    1.10
 -10   6   1    6.00    1.00
 -10   6   1    6.90    1.60
   8  -6  -1    2.10    0.80
  -8  -6   1    1.70    0.90
   8  -6  -1    1.00    0.70
  -8  -6   1    0.80    0.60
   8  -6  -1    2.10    0.90
  -8  -6   1    2.30    1.00
  -8   6   1    0.10    0.50
  -8   6   1    3.60    1.30
   8   6  -1    2.10    0.80
   8   6  -1    1.00    0.80
   6  -6  -1  151.78    5.40
  -6  -6   1  161.58    6.40
  -6  -6   1  147.89    6.00
  -6  -6   1  143.59    5.40
   6  -6  -1  145.09    5.60
   6   6  -1  151.68    5.70
   6   6  -1  141.79    6.10
  -6   6   1  153.58    6.60
  -6   6   1  155.88    5.10
   6   6  -1  157.08    5.70
   4  -6  -1  330.27   10.50
  -4  -6   1  340.07   11.50
   4  -6  -1  336.87   10.70
  -4  -6   1  326.77   10.50
  -4  -6   1  352.06   11.80
  -4  -6   1  344.77   11.00
  -4   6   1  336.77   10.40
  -4   6   1  346.87   10.70
  -4   6   1  317.57   11.80
   4   6  -1  340.07   11.80
   4   6  -1  344.27   10.80
   2  -6  -1   67.69    2.80
  -2  -6   1   65.89    2.50
  -2  -6   1   74.39    3.00
  -2  -6   1   67.09    2.60
   2  -6  -1   67.49    2.70
  -2  -6   1   65.69    2.90
   2  -6  -1   66.59    2.70
  -2  -6   1   75.09    3.80
  -2  -6   1   66.29    3.80
   2   6  -1   66.49    2.70
   2   6  -1   64.49    3.60
  -2   6   1   63.59    3.60
  -2   6   1   65.09    3.90
  -2   6   1   66.69    2.80
   2   6  -1   62.39    3.80
  -2   6   1   70.79    2.70
   0  -6  -1   18.20    1.20
   0  -6   1   16.20    1.20
   0  -6  -1   16.30    1.70
   0  -6  -1   19.10    1.20
   0  -6  -1   15.60    1.20
   0  -6  -1   17.60    1.30
   0  -6   1   16.70    1.00
   0   6  -1   19.00    1.30
   0   6  -1   17.00    1.10
   0   6  -1   18.00    1.00
   0   6   1   18.10    2.00
   0   6   1   20.50    1.30
   0   6  -1   15.90    1.90
   0   6  -1   13.80    1.90
   0   6   1   16.80    1.80
  -2  -6  -1  132.49    5.20
  -2  -6  -1  138.89    5.70
  -2  -6  -1  134.69    4.90
   2  -6   1  145.19    5.20
   2  -6   1  137.29    4.80
  -2  -6  -1  131.69    5.00
   2   6   1  141.29    5.20
   2   6   1  140.59    5.90
   2   6   1  141.19    5.70
  -2   6  -1  145.19    6.40
   2   6   1  140.29    5.00
  -2   6  -1  143.59    4.70
  -2   6  -1  143.29    6.10
  -2   6  -1  143.09    4.90
  -4  -6  -1   36.40    2.40
   4  -6   1   35.40    2.20
   4  -6   1   34.70    2.10
  -4  -6  -1   33.20    2.10
   4   6   1   34.40    2.30
  -4   6  -1   37.20    1.90
   4   6   1   40.60    2.60
   4   6   1   35.80    2.20
  -4   6  -1   38.30    3.10
  -4   6  -1   38.70    2.00
  -4   6  -1   33.20    2.70
   6  -6   1    1.80    1.00
  -6  -6  -1    2.90    0.90
  -6  -6  -1    2.40    0.80
   6  -6   1    3.60    1.00
   6  -6   1    3.30    1.00
  -6   6  -1    1.70    1.30
   6   6   1    3.00    0.90
   6   6   1    3.40    1.00
  -6   6  -1    1.40    1.00
   8  -6   1    0.30    0.80
  -8  -6  -1    0.70    0.70
  -8  -6  -1    1.20    0.60
   8  -6   1    0.00    0.80
   8  -6   1    1.10    0.80
   8   6   1    1.30    0.80
  -8   6  -1    0.00    1.00
  -8   6  -1    0.40    0.90
 -10  -6  -1   83.79    4.40
 -10  -6  -1   85.79    3.50
  10  -6   1   83.79    4.80
  10  -6   1   77.69    4.50
  10  -6   1   90.09    4.70
  10   6   1   77.99    4.40
 -10   6  -1   82.99    5.00
  10   6   1   86.49    3.60
 -10   6  -1   87.59    4.80
  12  -6   1   14.70    2.30
  12  -6   1   19.60    2.50
 -12  -6  -1   15.40    2.10
 -12   6  -1   16.00    2.30
 -12   6  -1   17.30    2.40
 -12   6  -1   13.10    2.40
  12   6   1   22.60    2.40
 -14  -6  -1    8.40    1.90
  14  -6   1    8.70    2.20
 -14   6  -1    8.50    2.20
 -14   6  -1    8.10    2.10
  14   6   1   11.00    2.00
 -14   6  -1    7.60    1.90
 -16  -6  -1   12.60    2.40
  16  -6   1   12.30    2.50
 -16   6  -1   15.90    2.60
  16   6   1   10.50    2.10
 -16   6  -1   13.00    2.60
 -16   6  -1    8.20    2.00
  18  -6   1    5.00    2.20
 -18  -6  -1    6.40    2.00
 -18   6  -1    5.50    1.80
 -18   6  -1    6.10    2.20
 -18   6  -1    8.10    2.30
  18   6   1    4.90    1.80
 -20  -6  -1   -0.70    1.50
  20   6   1    1.60    1.50
 -20   6  -1    4.00    2.00
 -21  -7   1    1.80    1.70
  21   7  -1    1.30    1.40
 -21   7   1    2.50    1.80
 -21   7   1    4.70    2.50
 -21   7   1    2.30    2.00
 -19  -7   1    5.00    2.00
 -19   7   1    0.70    2.00
 -19   7   1    2.50    1.80
 -19   7   1    2.50    1.80
  19   7  -1    3.40    1.50
  17  -7  -1    1.10    1.70
  17  -7  -1    1.50    1.50
 -17  -7   1   -0.30    1.20
 -17   7   1    0.40    1.50
  17   7  -1    0.10    1.10
 -17   7   1   -0.30    1.40
 -17   7   1    3.10    2.10
 -15  -7   1    2.80    1.50
  15  -7  -1    0.90    1.30
  15  -7  -1    5.50    1.70
  15   7  -1    4.20    1.20
  15   7  -1    4.00    1.30
 -15   7   1    6.60    2.20
 -15   7   1    1.30    1.40
 -13  -7   1   12.00    1.90
  13  -7  -1   12.50    2.20
  13  -7  -1   11.60    1.90
 -13   7   1   11.70    2.30
  13   7  -1    8.40    1.60
  13   7  -1   14.70    1.70
  11  -7  -1    8.40    1.50
 -11  -7   1   10.50    1.60
  11  -7  -1   11.60    1.90
  11  -7  -1    8.60    1.50
 -11   7   1    8.70    2.00
  11   7  -1    5.70    1.30
  11   7  -1    8.40    1.40
   9  -7  -1   12.60    1.50
  -9  -7   1   14.60    1.60
   9  -7  -1   13.00    1.60
   9  -7  -1   13.60    1.70
   9   7  -1   12.40    1.50
  -9   7   1   16.20    2.40
  -9   7   1   16.20    1.30
   9   7  -1   16.70    1.90
  -7  -7   1    1.10    0.60
   7  -7  -1    0.30    0.60
   7  -7  -1    0.60    0.60
  -7   7   1    0.80    0.50
   7   7  -1   -0.10    0.70
   7   7  -1    0.00    0.50
  -7   7   1   -0.50    0.80
   5  -7  -1   15.80    1.30
  -5  -7   1   16.80    1.30
   5  -7  -1   15.70    1.40
  -5  -7   1   13.20    1.40
   5   7  -1   13.00    1.30
   5   7  -1   13.70    1.90
  -5   7   1   13.60    2.20
  -5   7   1   16.60    2.20
   5   7  -1   14.90    1.40
  -5   7   1   14.10    1.10
  -3  -7   1   50.29    2.10
  -3  -7   1   51.49    2.60
   3  -7  -1   43.00    2.30
   3  -7  -1   49.00    2.30
   3  -7  -1   52.79    2.30
  -3  -7   1   50.39    2.20
   3   7  -1   50.69    3.40
   3   7  -1   48.50    3.20
  -3   7   1   48.90    2.20
  -3   7   1   49.70    3.60
  -3   7   1   57.09    3.60
   3   7  -1   45.60    2.30
   1  -7  -1  201.48    6.90
  -1  -7   1  192.98    7.00
   1  -7  -1  208.88    6.90
   1  -7  -1  205.88    6.90
  -1  -7   1  202.88    6.60
  -1   7   1  211.98    8.40
  -1   7   1  201.88    8.10
   1   7  -1  202.98    8.10
   1   7  -1  207.78    6.70
   1   7  -1  198.88    8.30
  -1   7   1  207.48    7.00
  -1   7   1  217.38    6.90
   1  -7   1   38.90    2.20
  -1  -7  -1   40.40    2.10
  -1  -7  -1   37.80    2.10
  -1  -7  -1   36.70    1.90
   1   7   1   42.20    2.20
  -1   7  -1   38.00    2.90
  -1   7  -1   37.90    3.20
  -1   7  -1   39.30    1.80
   1   7   1   35.10    3.00
  -1   7  -1   43.90    1.90
   1   7   1   36.00    2.70
   3  -7   1   15.20    1.30
  -3  -7  -1   15.20    1.30
   3  -7   1   16.70    1.50
  -3  -7  -1   15.30    1.40
  -3   7  -1   18.00    2.40
   3   7   1   16.10    1.90
   3   7   1   14.70    1.40
  -3   7  -1   18.10    2.20
  -3   7  -1   17.50    1.20
   3   7   1   13.50    1.70
  -5  -7  -1    4.10    0.90
   5  -7   1    4.80    1.00
  -5  -7  -1    4.00    1.10
   5  -7   1    5.80    1.10
  -5   7  -1    4.50    1.60
  -5   7  -1    5.60    1.50
   5   7   1    4.40    1.10
   5   7   1    5.20    1.00
  -7  -7  -1    0.00    0.60
   7  -7   1   -0.10    0.80
  -7  -7  -1    0.10    0.70
   7  -7   1   -0.10    0.70
   7  -7   1    1.00    0.80
   7   7   1    0.90    0.80
   7   7   1    0.40    0.60
  -7   7  -1    2.20    1.30
  -7   7  -1    0.30    1.00
  -9  -7  -1    0.00    0.80
   9  -7   1   -1.10    0.70
   9  -7   1    0.40    0.90
  -9  -7  -1    0.40    0.70
   9  -7   1    0.80    0.90
   9   7   1    0.40    0.70
  -9   7  -1    0.40    1.20
  -9   7  -1    0.40    1.10
   9   7   1    0.10    0.80
 -11  -7  -1   15.70    1.50
 -11  -7  -1   12.70    1.90
  11  -7   1   13.10    2.10
  11  -7   1   18.50    2.40
  11  -7   1   16.40    2.30
 -11   7  -1   18.20    2.60
  11   7   1   16.10    2.10
  11   7   1   15.50    1.50
 -11   7  -1   19.10    2.80
  13  -7   1   -2.20    1.00
  13  -7   1    0.20    1.10
 -13  -7  -1   -0.60    0.90
 -13   7  -1    0.20    1.30
 -13   7  -1   -2.20    0.90
 -13   7  -1    0.10    1.10
  13   7   1   -0.20    0.90
  15  -7   1   12.70    2.50
 -15  -7  -1   10.50    2.20
 -15   7  -1   14.00    2.50
 -15   7  -1   12.50    2.60
  15   7   1    8.80    1.90
 -15   7  -1    5.90    2.00
  17  -7   1    2.50    1.90
 -17  -7  -1    1.80    1.60
 -17   7  -1    4.10    1.70
  17   7   1   -0.50    1.10
 -17   7  -1    1.70    1.70
 -17   7  -1    4.10    1.90
 -19  -7  -1    6.00    2.10
  19  -7   1    6.90    2.40
 -19   7  -1    8.30    2.50
  19   7   1    3.90    1.70
 -19   7  -1    7.40    2.50
 -19   7  -1    9.30    2.40
 -20  -8   1   -1.00    1.30
 -20   8   1    1.70    2.10
  20   8  -1    2.00    1.50
 -20   8   1    2.30    1.90
 -20   8   1    0.60    1.80
  18  -8  -1   33.60    4.00
 -18  -8   1   35.00    3.50
  18   8  -1   29.70    3.20
 -18   8   1   35.90    3.90
 -18   8   1   33.60    4.00
 -18   8   1   36.00    4.30
  16  -8  -1   10.10    2.20
 -16  -8   1   12.20    2.30
  16  -8  -1    8.80    2.20
 -16   8   1    9.40    2.40
 -16   8   1   11.10    2.80
  16   8  -1    7.50    1.80
  14  -8  -1   15.50    2.20
 -14  -8   1   14.30    2.10
  14  -8  -1   16.20    2.50
 -14   8   1   13.30    2.80
  14   8  -1   18.00    2.00
 -14   8   1   18.20    2.90
  14   8  -1   11.10    1.90
  12  -8  -1   23.10    2.60
  12  -8  -1   19.40    2.20
  12  -8  -1   18.60    2.20
 -12  -8   1   17.40    2.10
 -12   8   1   20.50    2.90
  12   8  -1   22.80    2.30
  12   8  -1   18.50    2.10
 -12   8   1   22.90    3.30
  10  -8  -1   40.50    2.70
  10  -8  -1   38.50    2.90
 -10  -8   1   41.50    2.70
  10  -8  -1   38.30    2.80
  10   8  -1   39.50    3.00
  10   8  -1   35.50    2.70
 -10   8   1   46.50    4.10
 -10   8   1   38.80    3.60
   8  -8  -1   23.80    2.10
   8  -8  -1   22.70    2.00
   8  -8  -1   23.50    1.90
  -8  -8   1   23.10    1.80
   8   8  -1   23.30    2.00
  -8   8   1   24.50    1.50
  -8   8   1   25.50    3.10
  -8   8   1   19.20    2.60
   8   8  -1   23.60    2.40
   6  -8  -1    1.70    0.70
   6  -8  -1    1.10    0.70
  -6  -8   1    1.90    0.80
  -6  -8   1    1.50    0.60
  -6   8   1    1.20    0.50
   6   8  -1    1.50    0.70
  -6   8   1    2.00    1.40
   6   8  -1    2.80    1.10
  -6   8   1    1.90    1.20
  -4  -8   1  172.78    6.40
   4  -8  -1  165.08    6.00
  -4  -8   1  175.48    5.70
   4  -8  -1  166.68    6.10
  -4  -8   1  170.18    5.90
  -4   8   1  167.78    7.60
  -4   8   1  168.28    5.80
   4   8  -1  170.48    6.20
  -4   8   1  172.78    7.90
   4   8  -1  161.08    7.30
  -2  -8   1  289.27    9.20
   2  -8  -1  272.17    9.30
  -2  -8   1  294.17    9.70
   2  -8  -1  297.07    9.40
   2  -8  -1  283.07    9.40
  -2  -8   1  291.87    9.00
  -2   8   1  286.77   11.20
  -2   8   1  293.17   11.00
   2   8  -1  286.67   11.10
   2   8  -1  281.17    9.30
   2   8  -1  294.67   10.90
   0  -8  -1   92.59    3.80
   0  -8  -1   93.29    3.60
   0  -8   1   95.89    3.60
   0  -8  -1   93.69    3.80
   0  -8   1   94.39    4.00
   0   8   1   92.79    4.90
   0   8  -1   98.59    5.10
   0   8   1   94.39    5.20
   0   8  -1   94.79    3.60
   0   8  -1   96.89    3.70
   0   8  -1  103.39    5.40
   2  -8   1   44.10    2.20
  -2  -8  -1   41.90    2.10
  -2  -8  -1   40.90    2.30
  -2  -8  -1   39.70    2.30
   2  -8   1   41.20    2.40
  -2   8  -1   35.60    3.40
   2   8   1   39.90    3.20
  -2   8  -1   42.00    1.90
  -2   8  -1   39.30    3.20
  -2   8  -1   42.50    2.00
   2   8   1   41.50    3.00
   4  -8   1    6.20    1.10
   4  -8   1    5.40    1.00
  -4  -8  -1    5.40    0.90
  -4  -8  -1    4.00    0.90
  -4   8  -1    3.80    1.40
   4   8   1    5.20    1.20
   4   8   1    5.30    1.40
   4   8   1    3.60    0.90
  -4   8  -1    6.00    1.80
   6  -8   1   35.70    2.50
  -6  -8  -1   34.90    2.30
   6  -8   1   37.70    2.40
   6   8   1   30.90    2.30
   6   8   1   34.80    2.70
  -6   8  -1   37.70    3.60
  -6   8  -1   33.10    3.20
   8  -8   1    5.10    1.30
  -8  -8  -1    4.10    1.10
   8  -8   1    4.20    1.20
   8  -8   1    4.40    1.40
  -8   8  -1    5.10    1.70
  -8   8  -1    3.10    1.50
   8   8   1    4.90    1.20
   8   8   1    4.30    1.20
  10  -8   1   23.90    2.50
 -10  -8  -1   23.70    2.00
 -10  -8  -1   26.30    2.40
  10  -8   1   27.30    2.70
  10  -8   1   25.10    2.70
 -10   8  -1   25.00    3.00
  10   8   1   25.60    2.50
  10   8   1   23.00    2.10
 -10   8  -1   30.50    3.40
  12  -8   1   32.80    3.20
  12  -8   1   35.00    3.20
 -12  -8  -1   33.40    2.90
  12  -8   1   33.30    3.30
 -12   8  -1   31.30    3.40
 -12   8  -1   32.70    3.70
  12   8   1   29.00    2.90
  12   8   1   37.40    2.40
  14  -8   1    5.50    1.90
  14  -8   1    5.30    1.90
 -14  -8  -1    4.90    1.60
  14   8   1    5.80    1.70
 -14   8  -1    6.00    2.00
 -14   8  -1    5.30    2.20
 -14   8  -1    4.50    1.70
  16  -8   1   22.10    3.20
 -16  -8  -1   20.90    2.80
 -16   8  -1   23.40    3.20
 -16   8  -1   21.50    3.10
 -16   8  -1   19.50    3.40
  16   8   1   19.90    2.80
  18  -8   1    8.50    2.50
 -18  -8  -1    7.20    2.10
  18   8   1    5.90    1.90
 -18   8  -1    7.20    2.40
 -18   8  -1    6.30    2.20
 -18   8  -1    8.10    2.30
 -20  -8  -1    4.80    2.10
 -20   8  -1    9.70    2.80
  20   8   1    7.30    2.10
  19  -9  -1   23.20    3.60
 -19  -9   1   23.50    3.00
 -19   9   1   22.30    3.70
 -19   9   1   16.40    3.10
  19   9  -1   15.90    2.60
 -19   9   1   17.30    3.70
  17  -9  -1   34.30    3.90
 -17  -9   1   35.50    3.40
 -17   9   1   39.70    4.60
 -17   9   1   36.80    4.20
  17   9  -1   35.40    3.30
  15  -9  -1   27.00    3.00
 -15  -9   1   28.10    2.90
  15  -9  -1   29.50    3.30
 -15   9   1   24.50    3.70
  15   9  -1   27.60    2.80
 -15   9   1   26.20    3.60
  13  -9  -1   69.89    4.40
 -13  -9   1   70.59    4.10
  13  -9  -1   69.69    4.30
  13  -9  -1   69.99    4.60
 -13   9   1   75.59    5.70
  13   9  -1   72.29    4.20
  13   9  -1   68.39    4.20
 -13   9   1   77.09    5.40
  11  -9  -1   17.60    2.00
  11  -9  -1   21.80    2.30
 -11  -9   1   21.90    2.10
  11  -9  -1   24.60    2.60
 -11   9   1   24.20    3.20
  11   9  -1   17.00    2.10
  11   9  -1   27.70    2.70
 -11   9   1   26.20    3.60
   9  -9  -1  109.19    5.10
   9  -9  -1  101.39    4.80
   9  -9  -1  107.09    5.20
  -9  -9   1  113.29    5.20
  -9  -9   1  102.79    4.60
   9   9  -1  104.29    5.60
   9   9  -1  111.89    5.00
  -9   9   1  125.99    6.90
  -9   9   1  106.09    6.20
   7  -9  -1   63.89    3.50
   7  -9  -1   62.79    3.30
  -7  -9   1   66.39    3.10
  -7  -9   1   65.09    3.50
  -7   9   1   69.79    5.00
  -7   9   1   63.69    4.50
   7   9  -1   56.89    4.00
   7   9  -1   67.49    3.40
  -5  -9   1  108.59    4.70
  -5  -9   1  111.39    4.10
  -5  -9   1  107.29    4.30
   5  -9  -1  110.89    4.50
   5  -9  -1  107.19    4.60
  -5   9   1  105.69    6.10
   5   9  -1  111.09    5.80
  -5   9   1  108.79    5.90
   3  -9  -1  219.28    7.60
  -3  -9   1  219.68    7.90
  -3  -9   1  220.78    7.40
   3  -9  -1  218.78    7.70
  -3  -9   1  226.18    7.20
   3   9  -1  217.58    9.10
   3   9  -1  214.18    7.60
  -3   9   1  223.38    9.30
   3   9  -1  215.88    9.30
  -3   9   1  230.68    9.70
   1  -9  -1   50.09    2.50
  -1  -9   1   47.10    2.20
   1  -9  -1   47.80    2.50
  -1  -9   1   46.50    2.60
  -1   9   1   47.00    3.80
  -1   9   1   47.70    3.50
   1   9  -1   43.80    2.30
   1   9  -1   50.09    3.80
   1   9  -1   47.30    3.50
  -1  -9  -1    7.50    1.00
  -1  -9  -1    8.70    0.90
   1  -9   1    7.40    1.10
  -1  -9  -1    6.90    1.00
  -1   9  -1    8.60    2.00
  -1   9  -1   10.50    1.00
   1   9   1    8.00    1.70
   1   9   1    7.00    1.90
  -1   9  -1    5.90    0.80
  -1   9  -1    6.00    1.60
  -3  -9  -1   49.90    2.80
  -3  -9  -1   44.60    2.40
   3  -9   1   49.50    2.50
   3  -9   1   51.59    2.80
  -3  -9  -1   46.60    2.60
   3   9   1   51.79    3.60
  -3   9  -1   51.99    3.80
  -3   9  -1   45.70    3.90
   3   9   1   46.30    3.30
  -5  -9  -1  114.39    4.90
  -5  -9  -1  111.49    4.60
   5  -9   1  102.59    4.90
   5  -9   1  121.99    4.90
   5   9   1  117.79    5.70
  -5   9  -1  113.19    6.40
   5   9   1  119.89    4.90
  -5   9  -1  105.69    6.00
   5   9   1  107.29    5.40
  -7  -9  -1  135.69    5.50
   7  -9   1  123.39    5.60
   7  -9   1  129.49    5.90
   7   9   1  132.29    6.20
  -7   9  -1  130.49    7.10
   7   9   1  131.69    5.70
  -7   9  -1  141.49    7.00
  -9  -9  -1  129.09    5.70
   9  -9   1  126.09    6.30
   9  -9   1  121.49    5.90
   9  -9   1  128.29    6.10
   9   9   1  133.69    6.00
  -9   9  -1  134.49    7.30
   9   9   1  127.49    5.80
  -9   9  -1  124.39    6.70
 -11  -9  -1  206.48    8.30
  11  -9   1  202.48    8.80
  11  -9   1  198.78    8.60
  11  -9   1  207.08    9.00
  11   9   1  211.68    8.10
 -11   9  -1  207.38    9.40
 -11   9  -1  207.68    9.90
  11   9   1  198.38    8.40
  13  -9   1    6.70    2.00
  13  -9   1    8.30    2.10
 -13  -9  -1    7.30    1.70
  13  -9   1    3.60    1.70
 -13   9  -1    8.90    2.30
 -13   9  -1    3.70    2.20
  13   9   1    6.50    1.60
  15  -9   1   86.89    5.70
  15  -9   1   80.19    5.40
 -15  -9  -1   64.99    4.60
 -15   9  -1   72.79    5.10
 -15   9  -1   72.79    5.70
  15   9   1   71.79    4.80
 -15   9  -1   80.09    5.50
 -17  -9  -1   36.90    3.60
  17  -9   1   30.10    3.70
 -17   9  -1   40.70    4.50
  17   9   1   27.10    3.20
 -17   9  -1   26.40    3.60
 -17   9  -1   39.20    4.20
 -19  -9  -1   36.70    3.90
 -19   9  -1   42.50    4.70
 -19   9  -1   32.40    4.00
 -19   9  -1   35.50    4.30
  19   9   1   32.00    3.60
  18 -10  -1   84.39    6.10
 -18 -10   1   92.29    5.40
 -18  10   1   90.29    6.20
 -18  10   1   84.39    6.60
  18  10  -1   75.49    5.10
 -18  10   1   81.19    6.20
  16 -10  -1   80.49    5.60
 -16 -10   1   87.79    5.10
  16  10  -1   93.49    5.30
 -16  10   1   85.89    6.50
 -16  10   1   84.99    6.10
  14 -10  -1   35.00    3.20
  14 -10  -1   41.50    3.80
  14 -10  -1   36.20    3.40
 -14 -10   1   37.90    3.10
  14  10  -1   36.10    3.20
 -14  10   1   40.40    4.60
 -14  10   1   40.30    4.30
  12 -10  -1   23.50    2.60
 -12 -10   1   24.70    2.30
  12 -10  -1   28.00    3.00
  12 -10  -1   22.00    2.40
 -12  10   1   21.60    3.30
  12  10  -1   29.60    2.70
 -12  10   1   20.50    3.60
  12  10  -1   24.00    2.70
 -10 -10   1   33.90    2.40
 -10 -10   1   25.80    2.50
  10 -10  -1   35.50    2.90
  10 -10  -1   26.90    2.50
  10 -10  -1   28.30    2.80
 -10  10   1   29.20    3.80
 -10  10   1   28.00    3.50
  10  10  -1   23.80    2.40
  -8 -10   1   45.80    3.00
   8 -10  -1   43.00    2.80
   8 -10  -1   37.60    2.90
  -8 -10   1   46.50    2.60
   8  10  -1   41.10    3.50
  -8  10   1   41.00    4.30
  -8  10   1   47.80    4.10
   6 -10  -1  193.68    7.20
  -6 -10   1  193.38    6.70
   6 -10  -1  189.28    7.30
  -6 -10   1  190.18    6.90
  -6 -10   1  194.68    7.50
   6  10  -1  191.38    8.70
  -6  10   1  193.38    9.00
  -6  10   1  195.28    9.30
   4 -10  -1  335.57   11.10
  -4 -10   1  327.47   10.70
  -4 -10   1  334.17   11.30
  -4 -10   1  327.57   10.50
   4 -10  -1  332.27   11.10
  -4  10   1  331.77   13.00
   4  10  -1  335.37   12.90
  -4  10   1  321.77   13.20
  -2 -10   1   83.79    4.00
  -2 -10   1   86.59    3.50
   2 -10  -1   88.19    3.80
   2 -10  -1   83.89    3.80
   2  10  -1   91.19    5.50
   2  10  -1   87.49    5.10
  -2  10   1   87.29    5.20
  -2  10   1   85.39    5.40
   0 -10   1   88.39    4.00
   0 -10  -1   86.19    3.70
   0 -10  -1   85.99    3.80
   0 -10   1   86.59    3.50
   0  10  -1   85.49    5.40
   0  10   1   79.59    5.30
   0  10   1   80.19    5.00
   0  10  -1   85.29    5.10
  -2 -10  -1  212.68    7.60
   2 -10   1  210.58    8.00
  -2 -10  -1  214.18    7.80
  -2 -10  -1  222.68    7.40
   2 -10   1  225.98    7.60
  -2  10  -1  220.98    9.90
   2  10   1  212.88    9.30
  -2  10  -1  209.88    9.40
   2  10   1  217.78    9.10
  -4 -10  -1  131.29    5.30
   4 -10   1  129.39    5.60
  -4 -10  -1  130.39    5.00
   4 -10   1  126.39    5.20
  -4 -10  -1  129.59    5.50
  -4  10  -1  122.79    7.00
   4  10   1  118.19    6.40
  -4  10  -1  139.89    7.00
   4  10   1  127.49    6.20
   6 -10   1   37.00    2.80
  -6 -10  -1   34.40    2.50
  -6 -10  -1   31.90    2.50
  -6 -10  -1   36.20    2.30
   6 -10   1   36.10    2.50
  -6  10  -1   33.70    3.70
   6  10   1   33.30    2.40
   6  10   1   41.90    3.30
  -6  10  -1   36.90    4.10
  -8 -10  -1   67.19    3.60
   8 -10   1   65.89    3.90
   8 -10   1   68.89    4.10
   8 -10   1   75.09    4.50
   8  10   1   65.79    4.30
   8  10   1   74.99    4.00
  -8  10  -1   68.99    4.90
  -8  10  -1   57.09    5.10
  10 -10   1  173.98    7.70
  10 -10   1  172.98    7.90
  10 -10   1  178.88    8.20
 -10 -10  -1  180.98    7.30
  10  10   1  172.68    7.50
 -10  10  -1  176.98    8.70
 -10  10  -1  171.88    9.10
  12 -10   1   40.30    3.60
  12 -10   1   39.00    3.80
 -12 -10  -1   38.50    3.10
  12 -10   1   38.70    3.50
 -12  10  -1   43.50    4.30
 -12  10  -1   42.50    4.60
  12  10   1   45.00    3.40
 -14 -10  -1   57.39    4.10
  14 -10   1   60.39    4.90
  14 -10   1   60.59    4.70
  14 -10   1   56.39    4.50
 -14  10  -1   60.49    5.50
 -14  10  -1   48.00    4.30
  14  10   1   61.29    4.20
 -14  10  -1   62.49    5.10
 -16 -10  -1   43.00    3.80
 -16  10  -1   42.60    4.80
 -16  10  -1   47.20    4.70
 -16  10  -1   41.40    4.10
  16  10   1   49.40    3.90
 -18 -10  -1    8.30    2.20
 -18  10  -1   13.10    2.90
  18  10   1    9.70    2.30
 -18  10  -1   10.10    3.10
 -18  10  -1    9.00    2.70
 -19  11   1   48.90    5.60
 -17 -11   1   62.69    4.30
  17 -11  -1   57.19    5.10
 -17  11   1   54.09    5.70
  17  11  -1   58.99    4.30
 -17  11   1   50.59    5.20
 -15 -11   1   95.49    5.10
  15 -11  -1   86.79    5.80
  15  11  -1   93.09    5.30
 -15  11   1   88.29    6.80
 -15  11   1   87.69    6.40
  13 -11  -1   72.09    4.90
 -13 -11   1   77.09    4.70
 -13 -11   1   68.89    4.10
  13  11  -1   70.29    4.40
  13  11  -1   78.39    4.90
 -13  11   1   72.79    5.70
 -13  11   1   75.19    6.10
 -11 -11   1   73.19    4.40
  11 -11  -1   79.89    4.60
  11 -11  -1   74.99    4.60
  11 -11  -1   72.99    4.30
 -11 -11   1   75.69    4.00
  11  11  -1   75.59    4.90
 -11  11   1   74.39    5.90
 -11  11   1   75.39    5.60
  11  11  -1   72.39    4.20
  -9 -11   1   17.20    1.70
   9 -11  -1   14.90    2.00
  -9 -11   1   19.00    2.10
  -9 -11   1   17.60    1.90
   9 -11  -1   18.90    2.30
   9  11  -1   24.10    3.00
  -9  11   1   19.70    3.30
  -9  11   1   17.80    3.40
   7 -11  -1  113.29    5.30
  -7 -11   1  128.39    4.80
  -7 -11   1  124.79    5.60
  -7 -11   1  117.19    5.00
   7 -11  -1  116.79    5.50
  -7  11   1  124.09    7.00
  -7  11   1  120.19    7.20
   7  11  -1  115.29    6.50
  -5 -11   1  107.69    5.00
  -5 -11   1  112.39    4.20
  -5 -11   1  107.59    4.40
   5 -11  -1  111.89    4.80
   5 -11  -1  107.19    4.80
  -5  11   1  118.59    6.60
  -5  11   1  104.09    6.60
   5  11  -1   94.09    6.00
  -3 -11   1   10.40    1.20
  -3 -11   1   12.70    1.60
   3 -11  -1   11.90    1.40
   3 -11  -1   12.80    1.50
  -3  11   1   11.20    2.30
  -3  11   1   19.30    3.10
   3  11  -1    9.10    2.30
   1 -11  -1   83.99    3.90
   1 -11  -1   92.79    4.10
  -1 -11   1   91.39    4.20
  -1 -11   1   86.29    3.70
   1  11  -1   88.19    5.50
  -1  11   1  103.69    5.80
  -1  11   1   84.09    5.70
   1  11  -1   83.79    5.80
   1 -11   1  179.28    6.20
   1 -11   1  168.68    6.70
  -1 -11  -1  165.78    6.50
  -1 -11  -1  172.08    6.30
   1  11   1  166.48    8.30
  -1  11  -1  162.78    8.50
  -1  11  -1  171.98    8.30
   1  11   1  164.18    7.90
  -3 -11  -1  139.79    5.60
  -3 -11  -1  150.68    6.00
   3 -11   1  139.09    5.60
   3 -11   1  146.19    6.10
  -3 -11  -1  142.39    5.40
   3  11   1  128.59    6.80
  -3  11  -1  137.99    7.70
   3  11   1  139.69    7.20
  -3  11  -1  149.99    7.60
   5 -11   1   91.99    4.30
  -5 -11  -1   80.89    4.20
   5 -11   1   82.79    4.50
  -5 -11  -1   88.69    3.90
  -5 -11  -1   81.69    4.10
   5  11   1   88.49    5.30
  -5  11  -1   84.89    5.60
  -5  11  -1   85.99    6.10
   7 -11   1   66.39    4.10
  -7 -11  -1   66.59    3.50
  -7 -11  -1   73.99    4.10
   7 -11   1   66.49    3.90
  -7 -11  -1   71.49    3.90
   7  11   1   63.59    4.50
   7  11   1   65.69    3.80
  -7  11  -1   72.09    5.20
  -7  11  -1   81.29    5.80
   9 -11   1   90.89    5.00
  -9 -11  -1   85.79    4.40
   9 -11   1   90.29    5.40
   9 -11   1   93.79    5.20
  -9  11  -1   86.89    6.40
   9  11   1   86.39    4.70
  -9  11  -1   78.09    5.80
   9  11   1   95.19    5.40
 -11 -11  -1   36.00    2.90
  11 -11   1   41.20    3.50
  11 -11   1   36.60    3.50
  11 -11   1   44.80    4.00
 -11  11  -1   33.60    4.10
 -11  11  -1   25.00    4.10
  11  11   1   39.30    3.30
  11  11   1   40.60    3.40
  13 -11   1  114.39    6.50
 -13 -11  -1  118.99    6.00
  13 -11   1  118.19    6.60
  13 -11   1  113.79    6.80
 -13  11  -1  117.89    7.80
 -13  11  -1  110.69    7.20
  13  11   1  123.49    6.20
  15 -11   1   14.20    2.80
 -15 -11  -1   14.10    2.30
 -15  11  -1   12.40    2.90
 -15  11  -1   14.40    2.70
  15  11   1   15.50    2.60
 -15  11  -1   10.00    3.10
 -17 -11  -1   17.40    2.60
 -17  11  -1   18.00    3.80
  17  11   1   17.10    2.80
 -17  11  -1   13.10    3.00
 -17  11  -1   12.00    2.80
 -16 -12   1   37.70    3.30
  16 -12  -1   40.60    4.30
 -16 -12   1   35.50    3.60
 -16  12   1   41.40    5.30
  16  12  -1   34.70    3.50
 -16  12   1   39.90    4.80
 -14 -12   1  139.09    6.50
  14 -12  -1  131.99    7.30
 -14 -12   1  134.09    6.90
 -14  12   1  136.09    8.30
  14  12  -1  150.08    7.00
 -14  12   1  135.59    8.70
  12 -12  -1   68.69    4.50
 -12 -12   1   51.89    3.90
 -12 -12   1   55.99    3.50
 -12  12   1   52.39    5.20
  12  12  -1   61.19    4.50
 -12  12   1   49.50    5.40
 -10 -12   1   11.20    1.90
  10 -12  -1   12.80    2.00
 -10 -12   1   13.60    1.80
 -10 -12   1   15.20    1.70
  10 -12  -1   14.30    2.20
  10 -12  -1   11.90    2.20
 -10  12   1   12.20    2.80
 -10  12   1   13.00    3.20
   8 -12  -1   56.59    3.70
   8 -12  -1   54.99    3.60
  -8 -12   1   62.69    3.30
  -8 -12   1   58.89    3.00
  -8 -12   1   56.89    3.70
   8  12  -1   52.29    4.40
  -8  12   1   58.09    5.40
  -8  12   1   56.69    4.90
  -6 -12   1  103.69    4.30
   6 -12  -1  115.39    5.20
   6 -12  -1  111.59    5.20
  -6 -12   1  109.79    4.70
  -6 -12   1  110.19    5.30
  -6  12   1  102.39    7.00
  -6  12   1  111.59    6.80
   6  12  -1  115.19    6.70
  -4 -12   1    0.40    0.50
  -4 -12   1    0.70    0.60
   4 -12  -1   -0.70    0.80
   4 -12  -1   -0.20    0.70
  -4 -12   1   -0.50    0.60
  -4  12   1    2.20    2.00
  -4  12   1   -0.70    1.30
   4  12  -1    1.40    1.50
  -2 -12   1    0.60    0.70
   2 -12  -1   -0.40    0.60
  -2 -12   1    0.10    0.50
   2 -12  -1   -0.80    0.50
   2  12  -1    0.40    1.40
  -2  12   1   -0.40    1.20
   2  12  -1    1.40    1.40
  -2  12   1   -1.80    1.20
   0 -12  -1   17.30    1.70
   0 -12   1   21.00    1.70
   0 -12  -1   16.90    1.70
   0 -12   1   17.00    1.90
   0  12  -1   14.20    2.90
   0  12  -1   16.90    2.90
   0  12   1   16.50    2.80
   0  12   1   13.30    2.80
  -2 -12  -1   38.70    2.40
  -2 -12  -1   43.00    2.60
   2 -12   1   46.50    2.70
  -2 -12  -1   41.50    2.70
   2 -12   1   42.10    2.90
   2  12   1   40.80    4.10
  -2  12  -1   39.40    4.10
   2  12   1   36.90    3.70
  -2  12  -1   46.70    4.70
  -4 -12  -1  157.68    6.60
   4 -12   1  163.88    6.40
  -4 -12  -1  155.08    6.20
   4 -12   1  160.48    6.80
  -4 -12  -1  149.99    5.90
   4  12   1  157.08    8.00
  -4  12  -1  160.88    8.40
   4  12   1  149.79    7.70
  -4  12  -1  160.58    8.80
  -6 -12  -1   59.99    3.50
   6 -12   1   61.49    3.70
  -6 -12  -1   60.29    3.70
  -6 -12  -1   60.09    3.20
   6 -12   1   63.19    4.00
  -6  12  -1   56.09    5.40
  -6  12  -1   57.79    5.00
   6  12   1   68.19    4.80
  -8 -12  -1   75.09    4.20
  -8 -12  -1   68.89    4.30
   8 -12   1   82.39    4.60
   8 -12   1   73.29    4.70
  -8 -12  -1   78.79    4.00
   8  12   1   73.69    4.20
  -8  12  -1   70.49    6.00
   8  12   1   74.79    5.10
  -8  12  -1   72.39    5.60
 -10 -12  -1   16.80    2.30
  10 -12   1   18.30    2.80
 -10 -12  -1   16.60    2.00
  10 -12   1   15.00    2.40
 -10 -12  -1   18.70    2.40
  10 -12   1   21.30    2.70
 -10  12  -1   18.40    3.70
  10  12   1   15.90    2.20
  10  12   1   18.00    2.80
  12 -12   1   30.70    3.30
  12 -12   1   27.40    3.20
 -12 -12  -1   27.00    2.70
  12 -12   1   31.30    3.50
 -12  12  -1   28.40    4.50
  12  12   1   26.40    2.90
 -12  12  -1   21.00    3.70
 -14 -12  -1   32.70    3.10
  14 -12   1   41.70    4.20
 -14  12  -1   33.90    4.80
  14  12   1   33.30    3.40
 -14  12  -1   37.00    4.50
  16 -12   1   11.40    2.80
 -16 -12  -1    9.90    2.20
 -16  12  -1   11.70    2.70
  16  12   1   11.10    2.30
 -16  12  -1   17.10    3.50
 -16  12  -1   14.90    3.70
 -15 -13   1   15.10    2.20
 -15 -13   1    8.90    2.10
  15 -13  -1   11.20    2.70
 -15  13   1    8.00    3.30
 -15  13   1   15.30    3.40
  13 -13  -1   23.30    3.10
 -13 -13   1   17.40    2.10
 -13 -13   1   16.90    2.60
 -13  13   1   16.30    3.90
 -13  13   1   19.40    3.70
  11 -13  -1    3.10    1.70
 -11 -13   1    4.00    1.30
 -11 -13   1    7.50    1.70
 -11 -13   1    5.40    1.40
 -11  13   1    4.40    2.20
 -11  13   1    7.20    2.90
  -9 -13   1   15.70    1.90
   9 -13  -1   11.40    2.00
  -9 -13   1   14.00    2.10
   9 -13  -1   14.50    2.30
  -9 -13   1   16.10    1.60
   9  13  -1   13.50    2.90
  -9  13   1   18.30    3.30
  -9  13   1   18.30    3.80
   7 -13  -1    0.70    1.10
   7 -13  -1    1.70    1.20
  -7 -13   1    2.30    0.80
  -7 -13   1    2.70    1.20
  -7 -13   1    1.60    0.90
  -7  13   1    2.90    1.90
   7  13  -1    1.40    1.60
  -7  13   1    3.00    2.10
   5 -13  -1   10.60    1.70
  -5 -13   1    9.50    1.20
  -5 -13   1    9.90    1.30
   5 -13  -1    9.20    1.60
  -5 -13   1    9.00    1.60
   5  13  -1   16.40    3.10
  -5  13   1    5.80    2.20
  -5  13   1    7.40    2.70
  -3 -13   1   11.00    1.30
  -3 -13   1   11.20    1.70
   3 -13  -1   10.60    1.60
  -3  13   1    9.20    2.70
   3  13  -1   13.00    2.90
  -3  13   1    9.50    2.40
   1 -13  -1   37.50    2.60
  -1 -13   1   38.90    2.40
   1 -13  -1   43.30    2.80
  -1 -13   1   40.60    2.90
   1  13  -1   42.20    4.50
  -1  13   1   44.60    4.60
   1  13  -1   42.30    4.30
  -1  13   1   35.40    4.00
  -1 -13  -1  112.39    5.10
   1 -13   1  114.89    4.80
   1 -13   1  114.39    5.30
  -1 -13  -1  110.39    4.80
  -1  13  -1   99.89    6.60
  -1  13  -1   97.49    6.90
   1  13   1  103.79    6.80
   1  13   1   98.29    6.30
   3 -13   1   45.50    3.20
  -3 -13  -1   47.00    2.60
  -3 -13  -1   41.50    2.90
   3 -13   1   44.60    2.90
  -3 -13  -1   50.89    3.00
   3  13   1   53.39    4.80
  -3  13  -1   48.10    5.00
  -3  13  -1   51.39    4.80
   3  13   1   53.79    4.50
  -5 -13  -1    0.10    0.80
  -5 -13  -1   -0.10    0.70
   5 -13   1    1.90    1.20
   5 -13   1    1.90    1.10
  -5 -13  -1    1.10    0.90
  -5  13  -1    1.50    1.90
   5  13   1    0.00    1.50
  -5  13  -1   -2.40    1.10
  -7 -13  -1    0.30    0.80
   7 -13   1    1.90    1.30
   7 -13   1    0.40    1.30
  -7 -13  -1    0.00    0.80
  -7 -13  -1   -0.80    0.80
  -7  13  -1    0.60    1.60
  -7  13  -1    0.00    1.90
   7  13   1   -0.80    1.30
  -9 -13  -1    1.50    1.20
  -9 -13  -1   -0.50    0.90
   9 -13   1    0.70    1.60
  -9 -13  -1    1.70    1.20
   9 -13   1    1.00    1.30
   9 -13   1   -0.10    1.30
  -9  13  -1    2.60    2.00
  -9  13  -1    1.70    2.20
   9  13   1    0.10    1.60
 -11 -13  -1    5.50    1.70
  11 -13   1    4.10    1.90
 -11 -13  -1    2.00    1.30
 -11 -13  -1    4.30    1.40
  11  13   1    3.50    1.50
 -11  13  -1    3.00    2.50
 -11  13  -1    2.10    2.00
 -13 -13  -1    7.70    2.10
 -13 -13  -1    8.50    1.90
  13 -13   1    8.60    2.40
  13  13   1    9.70    2.10
 -13  13  -1    9.10    3.00
 -13  13  -1   12.00    3.00
 -15  13  -1   -0.40    1.80
 -15  13  -1   -1.40    2.00
 -14 -14   1    4.00    1.60
 -14 -14   1    7.00    1.60
 -14 -14   1    5.10    1.90
  14 -14  -1    5.50    2.20
 -14  14   1    5.30    2.80
 -14  14   1    3.10    2.20
  12 -14  -1    1.40    1.70
 -12 -14   1    3.30    1.20
 -12 -14   1    2.90    1.40
 -12 -14   1    3.60    1.40
 -12  14   1    2.10    2.00
 -12  14   1    6.80    2.90
 -10 -14   1    3.80    1.20
  10 -14  -1    6.40    2.00
 -10 -14   1    3.80    1.40
 -10 -14   1    5.00    1.20
  10  14  -1    3.60    2.10
 -10  14   1    3.60    2.50
 -10  14   1    7.20    2.60
  -8 -14   1    3.50    1.10
  -8 -14   1    1.40    1.20
  -8 -14   1    1.30    0.80
   8 -14  -1    2.30    1.40
  -8  14   1    1.00    2.10
  -8  14   1    2.50    2.00
   8  14  -1    0.50    1.50
  -6 -14   1    4.60    1.00
  -6 -14   1    3.70    1.10
   6 -14  -1    1.60    1.20
  -6 -14   1    4.70    1.40
   6 -14  -1    0.90    1.10
  -6  14   1   -0.30    1.70
  -6  14   1    2.50    2.20
   6  14  -1    6.80    2.30
  -4 -14   1   18.50    1.70
   4 -14  -1   15.20    2.00
   4 -14  -1   20.10    2.20
  -4 -14   1   16.20    2.00
  -4  14   1   13.50    3.10
   4  14  -1   15.00    3.30
  -4  14   1   17.50    3.60
   2 -14  -1   -0.70    0.80
  -2 -14   1    1.20    1.00
   2 -14  -1    0.70    0.90
  -2 -14   1    0.30    0.70
  -2  14   1    1.50    1.50
   2  14  -1    2.00    2.00
  -2  14   1    2.50    2.00
   0 -14  -1    2.00    0.90
   0 -14   1    0.90    1.10
   0 -14  -1    0.60    0.90
   0 -14   1    2.70    1.10
   0  14   1    3.20    1.80
   0  14  -1    0.50    1.60
   0  14  -1    2.40    2.10
   0  14   1    1.30    1.80
   2 -14   1   12.70    2.00
  -2 -14  -1    9.50    1.60
   2 -14   1   10.30    1.60
  -2 -14  -1   10.40    1.50
   2  14   1   11.60    2.80
  -2  14  -1   12.50    3.20
  -2  14  -1   10.90    2.80
   2  14   1    4.80    2.30
  -4 -14  -1    0.50    0.70
   4 -14   1   -1.80    0.90
   4 -14   1   -1.10    0.90
  -4 -14  -1   -0.50    0.70
  -4 -14  -1    0.40    0.80
   4  14   1   -0.20    1.60
  -4  14  -1   -2.30    1.50
  -4  14  -1   -0.90    1.40
   6 -14   1    2.20    1.30
   6 -14   1    0.80    1.30
  -6 -14  -1    1.70    1.10
  -6 -14  -1   -0.30    0.80
  -6 -14  -1    0.40    0.90
  -6  14  -1    2.10    2.10
  -6  14  -1    1.50    1.80
   6  14   1    1.10    1.80
   8 -14   1    1.20    1.30
   8 -14   1    4.50    1.80
  -8 -14  -1    4.50    1.40
  -8 -14  -1    4.20    1.30
  -8 -14  -1    0.70    0.80
  -8  14  -1    6.60    2.40
  -8  14  -1    5.20    2.50
   8  14   1    2.00    1.80
 -10 -14  -1    2.60    1.30
  10 -14   1    2.00    1.50
 -10 -14  -1    2.30    1.30
 -10 -14  -1    0.50    1.20
 -10  14  -1    2.60    2.10
 -10  14  -1    2.80    2.50
  12 -14   1    0.50    1.70
 -12 -14  -1   -1.10    0.90
 -12 -14  -1   -0.60    1.00
 -12 -14  -1   -0.90    1.00
  12  14   1   -1.40    1.00
 -12  14  -1    0.10    2.10
 -12  14  -1    1.30    2.00
 -11 -15   1   19.20    2.70
  11 -15  -1   17.50    2.90
 -11  15   1   14.00    3.80
 -11  15   1   19.40    3.90
  -9 -15   1    0.20    0.80
   9 -15  -1    0.60    1.30
  -9 -15   1   -1.10    0.80
  -9 -15   1    0.50    0.90
  -9  15   1   -0.50    1.80
   9  15  -1    0.30    1.80
  -9  15   1    0.10    2.10
  -7 -15   1   14.60    2.20
   7 -15  -1   13.70    2.20
  -7 -15   1   17.10    1.60
  -7  15   1   22.00    4.20
   7  15  -1   18.40    3.40
  -7  15   1   14.80    3.40
  -5 -15   1   29.90    2.80
   5 -15  -1   33.30    2.90
   5 -15  -1   30.60    2.80
  -5 -15   1   39.00    2.50
  -5  15   1   39.00    5.10
   5  15  -1   34.60    4.50
  -5  15   1   38.40    4.70
  -3 -15   1    0.10    0.90
   3 -15  -1   -0.80    0.80
   3 -15  -1   -1.30    0.90
  -3 -15   1   -0.50    0.60
   3  15  -1    1.50    1.70
  -3  15   1    1.20    1.70
  -3  15   1    0.80    2.00
  -1 -15   1   17.70    2.20
   1 -15  -1   17.10    1.90
   1 -15  -1   15.60    2.00
   1  15  -1   17.50    3.60
  -1  15   1   18.60    3.30
  -1  15   1   15.70    3.40
  -1 -15  -1   64.59    3.80
  -1 -15  -1   56.79    3.40
   1 -15   1   69.09    3.60
   1 -15   1   55.99    3.90
  -1  15  -1   57.69    5.50
   1  15   1   62.19    5.20
   1  15   1   65.29    5.90
  -1  15  -1   66.89    6.10
  -3 -15  -1   38.60    2.60
  -3 -15  -1   29.90    2.80
   3 -15   1   38.50    3.20
   3 -15   1   39.60    2.90
   3  15   1   39.10    4.60
  -3  15  -1   42.00    4.80
  -3  15  -1   30.60    4.60
   5 -15   1   15.90    2.10
  -5 -15  -1   16.20    1.90
  -5 -15  -1   14.10    2.10
   5 -15   1   18.70    2.60
  -5 -15  -1   18.20    1.80
  -5  15  -1   18.90    3.70
  -5  15  -1   16.70    3.60
   5  15   1   20.30    3.50
  -7 -15  -1    2.40    1.30
   7 -15   1    1.60    1.30
  -7 -15  -1    1.50    1.00
  -7 -15  -1    1.80    1.00
   7  15   1    2.10    1.80
  -7  15  -1    3.10    2.10
  -7  15  -1    6.70    2.70
  -9 -15  -1   23.20    2.80
   9 -15   1   27.70    3.10
  -9 -15  -1   16.90    2.00
  -9 -15  -1   24.40    2.60
  -9  15  -1   21.00    4.40
  -9  15  -1   21.10    3.90
 -11 -15  -1    7.80    2.00
 -11 -15  -1    8.60    1.90
  11 -15   1    6.60    2.20
 -11 -15  -1    8.40    1.70
 -11  15  -1    9.60    3.40
 -11  15  -1   10.20    3.30
 -10 -16   1   26.20    3.00
  10 -16  -1   27.40    3.30
  10  16  -1   25.90    4.10
 -10  16   1   31.10    5.20
 -10  16   1   21.90    4.10
  -8 -16   1   54.19    4.00
   8 -16  -1   51.59    4.00
   8  16  -1   54.89    5.40
  -8  16   1   50.49    6.10
  -8  16   1   47.70    5.50
   6 -16  -1   54.69    3.80
  -6 -16   1   53.19    3.80
   6  16  -1   50.99    5.40
  -6  16   1   49.20    5.50
  -6  16   1   48.00    5.80
  -4 -16   1    5.00    1.50
   4 -16  -1    3.80    1.50
   4  16  -1    0.60    2.10
  -4  16   1    0.00    1.60
  -4  16   1    4.30    2.50
   2 -16  -1    2.50    1.20
   2 -16  -1    2.30    1.20
  -2 -16   1    2.20    1.20
  -2  16   1    0.20    2.00
  -2  16   1    1.30    1.70
   2  16  -1    1.30    2.00
   0 -16   1   18.90    2.40
   0 -16  -1   19.60    2.10
   0 -16  -1   15.90    2.10
   0  16   1   19.00    3.90
   0  16   1   20.20    3.80
   0  16  -1   22.00    4.20
   2 -16   1   38.40    3.30
  -2 -16  -1   32.30    2.80
  -2 -16  -1   31.10    2.60
   2  16   1   36.00    4.70
  -2  16  -1   39.70    4.90
  -2  16  -1   33.40    4.80
  -4 -16  -1   80.19    4.10
   4 -16   1   85.29    5.20
  -4 -16  -1   70.59    4.40
   4  16   1   71.79    6.10
  -4  16  -1   78.59    6.50
  -4  16  -1   64.89    6.80
  -6 -16  -1   87.99    4.20
  -6 -16  -1   81.09    4.30
  -6 -16  -1   74.09    4.70
  -6  16  -1   83.29    7.50
  -6  16  -1   85.49    6.70
   6  16   1   68.89    6.00
  -8 -16  -1   58.39    3.80
  -8 -16  -1   62.19    3.50
  -8 -16  -1   53.59    4.10
  -8  16  -1   72.19    7.00
  -8  16  -1   58.99    6.10
  -5 -17   1   36.20    3.40
   5  17  -1   38.90    5.10
  -5  17   1   36.30    5.00
  -5  17   1   44.00    5.70
  -3 -17   1   45.20    3.70
   3  17  -1   45.20    5.70
  -3  17   1   49.60    6.00
  -3  17   1   61.59    6.00
  -1 -17   1   75.99    4.80
  -1  17   1   86.59    6.80
  -1  17   1   74.59    7.00
   1  17  -1   79.99    7.10
  -1 -17  -1  101.99    5.50
   1 -17   1  107.19    5.90
  -1  17  -1  123.39    8.60
   1  17   1  109.69    8.00
  -3 -17  -1  102.09    5.50
   3  17   1  106.19    7.60
  -3  17  -1   89.59    7.70
  -3  17  -1   93.19    7.50
  -5 -17  -1   35.90    3.20
  -5  17  -1   37.10    5.30
  -5  17  -1   31.20    5.30
   5  17   1   39.10    5.00
  24   0  -2   60.79    4.50
 -24   0   2   58.79    5.70
  22   0  -2   15.50    2.50
 -22   0   2   15.60    3.10
  20   0  -2  254.27   10.30
 -20   0   2  264.47   11.60
 -20   0   2  254.47    9.80
 -18   0   2    7.50    1.60
  18   0  -2    6.70    1.60
 -18   0   2    9.00    2.20
 -16   0   2   66.49    4.50
 -16   0   2   73.39    4.00
  16   0  -2   77.39    4.10
 -14   0   2  110.39    4.90
 -14   0   2   97.69    5.30
  14   0  -2  107.19    4.90
 -14   0   2  103.69    4.80
 -12   0   2  649.24   21.20
 -12   0   2  673.63   20.60
  12   0  -2  642.04   20.50
 -12   0   2  658.43   20.60
  10   0  -2  801.72   25.20
 -10   0   2  873.81   26.00
  10   0  -2  810.42   25.80
 -10   0   2  833.22   25.60
 -10   0   2  845.72   25.90
 -10   0   2  843.32   25.50
   8   0  -2  455.15   14.60
  -8   0   2  462.35   14.40
   8   0  -2  455.25   14.20
  -8   0   2  459.25   14.60
  -8   0   2  474.05   14.60
   6   0  -2  691.93   20.70
  -6   0   2  720.43   20.50
  -6   0   2  669.83   20.90
   6   0  -2  682.13   20.40
  -6   0   2  679.43   20.60
  -6   0   2  689.73   20.80
   4   0  -2    2.30    0.30
  -4   0   2    2.30    0.40
  -4   0   2    2.30    0.60
  -4   0   2    2.60    0.30
   4   0  -2    1.70    0.40
   4   0  -2    1.90    0.50
  -4   0   2    1.70    0.50
   2   0  -2  906.71   26.60
  -2   0   2  942.41   26.60
  -2   0   2  854.41   26.30
  -2   0   2  910.51   26.60
   2   0  -2  890.51   26.60
   2   0  -2  906.11   26.60
  -2   0   2  888.31   26.40
   0   0  -2 2706.13   79.59
   0   0   2 2692.73   79.89
   0   0   2 2750.62   80.29
   0   0  -2 2782.12   79.99
   0   0  -2 2704.33   79.99
   0   0   2 2742.33   79.89
   0   0  -2 2710.53   79.69
   0   0   2 2736.13   79.39
  -2   0  -2  210.18    6.90
   2   0   2  215.38    7.30
  -2   0  -2  223.48    7.20
   2   0   2  222.88    7.00
  -2   0  -2  216.98    7.30
   2   0   2  208.58    7.30
  -2   0  -2  198.98    6.60
   2   0   2  210.18    6.70
  -4   0  -2 1694.23   48.40
  -4   0  -2 1555.64   47.90
   4   0   2 1604.64   47.80
  -4   0  -2 1611.84   48.00
   4   0   2 1664.63   48.00
  -4   0  -2 1709.53   48.30
   4   0   2 1583.74   48.40
  -6   0  -2  641.74   20.20
  -6   0  -2  657.03   19.30
  -6   0  -2  650.13   19.20
   6   0   2  643.84   19.20
   6   0   2  631.44   20.70
   8   0   2  134.19    6.30
  -8   0  -2  135.49    4.80
  -8   0  -2  142.79    4.70
   8   0   2  140.39    4.70
  -8   0  -2  140.19    5.90
 -10   0  -2  223.28    8.80
  10   0   2  221.68    7.20
  10   0   2  210.88    9.20
 -10   0  -2  218.98    7.10
 -10   0  -2  221.48    7.20
 -12   0  -2  595.44   18.90
 -12   0  -2  639.84   21.10
 -12   0  -2  642.84   18.90
 -12   0  -2  626.04   18.90
 -14   0  -2  207.88    6.90
  14   0   2  196.28    8.80
 -14   0  -2  209.48    9.20
 -16   0  -2  100.69    6.20
  16   0   2  102.79    5.90
  18   0   2   57.29    4.50
 -18   0  -2   46.50    4.50
 -20   0  -2  129.59    7.80
  20   0   2  126.59    7.30
 -23  -1   2   25.00    3.80
  23  -1  -2   27.40    3.10
  23   1  -2   21.30    2.90
 -23   1   2   29.40    4.10
  21  -1  -2  102.99    5.70
 -21  -1   2  103.29    6.70
 -21   1   2  103.19    6.70
  21   1  -2  101.19    5.70
 -19  -1   2   28.30    2.50
  19  -1  -2   27.40    2.70
 -19  -1   2   25.50    3.40
 -19   1   2   19.20    3.00
  19   1  -2   27.00    2.80
 -19   1   2   25.20    2.60
 -17  -1   2   30.40    2.50
  17  -1  -2   34.70    2.80
 -17  -1   2   36.10    3.50
 -17   1   2   33.80    2.80
 -17   1   2   33.00    3.40
  17   1  -2   30.30    2.70
  15  -1  -2  193.68    7.40
 -15  -1   2  162.88    7.70
 -15  -1   2  179.48    7.00
 -15  -1   2  186.28    7.10
 -15   1   2  172.58    7.90
 -15   1   2  172.48    7.20
  15   1  -2  189.88    7.40
 -13  -1   2  198.68    7.30
 -13  -1   2  188.78    8.00
  13  -1  -2  192.98    8.00
 -13  -1   2  209.98    7.40
  13  -1  -2  198.98    7.40
 -13   1   2  187.48    8.00
 -13   1   2  201.08    7.60
  13   1  -2  183.88    7.40
  11  -1  -2  315.47   10.60
 -11  -1   2  317.37   11.20
  11  -1  -2  299.37   11.10
 -11  -1   2  312.47   10.70
 -11  -1   2  326.17   10.70
  11  -1  -2  324.17   11.00
 -11   1   2  336.77   11.30
 -11   1   2  327.97   11.00
  11   1  -2  303.17   10.60
  -9  -1   2  342.47   11.50
  -9  -1   2  341.57   11.30
   9  -1  -2  353.66   11.60
  -9  -1   2  361.16   11.30
   9  -1  -2  352.76   11.50
  -9  -1   2  329.07   11.20
  -9  -1   2  351.16   11.30
   9  -1  -2  338.07   11.00
  -9   1   2  351.56   11.50
  -9   1   2  341.57   11.50
   9   1  -2  333.57   11.10
   7  -1  -2  203.48    7.00
  -7  -1   2  194.38    6.90
  -7  -1   2  208.68    6.80
   7  -1  -2  203.68    6.50
  -7  -1   2  211.88    7.00
  -7  -1   2  202.58    7.00
   7  -1  -2  198.18    7.10
  -7  -1   2  204.68    6.80
   7   1  -2  202.18    7.00
   7   1  -2  196.28    6.90
  -7   1   2  194.38    7.10
  -7   1   2  206.18    6.80
   7   1  -2  199.28    6.60
  -7   1   2  197.28    6.70
  -5  -1   2  525.45   15.70
   5  -1  -2  538.25   16.20
  -5  -1   2  526.65   16.10
   5  -1  -2  529.65   15.60
   5  -1  -2  526.35   15.90
  -5  -1   2  526.95   15.80
   5   1  -2  519.55   16.10
   5   1  -2  516.65   15.60
  -5   1   2  537.05   15.70
  -5   1   2  505.75   16.20
   5   1  -2  530.85   15.90
   3  -1  -2  389.56   12.10
   3  -1  -2  392.76   11.70
  -3  -1   2  391.96   11.60
  -3  -1   2  375.56   11.70
  -3   1   2  393.26   12.50
   3   1  -2  386.86   11.70
  -3   1   2  401.46   11.70
   3   1  -2  388.86   11.70
  -3   1   2  397.46   12.20
   3   1  -2  400.36   12.10
  -1  -1   2    3.20    0.30
   1  -1  -2    3.10    0.40
   1  -1  -2    2.90    0.40
   1  -1  -2    3.70    0.40
  -1  -1   2    2.80    0.40
   1  -1  -2    3.60    0.50
   1  -1  -2    3.90    0.50
   1   1  -2    3.20    0.30
   1   1  -2    2.70    0.50
  -1   1   2    2.60    0.40
   1   1  -2    3.10    0.40
  -1   1   2    3.20    0.50
  -1   1   2    2.90    0.40
  -1   1   2    2.80    0.50
  -1   1   2    2.90    0.40
   1  -1   2  143.19    4.80
   1  -1   2  140.99    5.00
  -1  -1  -2  143.89    5.00
   1  -1   2  142.19    4.70
  -1  -1  -2  151.28    5.10
   1  -1   2  139.89    4.90
   1   1   2  133.19    4.50
   1   1   2  134.49    4.50
  -1   1  -2  140.19    4.80
   1   1   2  143.79    4.80
  -1   1  -2  141.49    4.70
  -1   1  -2  147.49    4.90
   1   1   2  134.79    5.00
  -3  -1  -2  471.25   14.70
   3  -1   2  462.45   14.40
   3  -1   2  467.05   15.00
   3  -1   2  476.05   15.10
   3  -1   2  493.05   14.70
   3  -1   2  466.45   14.50
  -3  -1  -2  480.15   15.20
   3   1   2  466.15   15.10
  -3   1  -2  460.65   14.50
   3   1   2  504.05   14.80
  -3   1  -2  471.75   14.70
  -3   1  -2  501.65   15.00
  -3   1  -2  456.85   14.40
  -3   1  -2  499.85   15.10
   5  -1   2  830.82   24.90
  -5  -1  -2  809.62   25.40
   5  -1   2  806.92   25.80
  -5  -1  -2  857.21   26.00
   5  -1   2  877.41   25.40
   5  -1   2  794.02   25.90
  -5   1  -2  791.62   25.40
  -5   1  -2  865.61   25.40
   5   1   2  871.41   25.60
  -5   1  -2  824.92   25.00
  -5   1  -2  914.71   25.80
  -5   1  -2  815.52   24.90
  -5   1  -2  885.41   26.00
   5   1   2  790.12   25.90
  -7  -1  -2 1013.90   30.60
   7  -1   2 1006.40   29.70
   7  -1   2  970.20   31.00
  -7   1  -2 1010.80   29.60
  -7   1  -2  968.60   30.50
   7   1   2 1008.70   31.20
  -7   1  -2 1012.30   29.80
   9  -1   2  320.97   10.30
  -9  -1  -2  308.37   11.30
   9  -1   2  310.77   11.90
  -9   1  -2  321.07   10.40
  -9   1  -2  318.57   11.40
  -9   1  -2  320.57   10.20
 -11  -1  -2  140.39    6.60
  11  -1   2  135.69    7.00
  11  -1   2  153.68    5.50
  11   1   2  145.49    6.60
 -11   1  -2  139.39    6.60
 -11   1  -2  150.28    5.60
 -11   1  -2  148.69    5.40
  13  -1   2  166.88    6.10
  13  -1   2  162.48    8.00
 -13  -1  -2  156.48    7.40
 -13   1  -2  156.18    7.50
 -13   1  -2  160.68    5.90
  13   1   2  156.28    7.20
 -13   1  -2  154.28    6.00
 -15  -1  -2  170.28    8.30
  15  -1   2  170.98    8.00
 -15   1  -2  188.88    6.50
 -15   1  -2  174.98    6.60
 -15   1  -2  180.58    8.50
  15   1   2  159.58    7.90
  17  -1   2  276.67   11.50
 -17  -1  -2  287.87   12.10
 -17   1  -2  267.87   11.90
  17   1   2  274.87   11.60
 -19  -1  -2   59.79    5.10
  19  -1   2   51.69    4.60
  19   1   2   51.39    4.50
 -19   1  -2   53.19    4.90
 -21  -1  -2   97.79    6.80
  21  -1   2   99.09    6.40
 -21   1  -2   94.79    6.90
  21   1   2   98.89    6.40
 -24  -2   2    9.30    2.80
  24  -2  -2    8.70    2.20
 -24   2   2    8.10    2.60
  24   2  -2    8.00    2.10
 -22  -2   2   73.49    5.70
  22  -2  -2   71.79    4.70
 -22   2   2   86.99    6.10
  22   2  -2   72.99    4.90
 -20  -2   2   -1.30    1.40
  20  -2  -2    1.00    1.20
  20   2  -2    1.40    1.20
 -20   2   2    1.90    1.40
 -20   2   2   -0.40    1.40
 -18  -2   2   89.89    5.60
 -18  -2   2   87.59    4.40
  18  -2  -2   92.79    4.90
  18   2  -2   94.09    5.00
 -18   2   2   93.09    5.00
 -16  -2   2   42.70    2.80
 -16  -2   2   37.20    2.60
  16  -2  -2   35.60    2.70
 -16  -2   2   35.10    3.30
 -16   2   2   35.20    3.30
  16   2  -2   36.00    2.80
 -16   2   2   39.00    3.00
 -14  -2   2   64.69    4.00
  14  -2  -2   64.99    4.10
 -14  -2   2   57.29    3.20
 -14  -2   2   61.69    3.30
  14  -2  -2   60.69    3.40
 -14   2   2   68.69    3.80
  14   2  -2   66.89    3.60
 -14   2   2   59.19    4.00
 -12  -2   2  190.38    7.10
  12  -2  -2  193.38    7.80
  12  -2  -2  193.98    7.10
 -12  -2   2  180.18    7.60
 -12  -2   2  197.78    7.10
 -12   2   2  200.58    7.60
  12   2  -2  195.88    7.30
  10  -2  -2   11.90    1.50
 -10  -2   2   11.80    1.30
  10  -2  -2   12.90    1.60
 -10  -2   2    9.30    1.20
 -10  -2   2    7.30    1.30
  10  -2  -2   12.60    1.20
 -10   2   2    8.60    1.30
 -10   2   2   12.00    1.60
 -10   2   2   10.10    1.30
  10   2  -2   13.30    1.40
  -8  -2   2  386.76   12.40
   8  -2  -2  389.76   12.60
   8  -2  -2  387.26   12.00
  -8  -2   2  394.16   12.40
   8  -2  -2  394.46   12.80
  -8  -2   2  405.56   12.50
  -8  -2   2  383.76   12.50
   8   2  -2  386.66   12.40
  -8   2   2  381.76   12.30
  -8   2   2  372.66   12.20
   8   2  -2  384.66   12.30
  -8   2   2  387.06   12.80
  -8   2   2  394.46   12.30
   6  -2  -2  123.49    4.70
   6  -2  -2  117.29    4.30
  -6  -2   2  120.29    4.20
  -6  -2   2  122.29    4.50
  -6  -2   2  107.89    4.20
  -6  -2   2  117.69    4.30
   6   2  -2  118.99    4.50
  -6   2   2  117.89    4.70
   6   2  -2  113.69    4.10
  -6   2   2  122.79    4.10
  -6   2   2  102.29    3.90
  -6   2   2  118.09    4.20
  -4  -2   2  157.08    5.20
  -4  -2   2  159.08    5.20
  -4  -2   2  159.98    5.20
  -4  -2   2  164.68    5.10
   4  -2  -2  165.38    5.80
  -4  -2   2  161.98    5.60
   4  -2  -2  155.98    5.20
  -4   2   2  160.88    5.80
  -4   2   2  160.58    5.20
   4   2  -2  162.38    5.70
   2  -2  -2  735.83   21.50
   2  -2  -2  701.53   21.00
   2  -2  -2  745.53   21.60
  -2  -2   2  723.03   21.60
   2  -2  -2  689.43   20.90
  -2   2   2  715.53   21.00
  -2   2   2  701.13   20.90
  -2   2   2  707.43   21.50
  -2   2   2  731.53   21.40
   2   2  -2  707.13   21.00
   0  -2  -2   18.50    1.10
   0  -2   2   16.60    1.10
   0  -2  -2   14.90    0.90
   0  -2   2   12.90    1.20
   0  -2  -2   18.10    1.20
   0  -2   2   14.00    1.20
   0   2   2   15.60    1.00
   0   2   2   15.60    1.00
   0   2  -2   14.50    1.30
   0   2  -2   15.20    1.00
   0   2   2   16.40    1.10
   0   2  -2   15.50    0.80
   0   2  -2   17.50    0.80
  -2  -2  -2 1042.20   30.90
   2  -2   2 1048.20   31.20
   2  -2   2 1025.00   30.90
  -2  -2  -2 1066.09   31.30
   2  -2   2 1086.69   31.20
  -2  -2  -2 1038.40   30.80
   2  -2   2 1040.10   31.10
  -2   2  -2 1037.50   30.80
  -2   2  -2 1068.59   30.90
  -2   2  -2 1027.00   31.00
  -2   2  -2 1068.49   30.70
   2   2   2 1011.50   30.90
  -2   2  -2 1015.60   31.10
   2   2   2 1070.99   30.90
  -4  -2  -2   91.49    3.90
   4  -2   2   92.39    4.30
   4  -2   2   97.49    3.90
   4  -2   2   97.39    4.20
   4   2   2  102.29    4.10
  -4   2  -2  101.09    4.00
  -4   2  -2  103.49    4.10
  -4   2  -2  101.79    4.30
  -4   2  -2   97.89    3.90
  -4   2  -2   99.59    3.90
  -4   2  -2   98.69    3.90
   6  -2   2   33.90    2.40
  -6  -2  -2   31.60    2.20
   6  -2   2   33.00    2.10
   6  -2   2   30.30    2.50
  -6   2  -2   33.00    2.20
  -6   2  -2   32.10    2.00
  -6   2  -2   34.30    2.40
  -6   2  -2   39.60    2.40
  -6   2  -2   34.00    2.60
  -6   2  -2   35.50    2.20
   6   2   2   32.20    2.30
  -8  -2  -2  268.47    9.80
   8  -2   2  254.77   10.20
   8  -2   2  292.77    9.30
  -8   2  -2  276.77    9.90
   8   2   2  259.47    9.80
  -8   2  -2  267.17    9.10
  -8   2  -2  271.77    9.30
 -10  -2  -2  101.99    5.10
  10  -2   2  109.59    4.50
  10  -2   2   93.09    5.40
  10   2   2  110.49    5.20
 -10   2  -2  106.09    4.40
 -10   2  -2  104.29    5.20
 -10   2  -2   95.99    4.40
  12  -2   2   84.29    3.80
  12  -2   2   71.89    4.80
 -12  -2  -2   77.89    4.60
  12   2   2   72.99    4.40
 -12   2  -2   69.29    3.50
 -12   2  -2   65.39    4.40
 -12   2  -2   71.79    3.70
 -14  -2  -2   48.00    3.80
  14  -2   2   58.19    4.50
 -14   2  -2   51.89    3.00
  14   2   2   50.89    3.80
 -14   2  -2   52.29    4.10
 -14   2  -2   47.40    3.10
 -16  -2  -2   48.10    4.20
  16   2   2   42.10    3.80
 -16   2  -2   43.00    4.10
 -16   2  -2   44.70    3.10
 -16   2  -2   45.80    2.90
  18  -2   2   54.89    4.50
 -18  -2  -2   43.40    4.40
  18   2   2   53.89    4.50
 -18   2  -2   49.10    4.60
  20  -2   2    6.70    2.20
 -20  -2  -2    8.60    2.40
  20   2   2    9.00    2.40
 -20   2  -2    7.20    2.50
  23  -3  -2    4.00    1.70
 -23  -3   2    6.50    2.40
 -23   3   2    6.70    2.50
  23   3  -2    5.00    1.70
  21  -3  -2    7.10    1.90
 -21  -3   2    2.30    1.90
  21   3  -2    8.80    2.00
 -21   3   2   10.50    2.60
 -21   3   2    3.20    1.70
 -19  -3   2   43.90    3.00
  19  -3  -2   49.00    3.50
 -19  -3   2   51.49    4.30
 -19   3   2   43.30    4.20
  19   3  -2   46.50    3.50
 -19   3   2   48.80    3.80
  17  -3  -2   52.99    3.40
 -17  -3   2   47.60    3.00
 -17  -3   2   46.70    3.90
 -17   3   2   46.70    4.00
 -17   3   2   52.59    3.70
  17   3  -2   41.70    3.20
  15  -3  -2    2.90    1.00
 -15  -3   2    3.40    1.30
 -15  -3   2    2.30    1.00
  15  -3  -2    1.50    1.20
 -15  -3   2    1.90    0.80
 -15   3   2    1.40    1.20
  15   3  -2    2.30    1.00
 -15   3   2    2.50    1.20
 -13  -3   2    3.30    0.90
  13  -3  -2    2.60    0.90
 -13  -3   2    5.70    1.10
  13  -3  -2    5.90    1.50
 -13  -3   2    3.50    1.20
  13   3  -2    3.20    1.00
 -13   3   2    3.60    1.20
  11  -3  -2    2.70    1.00
 -11  -3   2    3.80    0.90
 -11  -3   2    4.80    1.20
 -11   3   2    2.50    0.90
 -11   3   2    2.40    1.00
 -11   3   2    2.40    1.10
  11   3  -2    3.20    0.90
  11   3  -2    4.80    1.00
   9  -3  -2   28.80    1.90
  -9  -3   2   25.70    2.00
   9  -3  -2   32.30    2.20
  -9  -3   2   25.40    1.90
   9  -3  -2   27.30    2.30
  -9  -3   2   31.80    2.10
   9   3  -2   27.40    1.90
   9   3  -2   28.30    2.00
  -9   3   2   29.60    2.00
  -9   3   2   28.00    1.90
  -9   3   2   33.70    2.40
   7  -3  -2    0.60    0.60
  -7  -3   2    0.40    0.50
   7  -3  -2    0.10    0.40
   7  -3  -2    0.00    0.50
  -7  -3   2    1.00    0.60
  -7  -3   2    0.90    0.50
  -7   3   2    1.30    0.40
  -7   3   2   -0.10    0.60
  -7   3   2    0.60    0.40
   7   3  -2    0.30    0.50
   7   3  -2    0.00    0.50
   7   3  -2    0.10    0.40
  -7   3   2   -0.20    0.40
   5  -3  -2  111.19    3.70
  -5  -3   2  117.49    4.00
  -5  -3   2  110.99    4.40
  -5  -3   2  112.09    4.10
   5  -3  -2  114.49    4.70
  -5  -3   2  106.09    4.00
   5  -3  -2  107.29    4.00
   5   3  -2  105.99    3.90
  -5   3   2  116.59    4.00
   5   3  -2  121.49    4.00
  -5   3   2  104.79    4.60
  -5   3   2  108.39    3.50
   5   3  -2  109.49    4.40
  -3  -3   2  252.47    7.60
   3  -3  -2  239.88    8.40
  -3  -3   2  245.88    7.80
  -3  -3   2  252.97    8.50
   3  -3  -2  244.08    7.80
   3  -3  -2  247.98    7.50
   3  -3  -2  245.38    7.50
   3   3  -2  248.88    7.90
  -3   3   2  255.07    7.80
   3   3  -2  253.77    7.60
  -3   3   2  246.18    8.40
  -3   3   2  254.27    7.70
  -1  -3   2  407.56   12.80
  -1  -3   2  408.16   12.70
  -1  -3   2  396.96   12.10
  -1  -3   2  397.76   12.10
   1  -3  -2  400.56   12.00
   1  -3  -2  384.86   12.00
   1  -3  -2  393.16   12.50
   1  -3  -2  396.06   12.10
  -1   3   2  393.66   12.00
  -1   3   2  405.16   12.00
   1   3  -2  391.16   12.10
   1   3  -2  399.66   12.80
  -1   3   2  394.36   12.50
  -1   3   2  403.86   12.20
   1  -3   2  386.66   12.10
   1  -3   2  398.76   12.90
   1  -3   2  406.56   12.50
   1  -3   2  397.86   12.70
  -1  -3  -2  400.46   12.40
  -1  -3  -2  406.06   12.30
   1   3   2  411.26   12.40
   1   3   2  395.96   12.40
  -1   3  -2  412.06   12.30
  -1   3  -2  391.36   12.90
  -1   3  -2  407.26   12.00
   1   3   2  389.76   12.30
  -1   3  -2  395.56   12.80
   3  -3   2   17.40    1.50
  -3  -3  -2   21.90    1.90
  -3  -3  -2   17.80    1.10
   3  -3   2   17.20    1.50
   3  -3   2   21.70    1.80
  -3  -3  -2   18.50    1.40
   3  -3   2   19.20    1.30
   3  -3   2   18.20    1.60
   3   3   2   20.00    1.10
  -3   3  -2   17.40    1.50
   3   3   2   22.00    1.50
  -3   3  -2   17.80    1.30
   3   3   2   19.30    1.20
  -3   3  -2   18.20    1.40
   3   3   2   18.90    1.50
  -3   3  -2   18.70    1.70
  -3   3  -2   19.20    1.20
   5  -3   2    0.40    0.70
  -5  -3  -2    1.60    0.70
   5  -3   2    0.60    0.70
   5  -3   2    2.10    0.90
  -5   3  -2    2.20    1.00
  -5   3  -2    1.30    0.70
  -5   3  -2    1.00    0.70
   5   3   2    2.70    0.90
  -5   3  -2    1.40    0.70
  -5   3  -2    1.70    0.70
   7  -3   2   74.89    4.10
   7  -3   2   78.49    4.30
  -7  -3  -2   80.29    3.90
   7  -3   2   78.39    3.80
  -7   3  -2   77.39    3.70
   7   3   2   81.39    4.00
  -7   3  -2   79.79    3.90
  -7   3  -2   73.59    3.80
  -9  -3  -2   16.00    2.00
   9  -3   2   22.50    1.90
   9  -3   2   18.90    2.30
  -9   3  -2   16.80    2.00
  -9   3  -2   17.90    1.90
   9   3   2   21.60    2.20
  -9   3  -2   22.30    1.90
  11  -3   2   36.10    3.20
 -11  -3  -2   30.70    2.80
 -11   3  -2   31.50    2.50
  11   3   2   30.40    2.80
 -11   3  -2   29.60    2.30
 -11   3  -2   26.90    2.70
  13  -3   2   10.60    2.20
 -13  -3  -2    6.70    1.80
 -13   3  -2    8.30    1.50
 -13   3  -2    7.90    1.80
  13   3   2    9.80    1.90
 -13   3  -2   10.60    1.70
 -15  -3  -2    4.50    1.70
  15  -3   2    8.40    2.20
 -15   3  -2    7.50    1.60
 -15   3  -2    5.40    1.80
  15   3   2    4.60    1.70
 -15   3  -2    4.40    1.40
 -17  -3  -2   33.60    3.70
 -17   3  -2   41.50    3.00
  17   3   2   37.10    3.70
 -17   3  -2   42.20    4.10
 -19  -3  -2    7.70    2.40
  19  -3   2    6.20    2.00
  19   3   2    6.80    2.10
 -19   3  -2    8.70    2.40
 -21  -3  -2   15.20    3.20
  21  -3   2   13.50    3.00
  21   3   2   18.40    3.20
 -21   3  -2   19.00    3.50
 -24  -4   2   -0.20    1.60
 -24   4   2    0.00    1.80
  24   4  -2    1.20    1.50
  22  -4  -2    9.30    2.10
 -22  -4   2    7.00    2.30
 -22   4   2    5.70    2.30
  22   4  -2    8.60    2.10
 -22   4   2   11.40    2.40
 -20  -4   2   27.80    3.50
  20  -4  -2   29.10    2.90
 -20   4   2   30.30    3.30
  20   4  -2   33.10    3.20
 -20   4   2   30.70    3.80
  18  -4  -2    6.80    1.60
  18  -4  -2    2.40    1.70
 -18  -4   2    7.00    2.00
 -18  -4   2    5.20    1.30
 -18   4   2    3.60    1.60
  18   4  -2    2.50    1.30
 -18   4   2    2.30    1.50
 -16  -4   2    3.70    1.10
  16  -4  -2    0.60    0.90
 -16  -4   2    2.50    1.10
  16  -4  -2    2.70    1.50
 -16  -4   2    2.40    1.30
 -16   4   2    1.80    1.30
  16   4  -2    3.60    1.20
 -16   4   2    2.60    1.40
 -14  -4   2    1.60    1.10
  14  -4  -2    3.30    1.40
 -14  -4   2    2.10    1.00
 -14  -4   2    5.50    1.10
 -14   4   2    3.50    1.30
  14   4  -2    2.90    1.00
 -12  -4   2  220.18    8.80
  12  -4  -2  231.18    9.10
 -12  -4   2  246.48    8.60
  12  -4  -2  232.48    8.70
  12   4  -2  238.28    8.60
 -12   4   2  231.38    9.20
  12   4  -2  230.18    8.40
 -12   4   2  234.98    8.40
 -12   4   2  240.68    8.60
 -10  -4   2    8.90    1.30
  10  -4  -2    8.30    1.40
  10  -4  -2    9.20    1.20
 -10  -4   2    7.40    1.20
 -10   4   2    7.90    1.00
  10   4  -2    7.70    1.20
 -10   4   2    6.60    1.50
  10   4  -2    7.90    1.20
   8  -4  -2  233.98    8.20
   8  -4  -2  239.38    7.80
  -8  -4   2  236.48    8.10
  -8  -4   2  242.38    8.30
   8   4  -2  229.48    7.90
  -8   4   2  225.18    8.70
   8   4  -2  225.68    8.20
  -8   4   2  220.88    7.40
   8   4  -2  233.78    8.10
  -6  -4   2   32.00    1.90
   6  -4  -2   29.80    1.80
   6  -4  -2   26.50    1.40
  -6  -4   2   30.50    1.70
   6  -4  -2   32.60    2.30
   6  -4  -2   31.20    1.50
  -6  -4   2   29.60    2.20
  -6   4   2   30.30    1.30
   6   4  -2   31.70    2.10
   6   4  -2   32.20    1.80
  -6   4   2   31.90    1.70
   6   4  -2   27.00    1.70
  -6   4   2   32.40    2.40
   4  -4  -2   66.59    3.30
   4  -4  -2   69.59    2.70
  -4  -4   2   64.99    2.70
   4  -4  -2   64.59    2.20
  -4  -4   2   62.69    2.70
  -4  -4   2   68.69    3.30
  -4  -4   2   62.49    2.40
  -4   4   2   64.09    2.60
   4   4  -2   68.79    2.50
  -4   4   2   61.79    2.20
  -4   4   2   56.59    3.20
   2  -4  -2   97.89    3.30
   2  -4  -2   98.09    3.50
  -2  -4   2   92.59    3.50
  -2  -4   2   96.59    3.10
   2  -4  -2   99.89    3.40
   2  -4  -2   95.89    4.10
   2  -4  -2   92.49    3.20
  -2  -4   2   97.29    4.30
  -2  -4   2  101.79    4.10
  -2  -4   2   94.69    3.00
  -2   4   2  100.79    3.40
   2   4  -2   97.79    3.60
  -2   4   2  101.39    3.60
   2   4  -2   96.29    3.10
   2   4  -2   95.99    4.30
  -2   4   2   92.49    3.20
  -2   4   2   92.59    4.10
   0  -4   2  137.39    5.40
   0  -4  -2  137.59    4.70
   0  -4   2  129.59    5.50
   0  -4  -2  138.89    5.20
   0  -4   2  139.79    4.40
   0  -4  -2  143.09    4.90
   0  -4  -2  137.19    4.90
   0  -4   2  141.19    4.90
   0   4   2  141.29    4.80
   0   4  -2  135.89    5.40
   0   4  -2  144.19    4.80
   0   4   2  151.78    4.90
   0   4  -2  142.99    4.40
   0   4  -2  134.89    5.60
   0   4   2  139.29    5.20
   2  -4   2    4.20    1.00
  -2  -4  -2    2.40    0.60
   2  -4   2    4.10    1.00
  -2  -4  -2    3.70    0.70
   2  -4   2    2.60    0.60
   2  -4   2    4.10    0.80
  -2  -4  -2    3.60    0.80
   2   4   2    2.40    0.60
  -2   4  -2    2.60    0.60
  -2   4  -2    4.90    1.10
   2   4   2    3.30    0.70
   2   4   2    3.80    0.80
  -2   4  -2    3.10    0.90
   2   4   2    2.90    0.70
  -2   4  -2    3.60    0.50
   4  -4   2   18.80    1.80
   4  -4   2   21.20    1.80
  -4  -4  -2   18.30    1.30
   4  -4   2   22.60    1.90
   4  -4   2   19.00    1.50
  -4  -4  -2   20.40    1.60
   4   4   2   19.50    1.30
  -4   4  -2   19.50    1.80
   4   4   2   18.50    1.60
  -4   4  -2   18.80    1.30
  -4   4  -2   19.70    1.50
   4   4   2   19.30    1.40
  -4   4  -2   17.40    1.90
  -6  -4  -2   96.99    4.30
   6  -4   2  102.39    4.60
  -6  -4  -2   95.29    3.40
   6  -4   2   83.49    4.30
   6  -4   2   93.49    4.20
   6  -4   2   94.89    4.70
  -6   4  -2   96.09    4.60
  -6   4  -2   92.69    4.40
  -6   4  -2   99.49    4.30
   6   4   2   94.79    4.40
   8  -4   2   41.00    3.00
  -8  -4  -2   36.20    2.70
   8  -4   2   40.00    3.10
  -8   4  -2   37.90    2.60
  -8   4  -2   41.40    2.80
  -8   4  -2   36.20    2.80
   8   4   2   35.20    2.60
  10  -4   2   -0.40    0.90
 -10  -4  -2    2.70    1.10
 -10   4  -2    1.70    0.90
  10   4   2   -0.50    0.60
 -10   4  -2    1.10    1.10
 -10   4  -2    2.50    1.00
  12  -4   2  332.77   12.90
 -12  -4  -2  319.27   12.20
  12   4   2  326.97   12.20
 -12   4  -2  325.37   11.50
 -12   4  -2  314.57   11.80
 -12   4  -2  327.07   12.30
  14  -4   2    0.20    1.20
 -14  -4  -2    0.40    1.00
 -14   4  -2    0.50    1.30
  14   4   2   -0.50    0.90
 -14   4  -2    1.10    1.30
 -14   4  -2    2.10    1.10
 -16  -4  -2   23.20    3.00
  16  -4   2   19.80    3.10
  16   4   2   17.80    2.70
 -16   4  -2   20.40    2.30
 -16   4  -2   14.80    2.30
 -16   4  -2   21.30    3.00
 -18  -4  -2   13.80    2.80
  18   4   2   17.30    2.80
 -18   4  -2   19.20    3.20
 -20  -4  -2    1.40    1.80
  20  -4   2    0.50    1.50
  20   4   2    2.90    1.60
 -20   4  -2    1.90    1.90
 -23  -5   2   36.00    4.20
  23   5  -2   33.40    3.60
 -23   5   2   36.50    4.60
  21  -5  -2   12.80    2.20
 -21  -5   2   12.40    2.70
 -21   5   2   13.90    2.70
  21   5  -2   14.40    2.40
 -21   5   2    7.30    2.30
  19  -5  -2   40.20    3.30
 -19  -5   2   36.90    3.70
  19  -5  -2   37.00    4.00
 -19   5   2   36.00    3.90
  19   5  -2   45.20    3.50
 -19   5   2   44.00    3.90
 -17  -5   2   48.00    2.90
  17  -5  -2   50.49    4.30
  17  -5  -2   40.70    3.10
 -17  -5   2   43.40    3.70
 -17   5   2   46.20    3.90
 -17   5   2   43.50    4.00
  17   5  -2   43.30    3.30
 -15  -5   2   56.79    3.90
 -15  -5   2   58.59    3.50
 -15  -5   2   52.29    3.10
  15  -5  -2   54.49    4.10
  15   5  -2   60.49    3.70
 -15   5   2   59.69    4.10
  13  -5  -2  128.29    6.10
 -13  -5   2  124.49    5.40
  13  -5  -2  130.89    5.60
 -13  -5   2  115.69    5.70
  13   5  -2  121.49    5.50
 -13   5   2  116.19    6.00
  13   5  -2  124.99    5.30
 -11  -5   2  261.37    9.10
  11  -5  -2  242.58    9.30
 -11  -5   2  246.28    9.10
  11  -5  -2  247.68    8.90
  11   5  -2  240.98    8.90
 -11   5   2  253.27    8.40
  11   5  -2  245.88    9.00
 -11   5   2  251.87    9.80
   9  -5  -2  185.48    7.10
   9  -5  -2  183.48    6.70
  -9  -5   2  190.48    7.00
  -9  -5   2  194.78    7.30
   9  -5  -2  186.78    6.70
  -9   5   2  193.48    7.80
  -9   5   2  190.18    6.30
   9   5  -2  185.08    6.90
   9   5  -2  186.28    7.20
   7  -5  -2   67.39    3.10
   7  -5  -2   57.59    2.70
  -7  -5   2   63.49    2.90
   7  -5  -2   66.09    2.80
  -7  -5   2   64.59    3.50
  -7   5   2   66.99    2.40
   7   5  -2   69.29    3.10
   7   5  -2   65.49    3.00
  -7   5   2   62.79    3.70
   7   5  -2   59.19    3.30
  -5  -5   2  128.09    4.40
   5  -5  -2  127.39    4.70
  -5  -5   2  125.69    5.20
  -5  -5   2  123.69    4.70
  -5  -5   2  123.49    5.40
   5  -5  -2  124.89    4.20
  -5   5   2  127.59    5.50
   5   5  -2  122.39    5.40
   5   5  -2  125.59    4.50
  -5   5   2  124.69    4.10
  -5   5   2  132.79    4.60
  -3  -5   2  510.85   15.10
   3  -5  -2  471.55   15.00
   3  -5  -2  496.15   16.00
  -3  -5   2  488.25   15.80
   3  -5  -2  478.25   14.60
  -3  -5   2  499.25   14.60
  -3  -5   2  501.75   16.00
   3  -5  -2  494.85   14.60
  -3  -5   2  494.35   14.50
  -3  -5   2  471.25   15.10
  -3   5   2  495.45   14.80
  -3   5   2  478.25   15.90
  -3   5   2  500.35   15.00
   3   5  -2  503.15   14.70
   3   5  -2  490.05   15.10
   3   5  -2  487.45   16.10
   1  -5  -2   96.09    4.30
  -1  -5   2   97.99    3.20
   1  -5  -2   94.09    3.50
  -1  -5   2  108.89    4.60
   1  -5  -2   97.89    3.70
   1  -5  -2   95.99    3.60
  -1  -5   2   98.69    3.80
  -1  -5   2  100.09    4.70
   1   5  -2  105.79    3.80
   1   5  -2   96.49    4.60
   1   5  -2   96.29    4.50
  -1   5   2   98.99    3.50
  -1   5   2   92.69    4.30
  -1   5   2   98.59    3.80
   1   5  -2  100.19    3.20
  -1   5   2  102.29    3.70
   1   5  -2  101.69    3.30
   1  -5   2    0.60    0.70
  -1  -5  -2    0.00    0.60
  -1  -5  -2    1.20    0.50
   1  -5   2    0.20    0.70
   1  -5   2    0.50    0.40
   1  -5   2    0.70    0.40
  -1  -5  -2    0.10    0.30
  -1  -5  -2   -0.10    0.30
  -1   5  -2    1.10    0.30
  -1   5  -2    1.20    0.50
   1   5   2   -0.20    0.40
  -1   5  -2    0.00    0.80
   1   5   2    0.80    0.80
   1   5   2    0.90    0.50
  -1   5  -2    0.30    0.60
   1   5   2    0.20    0.60
  -3  -5  -2  257.67    8.60
   3  -5   2  254.57    8.40
   3  -5   2  245.98    8.70
  -3  -5  -2  261.07    8.60
   3   5   2  253.27    8.70
  -3   5  -2  257.67    9.60
  -3   5  -2  257.37    8.40
   3   5   2  255.87    8.60
   3   5   2  259.37    8.80
  -3   5  -2  257.87    8.10
  -3   5  -2  257.57    9.30
   5  -5   2  698.33   21.70
  -5  -5  -2  705.93   21.80
  -5  -5  -2  696.93   21.20
   5  -5   2  688.93   22.30
   5  -5   2  716.43   22.10
  -5   5  -2  693.53   22.70
  -5   5  -2  715.43   22.40
   5   5   2  707.93   21.30
   5   5   2  708.93   21.90
   5   5   2  698.13   21.40
  -5   5  -2  711.53   21.30
   7  -5   2  341.47   11.80
  -7  -5  -2  336.77   11.40
   7  -5   2  321.87   11.90
   7  -5   2  327.97   11.30
  -7  -5  -2  329.47   10.30
  -7   5  -2  323.57   11.60
  -7   5  -2  320.57   11.90
  -7   5  -2  329.77   11.40
   7   5   2  323.97   11.40
  -9  -5  -2  131.59    5.90
   9  -5   2  127.99    6.30
   9  -5   2  124.29    6.10
  -9   5  -2  140.29    6.10
  -9   5  -2  137.69    6.30
   9   5   2  133.29    6.00
  -9   5  -2  131.49    5.90
 -11  -5  -2   90.09    4.80
  11  -5   2   80.59    5.10
  11  -5   2   90.49    5.20
 -11   5  -2   81.09    4.50
 -11   5  -2   89.39    4.90
 -11   5  -2   82.09    4.80
  11   5   2   84.89    4.70
 -13  -5  -2  189.48    8.40
  13  -5   2  195.48    9.10
 -13   5  -2  179.78    8.20
  13   5   2  188.68    8.40
 -13   5  -2  201.88    8.10
 -13   5  -2  198.08    8.70
 -15  -5  -2  116.09    6.40
  15  -5   2  124.29    7.10
 -15   5  -2   99.49    6.20
  15   5   2  113.49    6.20
 -15   5  -2  114.09    6.10
 -15   5  -2  120.49    5.90
  17  -5   2  120.99    7.40
 -17  -5  -2  128.99    7.00
 -17   5  -2  127.19    7.20
 -17   5  -2  115.29    6.30
  17   5   2  105.79    6.40
 -17   5  -2  123.99    6.10
 -19  -5  -2  127.99    7.40
  19   5   2  129.59    7.20
 -19   5  -2  108.39    7.20
 -22  -6   2  106.19    6.80
 -22   6   2  118.79    7.50
 -22   6   2  109.59    6.70
 -22   6   2  105.99    7.00
  22   6  -2  117.89    6.40
 -20  -6   2   17.30    2.90
  20  -6  -2   16.50    2.30
 -20   6   2   19.20    3.10
  20   6  -2   19.00    2.60
 -20   6   2   12.60    2.80
 -18  -6   2  150.58    7.60
  18  -6  -2  146.99    8.00
  18  -6  -2  171.88    7.00
  18   6  -2  154.68    7.30
 -18   6   2  157.38    8.20
 -18   6   2  150.68    7.80
  16  -6  -2  113.29    6.50
 -16  -6   2  120.69    6.20
 -16  -6   2  123.09    5.40
  16   6  -2  117.59    5.80
  16   6  -2  125.09    5.40
 -16   6   2  120.29    6.60
  14  -6  -2  156.08    6.80
  14  -6  -2  156.28    7.30
 -14  -6   2  166.68    7.10
  14   6  -2  157.68    6.50
 -14   6   2  158.08    7.60
  14   6  -2  157.58    6.80
  12  -6  -2  212.78    7.70
 -12  -6   2  178.38    7.50
  12  -6  -2  192.48    8.00
 -12   6   2  194.68    6.90
 -12   6   2  194.48    8.40
  12   6  -2  185.28    7.50
  12   6  -2  189.18    7.50
  10  -6  -2  433.06   13.60
 -10  -6   2  401.26   13.70
  10  -6  -2  420.36   13.70
  10  -6  -2  413.76   14.10
 -10   6   2  417.36   14.90
  10   6  -2  409.16   14.10
  10   6  -2  409.86   13.80
 -10   6   2  435.96   13.00
   8  -6  -2  197.28    7.30
   8  -6  -2  221.58    7.90
   8  -6  -2  220.58    7.50
  -8  -6   2  214.38    7.60
   8   6  -2  232.78    7.90
  -8   6   2  212.98    8.70
  -8   6   2  222.68    6.90
   8   6  -2  200.68    7.60
   8   6  -2  223.28    8.30
   6  -6  -2  130.19    4.50
  -6  -6   2  123.29    4.60
   6  -6  -2  129.79    5.00
  -6  -6   2  125.09    5.00
  -6   6   2  129.39    4.20
  -6   6   2  128.29    5.90
   6   6  -2  135.69    4.90
   6   6  -2  120.19    5.70
   4  -6  -2  807.12   22.90
  -4  -6   2  766.72   22.90
   4  -6  -2  785.82   23.00
  -4  -6   2  774.32   23.00
  -4  -6   2  759.02   23.50
   4  -6  -2  760.52   23.40
  -4   6   2  756.42   24.60
   4   6  -2  784.22   24.60
   4   6  -2  801.12   23.20
   2  -6  -2  719.23   21.50
   2  -6  -2  728.73   21.50
  -2  -6   2  732.83   21.30
  -2  -6   2  703.13   21.90
   2  -6  -2  709.33   21.70
  -2   6   2  738.63   21.60
  -2   6   2  744.03   21.90
   2   6  -2  730.43   21.30
  -2   6   2  720.63   22.80
   2   6  -2  709.83   23.10
   0  -6   2   31.20    1.90
   0  -6  -2   34.40    1.80
   0  -6  -2   33.40    1.90
   0  -6   2   34.90    1.60
   0  -6  -2   34.80    2.00
   0  -6  -2   37.30    2.60
   0   6   2   36.50    1.80
   0   6   2   36.30    2.70
   0   6  -2   31.90    2.60
   0   6   2   36.60    2.00
   0   6  -2   35.00    1.40
   0   6  -2   35.50    1.50
   0   6  -2   33.10    2.80
   0   6   2   31.20    2.40
   0   6  -2   35.00    1.90
   2  -6   2  754.62   22.70
  -2  -6  -2  721.53   22.30
   2  -6   2  743.13   22.20
  -2  -6  -2  735.33   22.60
  -2  -6  -2  742.33   23.00
   2   6   2  750.62   22.50
   2   6   2  738.13   22.90
  -2   6  -2  724.93   23.80
  -2   6  -2  770.12   21.90
   2   6   2  738.53   23.10
  -2   6  -2  731.83   23.60
   4  -6   2  344.67   11.30
  -4  -6  -2  348.37   11.50
  -4  -6  -2  350.66   11.50
   4  -6   2  340.27   11.70
  -4   6  -2  368.16   11.00
  -4   6  -2  349.37   12.70
   4   6   2  337.77   11.60
   4   6   2  342.27   11.70
   4   6   2  359.86   11.60
  -4   6  -2  351.26   12.40
  -6  -6  -2  223.28    7.60
  -6  -6  -2  209.58    8.00
   6  -6   2  227.08    8.70
   6  -6   2  215.38    8.30
   6  -6   2  217.18    8.00
  -6   6  -2  219.08    8.70
   6   6   2  224.58    7.80
  -6   6  -2  215.38    9.00
   6   6   2  218.68    8.20
   8  -6   2  279.07   11.00
   8  -6   2  290.77   10.50
   8  -6   2  293.17   10.90
  -8  -6  -2  293.77   10.50
  -8  -6  -2  292.07    9.50
   8   6   2  294.67   10.60
  -8   6  -2  291.87   10.90
  -8   6  -2  295.47   11.30
  10  -6   2  456.75   15.70
  10  -6   2  435.06   15.80
 -10  -6  -2  421.96   15.00
  10  -6   2  445.66   15.30
 -10   6  -2  431.06   15.70
  10   6   2  452.55   15.30
 -10   6  -2  444.56   15.40
 -10   6  -2  421.36   15.20
 -12  -6  -2   76.89    4.60
  12  -6   2   69.69    4.90
  12  -6   2   74.89    4.90
 -12   6  -2   72.39    4.60
  12   6   2   85.49    4.80
 -12   6  -2   77.79    4.90
 -12   6  -2   71.99    4.50
 -14  -6  -2  230.78    9.90
  14  -6   2  243.38   10.70
 -14   6  -2  241.78    9.90
 -14   6  -2  228.38   10.10
 -14   6  -2  234.18   10.20
  14   6   2  236.08   10.00
  16  -6   2  106.99    6.80
 -16  -6  -2  109.79    6.40
  16   6   2  103.59    6.10
 -16   6  -2  113.89    6.60
 -16   6  -2  123.79    6.20
 -16   6  -2  111.39    6.30
  18  -6   2   97.39    6.80
 -18  -6  -2  104.49    6.40
 -18   6  -2  110.19    6.30
 -18   6  -2  101.49    5.80
  18   6   2  108.49    6.40
 -18   6  -2   92.29    6.40
 -20  -6  -2   51.29    4.90
  20   6   2   74.29    5.30
 -20   6  -2   54.69    5.20
 -21  -7   2   73.79    5.20
  21   7  -2   68.79    4.80
 -21   7   2   70.89    5.40
 -21   7   2   59.39    5.50
 -21   7   2   74.99    5.80
  19  -7  -2  129.59    7.50
 -19  -7   2  119.39    6.70
  19   7  -2  120.79    6.40
 -19   7   2  132.59    7.50
 -19   7   2  135.29    7.40
 -17  -7   2  203.98    8.90
 -17  -7   2  207.18    8.00
  17  -7  -2  206.08    9.60
  17   7  -2  193.48    8.60
 -17   7   2  213.68    9.70
  15  -7  -2  172.78    7.60
  15  -7  -2  176.48    8.30
 -15  -7   2  171.68    7.70
 -15   7   2  185.18    8.60
  15   7  -2  180.48    7.60
  15   7  -2  182.98    7.30
  13  -7  -2  186.88    7.60
 -13  -7   2  187.68    7.70
  13  -7  -2  192.08    8.20
  13   7  -2  191.98    7.70
  13   7  -2  185.88    7.60
 -13   7   2  191.88    8.70
  11  -7  -2  169.78    6.70
 -11  -7   2  171.18    6.80
  11  -7  -2  169.38    7.20
  11  -7  -2  154.68    6.50
 -11   7   2  163.68    7.90
 -11   7   2  183.58    6.00
  11   7  -2  177.48    7.20
  11   7  -2  178.18    6.90
  -9  -7   2  207.88    7.50
   9  -7  -2  219.18    7.60
   9  -7  -2  190.68    7.30
   9  -7  -2  213.28    8.00
   9   7  -2  206.78    8.30
  -9   7   2  217.78    6.80
   9   7  -2  219.78    7.80
  -9   7   2  199.28    8.80
   7  -7  -2  267.27    9.20
   7  -7  -2  248.58    8.60
  -7  -7   2  264.57    8.80
  -7  -7   2  268.47    9.30
   7   7  -2  282.17    9.20
  -7   7   2  267.87    8.30
   7   7  -2  267.87   10.10
  -7   7   2  255.47   10.30
  -5  -7   2  791.62   23.60
   5  -7  -2  791.02   23.80
   5  -7  -2  837.42   23.60
  -5  -7   2  801.52   24.40
  -5   7   2  787.42   23.60
  -5   7   2  789.82   25.60
   5   7  -2  779.32   25.50
   5   7  -2  805.72   24.00
   3  -7  -2  630.74   18.50
  -3  -7   2  623.54   18.20
   3  -7  -2  613.94   18.50
   3  -7  -2  627.94   18.90
  -3  -7   2  628.14   18.40
  -3  -7   2  603.34   19.00
   3   7  -2  609.94   20.30
   3   7  -2  612.14   18.50
  -3   7   2  597.34   20.10
   1  -7  -2  759.32   23.00
   1  -7  -2  773.82   22.70
   1  -7  -2  758.12   22.70
  -1  -7   2  744.63   23.10
  -1  -7   2  774.62   22.40
   1  -7  -2  754.32   22.80
  -1   7   2  758.02   24.40
  -1   7   2  756.12   24.10
   1   7  -2  762.62   24.60
   1   7  -2  762.92   22.50
   1   7  -2  731.43   24.20
   1   7  -2  771.92   22.40
  -1  -7  -2 1046.40   31.00
   1  -7   2  997.50   31.00
  -1  -7  -2 1055.09   30.70
   1  -7   2 1039.30   30.40
  -1   7  -2 1031.40   32.60
  -1   7  -2 1059.99   30.30
   1   7   2 1023.10   32.00
   1   7   2 1037.30   31.80
  -1   7  -2  999.90   32.20
  -1   7  -2 1048.70   30.20
   1   7   2 1027.00   30.70
  -3  -7  -2  141.89    5.30
   3  -7   2  136.79    5.20
  -3  -7  -2  140.19    5.50
   3  -7   2  139.19    5.70
  -3  -7  -2  147.29    5.90
  -3   7  -2  147.59    4.90
   3   7   2  141.69    6.10
  -3   7  -2  141.89    6.50
   3   7   2  138.69    5.80
   3   7   2  147.19    5.50
  -3   7  -2  139.79    6.80
   5  -7   2  204.68    8.10
  -5  -7  -2  215.88    7.90
   5  -7   2  224.58    7.80
  -5  -7  -2  211.28    7.80
  -5   7  -2  216.28    8.90
   5   7   2  210.68    7.80
  -5   7  -2  221.08    9.20
   5   7   2  223.28    8.10
   5   7   2  218.98    8.00
   7  -7   2   71.79    4.20
  -7  -7  -2   65.49    3.60
   7  -7   2   66.69    3.60
  -7  -7  -2   67.99    3.30
   7  -7   2   67.49    3.90
  -7   7  -2   68.59    4.30
  -7   7  -2   71.89    4.70
   7   7   2   66.59    3.40
   7   7   2   64.29    3.70
   9  -7   2   99.29    5.00
   9  -7   2   93.39    5.30
   9  -7   2  102.79    5.30
  -9  -7  -2   92.79    4.80
  -9  -7  -2  100.29    4.10
  -9   7  -2   98.49    5.80
   9   7   2  100.69    4.20
   9   7   2  103.79    5.10
  -9   7  -2   95.59    5.40
  11  -7   2  353.56   12.70
  11  -7   2  334.67   13.10
 -11  -7  -2  343.67   12.40
  11  -7   2  348.67   13.00
 -11   7  -2  326.77   12.50
 -11   7  -2  338.77   12.90
 -11   7  -2  311.77   13.10
  11   7   2  341.27   12.60
  13  -7   2   70.79    5.10
 -13  -7  -2   72.89    4.60
 -13   7  -2   78.99    5.20
  13   7   2   78.89    4.70
 -13   7  -2   74.39    4.90
 -13   7  -2   71.49    4.80
 -15  -7  -2   67.19    4.60
  15  -7   2   56.99    4.90
 -15   7  -2   69.99    4.70
  15   7   2   67.39    4.60
 -15   7  -2   64.39    4.80
 -15   7  -2   61.79    4.80
 -17  -7  -2   16.30    2.70
  17  -7   2   17.80    3.10
 -17   7  -2   20.30    2.90
  17   7   2   18.40    2.90
 -17   7  -2   20.50    3.10
 -17   7  -2   25.20    3.40
 -19  -7  -2   40.70    4.20
  19  -7   2   37.50    4.50
  19   7   2   42.90    4.20
 -19   7  -2   34.50    4.20
 -22  -8   2   14.80    2.90
 -22   8   2   18.40    3.70
 -22   8   2   10.90    3.00
  22   8  -2   12.80    2.50
 -22   8   2    9.50    2.80
  20  -8  -2   38.90    4.50
 -20  -8   2   40.80    3.90
 -20   8   2   38.20    4.40
 -20   8   2   38.80    4.30
 -20   8   2   41.10    4.70
  20   8  -2   42.40    3.70
  18  -8  -2  112.99    7.00
 -18  -8   2  127.79    6.50
 -18   8   2  130.89    7.60
  18   8  -2  116.09    6.10
 -18   8   2  108.29    6.80
  16  -8  -2  152.88    7.70
 -16  -8   2  141.89    6.90
  16  -8  -2  148.39    7.00
 -16   8   2  155.48    8.00
  16   8  -2  153.68    6.70
  16   8  -2  152.58    7.00
  14  -8  -2  127.99    6.40
 -14  -8   2  118.79    5.80
  14  -8  -2  122.59    5.80
 -14   8   2  116.99    6.70
  14   8  -2  123.29    5.80
  14   8  -2  118.19    5.70
  12  -8  -2   31.30    2.60
  12  -8  -2   29.60    2.90
 -12  -8   2   36.30    2.60
  12  -8  -2   28.70    2.40
  12   8  -2   36.70    2.90
  12   8  -2   32.00    2.50
 -12   8   2   31.70    3.40
 -10  -8   2  122.29    5.50
  10  -8  -2  122.29    5.30
  10  -8  -2  117.39    5.10
  10  -8  -2  131.19    5.80
 -10  -8   2  129.09    5.30
  10   8  -2  124.69    5.40
 -10   8   2  120.89    6.50
  10   8  -2  128.29    6.00
 -10   8   2  127.89    4.50
  -8  -8   2   49.50    2.90
   8  -8  -2   52.19    2.70
   8  -8  -2   54.59    3.10
  -8  -8   2   49.90    2.60
   8   8  -2   46.40    3.50
  -8   8   2   56.09    2.30
  -8   8   2   48.20    3.80
   6  -8  -2  316.97   10.50
  -6  -8   2  305.17    9.80
   6  -8  -2  297.47   10.00
  -6  -8   2  304.37   10.60
   6   8  -2  332.67   10.40
  -6   8   2  314.57    9.70
  -6   8   2  299.57   11.80
   6   8  -2  308.37   11.70
  -4  -8   2  357.66   11.30
  -4  -8   2  349.77   11.90
   4  -8  -2  360.16   11.80
   4  -8  -2  360.86   11.40
   4  -8  -2  374.76   11.40
  -4  -8   2  362.86   11.10
   4   8  -2  376.26   11.60
   4   8  -2  376.26   13.50
  -4   8   2  356.16   13.20
  -4   8   2  356.76   13.50
   2  -8  -2   81.69    3.40
  -2  -8   2   81.99    3.70
  -2  -8   2   82.49    3.10
   2  -8  -2   83.69    3.30
   2  -8  -2   80.39    3.50
   2   8  -2   82.69    3.20
   2   8  -2   80.69    4.80
  -2   8   2   80.49    4.80
   2   8  -2   81.79    4.60
  -2   8   2   86.99    4.70
   0  -8  -2  342.57   11.20
   0  -8   2  345.67   10.80
   0  -8  -2  353.96   11.30
   0  -8   2  344.47   11.50
   0  -8  -2  343.27   11.10
   0   8   2  353.16   12.80
   0   8   2  339.27   12.40
   0   8  -2  347.67   13.10
   0   8  -2  347.07   12.80
   0   8  -2  354.16   10.70
   0   8  -2  358.96   10.80
   2  -8   2  110.79    4.30
  -2  -8  -2  113.79    4.40
   2  -8   2  114.69    4.80
  -2  -8  -2  106.19    4.60
   2   8   2  118.79    5.30
  -2   8  -2  116.49    4.00
   2   8   2  111.99    4.50
  -2   8  -2  112.29    6.00
  -2   8  -2  113.59    4.10
   2   8   2  113.09    5.50
  -2   8  -2  113.99    5.80
  -4  -8  -2  285.37    9.60
  -4  -8  -2  281.27    9.90
   4  -8   2  273.67   10.00
   4  -8   2  282.97    9.60
  -4   8  -2  287.87   11.50
   4   8   2  285.87   10.40
   4   8   2  284.97    9.80
  -4   8  -2  283.37   11.10
   4   8   2  282.77   10.20
   6  -8   2   85.69    4.50
  -6  -8  -2   89.69    4.20
   6  -8   2   82.99    4.10
  -6   8  -2  102.39    5.70
   6   8   2   90.69    4.40
   6   8   2   93.99    4.60
  -6   8  -2   96.29    5.30
  -8  -8  -2   96.69    4.70
   8  -8   2   99.29    5.20
  -8  -8  -2  101.69    4.50
   8  -8   2   89.29    4.70
   8  -8   2  105.19    5.50
  -8   8  -2  103.59    6.00
   8   8   2  105.59    5.00
   8   8   2   94.59    4.50
  -8   8  -2   91.19    5.50
 -10  -8  -2  140.09    6.40
  10  -8   2  149.09    7.20
  10  -8   2  146.39    7.00
  10  -8   2  141.29    6.60
  10   8   2  142.69    6.60
 -10   8  -2  134.19    7.40
 -10   8  -2  136.59    7.20
  10   8   2  157.58    5.90
 -10   8  -2  142.79    6.70
 -12  -8  -2    0.00    1.00
  12  -8   2   -1.30    1.00
  12  -8   2    0.60    1.40
  12  -8   2   -0.20    1.10
  12   8   2    1.00    1.10
 -12   8  -2    0.00    1.10
 -12   8  -2    2.20    1.50
 -12   8  -2    1.40    1.60
 -14  -8  -2  112.39    6.00
  14  -8   2  111.59    6.70
 -14   8  -2  100.49    6.50
 -14   8  -2  116.59    6.40
 -14   8  -2  114.09    6.30
  14   8   2  100.79    5.90
 -16  -8  -2   30.40    3.30
  16  -8   2   32.00    3.90
 -16   8  -2   34.10    3.70
 -16   8  -2   30.50    3.80
  16   8   2   28.50    3.30
 -16   8  -2   30.70    3.60
 -18  -8  -2   19.10    3.00
  18  -8   2   15.70    3.20
 -18   8  -2   15.10    3.00
 -18   8  -2   19.00    3.00
  18   8   2   12.40    2.50
 -18   8  -2   18.90    3.20
 -21  -9   2   19.90    3.10
  21  -9  -2   26.10    3.90
 -21   9   2   19.10    3.50
  21   9  -2   16.10    2.70
 -21   9   2   18.40    3.50
 -21   9   2   21.10    4.00
 -19  -9   2   22.70    2.90
  19  -9  -2   16.80    3.20
  19   9  -2   18.80    2.70
 -19   9   2   22.40    3.60
 -19   9   2   23.20    3.90
 -17  -9   2    2.40    1.40
  17  -9  -2    1.50    1.80
 -17   9   2    6.10    2.30
 -17   9   2   10.60    2.90
  17   9  -2    3.90    1.50
 -15  -9   2   33.40    3.00
  15  -9  -2   38.40    3.70
  15  -9  -2   35.20    3.10
  15   9  -2   41.20    3.30
  15   9  -2   33.20    3.00
 -15   9   2   37.70    4.10
 -15   9   2   32.70    4.10
  13  -9  -2    7.80    1.60
  13  -9  -2    9.10    1.60
 -13  -9   2    7.10    1.50
  13  -9  -2   10.70    2.20
  13   9  -2    6.30    1.70
 -13   9   2    7.80    2.20
  13   9  -2   10.20    1.70
 -11  -9   2    3.40    1.20
  11  -9  -2    2.40    1.10
  11  -9  -2    5.00    1.50
 -11  -9   2    2.60    1.00
  11  -9  -2    3.00    1.10
 -11   9   2    4.70    1.80
  11   9  -2    2.70    1.40
  11   9  -2    4.10    1.10
  -9  -9   2   76.49    4.10
   9  -9  -2   84.89    3.90
  -9  -9   2   83.19    3.80
   9  -9  -2   79.79    4.30
   9  -9  -2   86.29    4.10
  -9   9   2   87.49    5.40
  -9   9   2   85.19    3.30
  -7  -9   2   34.20    1.90
   7  -9  -2   34.00    2.40
  -7  -9   2   29.80    2.20
   7  -9  -2   31.20    2.00
  -7   9   2   25.20    3.10
  -7   9   2   34.00    1.80
  -7   9   2   35.40    3.70
   7   9  -2   33.40    3.10
   5  -9  -2   59.69    2.70
  -5  -9   2   48.00    2.90
   5  -9  -2   56.29    2.60
  -5  -9   2   56.39    2.50
  -5  -9   2   58.19    2.40
   5   9  -2   60.09    2.90
  -5   9   2   56.59    4.00
   5   9  -2   50.29    3.90
  -5   9   2   57.09    4.30
   3  -9  -2   13.50    1.20
   3  -9  -2   14.50    1.40
  -3  -9   2   11.20    1.30
  -3  -9   2   16.10    1.10
   3   9  -2   14.70    1.20
  -3   9   2   12.40    2.10
   3   9  -2   15.10    2.40
  -3   9   2   15.10    2.50
  -1  -9   2   42.80    2.00
   1  -9  -2   38.00    2.20
   1  -9  -2   41.60    2.30
  -1  -9   2   43.70    2.50
   1   9  -2   38.10    3.60
  -1   9   2   38.00    3.40
   1   9  -2   40.40    2.00
   1   9  -2   48.00    3.60
  -1   9   2   39.60    3.20
  -1  -9  -2  136.19    5.30
  -1  -9  -2  136.59    5.10
  -1  -9  -2  136.39    5.30
   1  -9   2  142.79    5.00
   1  -9   2  129.69    5.50
  -1   9  -2  141.29    4.70
  -1   9  -2  121.49    6.70
   1   9   2  129.99    6.20
  -1   9  -2  134.09    6.60
   1   9   2  139.39    6.70
  -1   9  -2  139.39    4.90
  -3  -9  -2   35.50    2.30
   3  -9   2   42.60    2.70
  -3  -9  -2   36.00    2.20
   3  -9   2   35.00    2.10
   3   9   2   33.60    2.20
  -3   9  -2   39.30    3.70
   3   9   2   31.60    2.70
  -3   9  -2   31.20    3.20
   3   9   2   36.60    3.10
   5  -9   2    0.90    0.80
   5  -9   2   -0.20    0.60
  -5  -9  -2    0.80    0.60
  -5  -9  -2    0.70    0.70
  -5   9  -2    0.20    1.00
   5   9   2    0.70    0.60
   5   9   2    0.00    0.70
   5   9   2    0.50    0.90
  -5   9  -2    0.80    1.40
   7  -9   2   10.30    1.60
   7  -9   2   12.40    1.90
  -7  -9  -2    6.90    1.40
   7   9   2   11.70    1.80
  -7   9  -2   12.40    2.40
   7   9   2    8.90    1.50
  -7   9  -2   15.40    2.80
   9  -9   2   26.20    2.80
   9  -9   2   25.80    2.90
  -9  -9  -2   27.00    2.50
   9  -9   2   31.10    2.80
   9   9   2   30.60    2.60
  -9   9  -2   25.00    3.50
  -9   9  -2   27.90    3.30
   9   9   2   24.20    2.50
  11  -9   2    0.10    1.20
  11  -9   2    1.00    1.50
  11  -9   2    1.20    1.30
 -11  -9  -2    2.70    1.20
 -11   9  -2    3.60    1.90
  11   9   2    1.20    1.00
 -11   9  -2    3.00    1.60
 -11   9  -2    0.90    1.30
 -13  -9  -2    4.30    1.50
  13  -9   2    4.20    1.70
  13  -9   2    7.90    2.20
 -13   9  -2    3.80    1.80
  13   9   2    3.80    1.50
 -13   9  -2    8.60    2.50
 -13   9  -2    5.40    1.80
  15  -9   2    1.80    1.80
 -15  -9  -2   -0.70    1.10
 -15   9  -2   -2.00    1.20
 -15   9  -2    0.30    1.50
  15   9   2    0.40    1.10
 -15   9  -2    0.10    1.70
 -17  -9  -2   -0.60    1.10
  17  -9   2   -0.70    1.50
 -17   9  -2    2.40    1.90
  17   9   2    2.50    1.50
 -17   9  -2    1.80    2.10
 -17   9  -2   -0.80    1.40
  20 -10  -2    2.00    2.10
 -20 -10   2   -1.50    1.20
  20  10  -2   -1.50    1.00
 -20  10   2    2.40    1.90
 -20  10   2    1.30    2.00
 -20  10   2   -0.90    2.10
 -18 -10   2    3.50    1.60
  18 -10  -2    2.50    2.10
 -18  10   2    0.90    2.10
 -18  10   2   -0.40    1.60
  18  10  -2    0.80    1.20
 -16 -10   2    6.30    1.60
  16 -10  -2    7.80    2.20
 -16  10   2    8.80    3.00
 -16  10   2    6.50    2.50
  16  10  -2    6.60    1.70
  14 -10  -2    6.80    2.00
 -14 -10   2    4.40    1.40
 -14 -10   2    2.40    1.20
 -14  10   2    4.90    2.10
  14  10  -2    4.50    1.40
 -14  10   2    8.10    2.90
  14  10  -2    4.70    1.70
  12 -10  -2    7.40    1.90
  12 -10  -2    8.40    1.60
 -12 -10   2    8.40    1.50
 -12 -10   2    8.50    1.70
  12 -10  -2    8.00    1.60
  12  10  -2    8.10    1.60
 -12  10   2    9.80    2.40
 -12  10   2    9.30    2.70
  12  10  -2    6.80    1.90
 -10 -10   2  193.08    7.00
 -10 -10   2  182.48    7.60
  10 -10  -2  172.68    7.30
  10 -10  -2  191.28    7.80
  10 -10  -2  175.68    7.10
 -10  10   2  184.18    9.40
  10  10  -2  190.38    8.40
 -10  10   2  195.38    9.20
   8 -10  -2   47.20    3.10
  -8 -10   2   48.30    2.50
  -8 -10   2   49.40    3.10
  -8 -10   2   47.20    2.70
   8 -10  -2   45.70    2.70
  -8  10   2   42.70    4.50
  -8  10   2   50.69    4.20
   8  10  -2   46.60    3.80
  -6 -10   2    7.30    1.00
   6 -10  -2    5.60    1.20
   6 -10  -2    5.60    1.00
  -6 -10   2    5.80    0.80
  -6 -10   2    5.00    1.20
  -6  10   2    4.50    1.80
  -6  10   2    5.40    2.00
   6  10  -2    4.40    1.70
   4 -10  -2  131.89    5.50
  -4 -10   2  134.09    5.60
   4 -10  -2  138.09    5.20
  -4 -10   2  139.59    4.90
  -4 -10   2  136.79    4.70
   4  10  -2  137.39    5.30
   4  10  -2  130.39    7.00
  -4  10   2  131.49    6.90
  -4  10   2  145.59    7.40
   2 -10  -2   -0.20    0.50
   2 -10  -2    1.00    0.60
  -2 -10   2    1.00    0.70
  -2 -10   2    0.60    0.50
   2  10  -2   -0.50    1.00
   2  10  -2   -0.30    0.50
  -2  10   2    1.40    1.20
   0 -10  -2   -0.10    0.40
   0 -10  -2    0.40    0.60
   0 -10   2    2.30    0.80
   0 -10  -2    0.10    0.50
   0 -10   2    1.20    0.60
   0  10  -2   -0.50    1.20
   0  10  -2    1.60    0.60
   0  10   2    3.30    1.60
   0  10  -2    1.70    0.60
   0  10  -2    1.80    1.30
   0  10   2    1.20    1.10
  -2 -10  -2    0.60    0.60
  -2 -10  -2    1.00    0.70
   2 -10   2    0.80    0.80
  -2 -10  -2    0.40    0.60
   2 -10   2    1.20    0.70
   2  10   2    1.20    1.30
   2  10   2    1.00    1.00
  -2  10  -2    0.80    1.40
  -2  10  -2    0.00    1.00
  -4 -10  -2   25.80    2.10
  -4 -10  -2   31.00    2.10
  -4 -10  -2   29.30    2.20
   4 -10   2   29.60    2.50
   4 -10   2   34.90    2.30
   4  10   2   34.90    2.40
  -4  10  -2   30.60    3.60
   4  10   2   32.20    2.90
  -4  10  -2   30.80    3.40
   4  10   2   33.40    3.10
  -6 -10  -2   19.10    1.90
  -6 -10  -2   18.80    2.10
   6 -10   2   23.10    2.40
   6 -10   2   18.90    2.00
  -6  10  -2   19.80    3.20
   6  10   2   20.90    2.50
  -6  10  -2   18.00    2.90
   6  10   2   20.30    2.10
  -8 -10  -2    1.20    0.90
   8 -10   2    0.00    1.30
   8 -10   2   -0.60    1.00
   8 -10   2    0.20    1.00
  -8  10  -2    0.40    1.50
   8  10   2    1.20    0.90
  -8  10  -2   -0.10    1.30
   8  10   2    0.30    1.00
  10 -10   2  114.39    6.30
  10 -10   2  122.09    6.10
  10 -10   2  123.49    6.70
 -10 -10  -2  114.19    5.60
 -10  10  -2  123.39    7.40
  10  10   2  121.29    5.90
 -10  10  -2  113.39    6.80
  12 -10   2    3.10    1.70
 -12 -10  -2    5.10    1.60
  12 -10   2    5.60    2.00
  12 -10   2    3.20    1.60
 -12  10  -2    6.80    2.20
  12  10   2    5.90    1.70
 -12  10  -2    5.70    2.40
 -12  10  -2    3.80    1.60
 -14 -10  -2   64.69    4.50
  14 -10   2   70.09    5.30
  14 -10   2   74.89    5.60
 -14  10  -2   63.99    4.80
 -14  10  -2   73.89    5.80
 -14  10  -2   64.89    5.20
  14  10   2   71.89    4.80
  16 -10   2    9.50    2.70
 -16 -10  -2   12.00    2.40
 -16  10  -2   12.50    3.20
 -16  10  -2    7.50    2.40
 -16  10  -2   14.00    2.80
  16  10   2   14.30    2.50
 -19 -11   2   40.10    3.70
  19 -11  -2   45.00    4.80
 -19 -11   2   36.90    3.70
 -19  11   2   44.40    5.30
  19  11  -2   35.20    3.60
 -19  11   2   46.70    5.10
  17 -11  -2   77.59    5.70
 -17 -11   2   81.69    5.20
 -17 -11   2   78.69    4.80
  17  11  -2   77.69    4.90
 -17  11   2   72.29    6.60
 -17  11   2   73.99    6.00
 -15 -11   2   38.90    3.50
 -15 -11   2   44.30    3.30
  15 -11  -2   40.40    4.00
 -15  11   2   39.90    5.00
 -15  11   2   35.40    4.50
  15  11  -2   38.10    3.30
 -13 -11   2   57.49    3.50
  13 -11  -2   67.09    4.50
 -13 -11   2   57.69    4.00
  13  11  -2   63.59    4.50
 -13  11   2   58.29    5.60
  13  11  -2   54.79    3.80
 -13  11   2   59.19    5.40
 -11 -11   2   29.40    2.30
 -11 -11   2   31.70    2.80
  11 -11  -2   29.90    3.00
  11 -11  -2   27.50    2.50
  11 -11  -2   29.70    2.70
 -11  11   2   28.30    3.80
  11  11  -2   29.40    3.30
 -11  11   2   25.00    3.90
   9 -11  -2   69.59    4.10
  -9 -11   2   65.29    3.20
   9 -11  -2   64.49    3.60
  -9 -11   2   65.59    3.90
  -9 -11   2   68.09    3.50
  -9  11   2   72.89    5.60
   9  11  -2   60.99    4.70
  -9  11   2   64.39    5.10
  -7 -11   2   56.09    2.80
  -7 -11   2   61.19    3.50
   7 -11  -2   49.80    3.00
  -7 -11   2   57.59    2.70
   7 -11  -2   48.90    3.20
   7  11  -2   55.69    4.40
  -7  11   2   63.09    5.10
  -7  11   2   57.19    4.60
  -5 -11   2  155.38    6.40
  -5 -11   2  159.48    5.60
   5 -11  -2  151.28    5.90
   5 -11  -2  146.59    6.10
  -5 -11   2  156.48    5.30
   5  11  -2  150.88    7.90
  -5  11   2  150.08    7.80
  -5  11   2  147.89    8.20
  -3 -11   2  191.38    7.50
   3 -11  -2  198.08    7.40
  -3 -11   2  205.98    6.80
   3 -11  -2  207.58    7.20
   3  11  -2  190.38    9.30
  -3  11   2  176.98    8.80
  -3  11   2  196.58    9.40
   1 -11  -2  175.78    6.80
   1 -11  -2  187.88    6.80
  -1 -11   2  179.98    7.20
  -1  11   2  183.18    8.50
   1  11  -2  191.88    8.90
   1  11  -2  184.08    9.00
  -1  11   2  186.58    8.90
  -1 -11  -2  146.39    5.70
   1 -11   2  143.99    5.40
  -1 -11  -2  133.19    5.60
  -1 -11  -2  150.38    5.50
   1 -11   2  145.29    6.10
   1  11   2  135.79    7.30
   1  11   2  130.29    6.90
  -1  11  -2  142.59    7.50
  -1  11  -2  144.49    7.90
   3 -11   2   61.09    3.60
  -3 -11  -2   56.89    2.90
   3 -11   2   57.29    3.10
  -3 -11  -2   54.79    3.20
  -3 -11  -2   58.69    3.20
   3  11   2   57.69    4.00
  -3  11  -2   57.29    4.50
  -3  11  -2   54.09    4.90
   3  11   2   51.79    4.20
  -5 -11  -2   38.80    2.50
  -5 -11  -2   41.10    2.90
   5 -11   2   45.60    3.30
   5 -11   2   41.30    2.80
  -5 -11  -2   38.50    2.70
   5  11   2   40.80    3.40
  -5  11  -2   46.30    4.30
  -5  11  -2   36.20    4.20
   5  11   2   38.70    3.50
   5  11   2   44.60    2.90
  -7 -11  -2    5.00    1.20
  -7 -11  -2    4.60    1.30
   7 -11   2    6.00    1.50
   7 -11   2    4.80    1.60
   7  11   2    4.60    1.70
  -7  11  -2    4.40    2.10
   7  11   2    5.10    1.40
  -7  11  -2    8.30    2.20
   9 -11   2   39.70    3.80
  -9 -11  -2   41.00    3.00
   9 -11   2   35.20    3.50
   9 -11   2   39.10    3.30
  -9  11  -2   38.30    4.50
   9  11   2   35.00    3.00
   9  11   2   41.50    3.40
  -9  11  -2   42.80    4.30
  11 -11   2   69.09    4.70
 -11 -11  -2   77.49    4.50
  11 -11   2   82.09    5.60
  11 -11   2   75.79    5.20
 -11  11  -2   79.69    6.10
 -11  11  -2   72.99    5.50
  11  11   2   83.29    4.80
 -13 -11  -2   43.60    3.50
  13 -11   2   37.10    4.10
  13 -11   2   38.00    3.80
  13 -11   2   45.20    4.20
 -13  11  -2   42.60    3.80
 -13  11  -2   41.80    4.50
 -13  11  -2   47.40    5.10
  13  11   2   33.40    3.40
 -15 -11  -2   22.10    2.80
  15  11   2   14.60    2.60
 -15  11  -2   21.80    3.20
 -15  11  -2   24.60    4.00
 -15  11  -2   27.10    3.90
  18 -12  -2   98.79    6.70
 -18 -12   2   97.69    5.90
 -18 -12   2   88.29    5.30
 -18  12   2   79.49    6.60
  18  12  -2   93.19    5.60
 -18  12   2   90.39    7.40
  16 -12  -2   99.29    6.40
 -16 -12   2   95.19    5.70
 -16 -12   2   91.99    5.10
 -16  12   2   84.69    6.70
  16  12  -2   97.69    5.50
 -16  12   2   92.39    7.40
  14 -12  -2  104.29    6.40
 -14 -12   2  125.89    6.40
 -14 -12   2  123.89    5.70
 -14  12   2  115.69    7.60
 -14  12   2  123.19    8.30
 -12 -12   2  124.89    5.30
  12 -12  -2  128.09    6.50
 -12 -12   2  110.99    5.90
 -12  12   2  115.29    7.90
  12  12  -2  122.99    6.90
 -12  12   2  114.69    7.40
 -10 -12   2    6.90    1.20
  10 -12  -2    7.30    1.70
 -10 -12   2    6.50    1.30
  10 -12  -2    5.20    1.70
 -10 -12   2    5.60    1.50
  10 -12  -2    4.00    1.40
 -10  12   2    7.20    2.70
 -10  12   2    7.10    2.40
  -8 -12   2  175.58    6.40
  -8 -12   2  169.88    7.20
  -8 -12   2  171.28    6.10
   8 -12  -2  163.38    6.80
   8 -12  -2  161.38    7.10
  -8  12   2  165.58    9.20
   8  12  -2  154.68    8.40
  -8  12   2  162.98    8.80
  -6 -12   2  195.18    6.80
   6 -12  -2  195.38    7.60
  -6 -12   2  182.48    7.60
   6 -12  -2  192.08    7.30
  -6 -12   2  193.48    6.60
   6  12  -2  190.08    9.30
  -6  12   2  176.78    9.60
  -6  12   2  191.58    9.40
   4 -12  -2  197.48    7.60
   4 -12  -2  192.58    7.30
  -4 -12   2  195.88    6.80
  -4 -12   2  194.58    7.70
  -4  12   2  201.28    9.50
  -4  12   2  205.28    9.90
   4  12  -2  182.18    9.40
  -2 -12   2  103.19    4.80
   2 -12  -2   94.69    4.40
  -2 -12   2   93.89    3.90
   2 -12  -2   95.19    4.30
  -2  12   2   96.69    5.90
  -2  12   2   97.49    6.40
   2  12  -2   90.59    6.20
   0 -12  -2  173.68    6.70
   0 -12   2  171.98    7.10
   0 -12   2  178.58    6.30
   0 -12  -2  171.18    6.70
   0  12   2  162.08    8.30
   0  12   2  174.98    8.80
   0  12  -2  182.48    8.90
   0  12  -2  174.58    9.10
   2 -12   2  224.98    8.60
  -2 -12  -2  214.78    8.10
  -2 -12  -2  221.18    8.00
   2 -12   2  222.38    7.80
  -2 -12  -2  205.88    7.60
  -2  12  -2  203.88   10.50
   2  12   2  207.18    9.40
   2  12   2  201.78    9.70
  -2  12  -2  215.38   10.20
  -4 -12  -2   72.39    4.00
   4 -12   2   69.59    4.30
  -4 -12  -2   77.59    3.90
  -4 -12  -2   72.99    3.60
   4 -12   2   75.39    3.90
   4  12   2   74.39    5.20
  -4  12  -2   75.29    5.80
  -4  12  -2   71.29    5.40
   4  12   2   71.59    4.80
   6 -12   2   99.59    4.80
  -6 -12  -2   94.29    4.40
   6 -12   2  103.69    5.50
  -6 -12  -2   92.49    4.80
  -6 -12  -2   94.09    4.70
  -6  12  -2   86.39    6.50
  -6  12  -2   81.69    6.00
   6  12   2   93.69    4.70
   6  12   2   90.69    5.60
   8 -12   2  183.48    8.60
   8 -12   2  191.98    8.20
  -8 -12  -2  202.48    7.90
  -8 -12  -2  196.38    8.20
   8 -12   2  201.28    9.20
   8  12   2  195.68    8.80
  -8  12  -2  208.68   10.10
   8  12   2  205.68    8.30
  -8  12  -2  183.98   10.10
  10 -12   2   19.50    2.60
 -10 -12  -2   15.40    2.30
 -10 -12  -2   19.00    2.20
  10 -12   2   22.60    3.00
  10 -12   2   18.40    3.00
 -10  12  -2   24.70    4.00
 -10  12  -2   19.20    3.40
  10  12   2   17.80    2.40
  12 -12   2   84.19    5.60
  12 -12   2   83.59    5.90
 -12 -12  -2   89.19    4.90
  12 -12   2   79.99    5.30
 -12  12  -2   76.29    6.40
 -12  12  -2   75.19    6.00
  12  12   2   81.69    5.00
 -12  12  -2   77.99    5.20
 -14 -12  -2   20.40    2.60
 -14  12  -2   18.00    2.90
 -14  12  -2   18.30    3.80
 -14  12  -2   17.00    3.40
  14  12   2   25.20    3.10
 -17 -13   2   37.00    3.70
  17 -13  -2   37.00    4.30
 -17 -13   2   36.60    3.20
 -17  13   2   31.40    5.00
 -17  13   2   36.60    4.90
 -15 -13   2   73.89    4.90
 -15 -13   2   73.49    4.30
  15 -13  -2   78.69    5.60
 -15  13   2   69.19    6.30
 -15  13   2   70.09    6.70
 -13 -13   2   79.49    5.10
  13 -13  -2   94.09    5.70
 -13 -13   2   88.49    4.70
 -13 -13   2   89.49    4.40
  13  13  -2   92.79    6.10
 -13  13   2   83.19    6.50
 -13  13   2   89.69    7.20
  11 -13  -2   78.99    4.90
 -11 -13   2   70.29    4.50
 -11 -13   2   79.69    3.80
 -11 -13   2   77.09    4.10
 -11  13   2   74.59    6.00
  11  13  -2   75.49    5.50
 -11  13   2   84.09    6.70
   9 -13  -2  132.89    6.50
  -9 -13   2  132.89    6.30
  -9 -13   2  132.59    5.50
  -9 -13   2  141.49    5.30
  -9  13   2  139.29    8.50
  -9  13   2  126.79    7.90
   9  13  -2  127.59    7.60
  -7 -13   2  175.88    7.50
  -7 -13   2  175.18    6.50
   7 -13  -2  183.88    7.50
   7 -13  -2  189.18    7.30
  -7 -13   2  171.68    6.30
   7  13  -2  171.78    9.10
  -7  13   2  171.18    9.20
  -7  13   2  172.98    9.60
   5 -13  -2  129.29    5.50
  -5 -13   2  122.09    5.80
  -5 -13   2  123.49    4.90
   5 -13  -2  133.79    5.70
  -5  13   2  106.09    7.50
   5  13  -2  116.89    7.40
  -5  13   2  140.89    7.80
  -3 -13   2   76.99    3.40
  -3 -13   2   72.79    4.10
   3 -13  -2   79.69    3.90
   3 -13  -2   64.09    3.70
   3  13  -2   76.99    5.80
  -3  13   2   67.19    5.70
  -3  13   2   74.39    5.40
   1 -13  -2  130.19    5.60
  -1 -13   2  135.79    6.00
  -1 -13   2  134.59    5.20
   1 -13  -2  129.59    5.50
  -1  13   2  132.59    7.80
   1  13  -2  132.19    8.00
  -1  13   2  123.19    7.30
   1 -13   2  152.18    6.70
  -1 -13  -2  158.98    6.20
   1 -13   2  152.48    5.90
  -1 -13  -2  146.89    6.20
   1  13   2  155.48    8.30
   1  13   2  150.98    7.90
  -1  13  -2  150.88    8.70
  -1  13  -2  143.39    8.20
  -3 -13  -2  156.68    6.70
  -3 -13  -2  161.98    6.30
   3 -13   2  159.78    7.20
   3 -13   2  169.98    6.60
  -3 -13  -2  168.88    6.60
   3  13   2  154.98    8.00
  -3  13  -2  154.58    8.70
   3  13   2  164.28    8.60
  -3  13  -2  169.88    9.40
   5 -13   2   54.69    3.90
  -5 -13  -2   51.19    3.00
   5 -13   2   48.80    3.30
  -5 -13  -2   57.29    3.40
  -5 -13  -2   52.39    3.40
   5  13   2   58.09    4.70
  -5  13  -2   58.39    5.60
  -5  13  -2   55.59    5.10
   7 -13   2   89.49    4.90
  -7 -13  -2   97.19    4.60
  -7 -13  -2   94.89    5.10
   7 -13   2   89.69    5.40
  -7 -13  -2   86.39    4.70
   7  13   2   88.29    5.80
  -7  13  -2   90.49    6.90
  -7  13  -2  106.09    6.80
   7  13   2   89.99    4.90
   9 -13   2  149.29    8.00
   9 -13   2  156.18    7.80
  -9 -13  -2  146.29    7.10
  -9 -13  -2  152.08    6.90
   9 -13   2  145.59    7.00
  -9 -13  -2  152.28    6.50
  -9  13  -2  151.98    9.20
   9  13   2  146.49    6.90
  -9  13  -2  151.08    8.70
  11 -13   2   12.50    2.50
 -11 -13  -2   12.90    2.30
  11 -13   2   14.10    2.70
 -11 -13  -2   15.20    2.10
  11 -13   2   12.80    2.80
 -11  13  -2   13.80    3.80
  11  13   2   20.50    2.60
 -11  13  -2   20.70    3.70
 -13 -13  -2   61.89    4.20
  13 -13   2   68.79    5.00
  13  13   2   63.89    4.50
 -13  13  -2   57.29    4.70
 -13  13  -2   51.69    5.90
 -13  13  -2   68.19    5.80
  14 -14  -2   34.00    3.80
 -14 -14   2   32.50    3.50
 -14  14   2   30.00    5.00
 -14  14   2   36.90    5.00
 -12 -14   2   38.80    2.90
  12 -14  -2   41.40    3.80
 -12 -14   2   38.90    2.70
 -12 -14   2   38.20    3.50
 -12  14   2   30.90    4.60
 -12  14   2   42.80    5.50
  12  14  -2   54.59    4.90
 -10 -14   2   33.70    2.30
  10 -14  -2   37.30    3.40
 -10 -14   2   35.70    2.60
 -10 -14   2   32.50    3.10
 -10  14   2   32.00    4.50
 -10  14   2   37.10    5.10
  -8 -14   2  116.89    4.60
   8 -14  -2  108.49    5.70
  -8 -14   2  116.59    5.80
  -8 -14   2  107.69    4.70
  -8  14   2  115.19    8.00
  -8  14   2  107.49    7.30
   8  14  -2  116.39    7.30
  -6 -14   2  125.59    4.90
   6 -14  -2  128.29    5.70
   6 -14  -2  116.49    5.70
  -6 -14   2  110.29    5.70
  -6  14   2  122.49    7.60
   6  14  -2  119.59    7.50
  -6  14   2  118.29    8.00
  -4 -14   2   11.90    1.40
   4 -14  -2   15.80    2.00
  -4 -14   2   14.50    2.00
   4 -14  -2   14.70    1.80
   4  14  -2   13.70    3.10
  -4  14   2   13.00    3.20
  -4  14   2   11.50    2.70
   2 -14  -2   66.09    3.60
   2 -14  -2   61.79    3.60
  -2 -14   2   56.89    3.70
   2  14  -2   55.49    5.40
  -2  14   2   65.99    5.60
  -2  14   2   58.79    5.00
   0 -14   2  189.08    7.80
   0 -14  -2  175.58    7.10
   0 -14   2  185.48    6.80
   0 -14  -2  177.68    7.20
   0  14  -2  179.38    9.90
   0  14   2  160.48    8.80
   0  14   2  179.28    9.60
  -2 -14  -2   50.89    3.30
   2 -14   2   50.39    3.60
   2 -14   2   52.19    3.10
  -2 -14  -2   51.29    3.10
  -2  14  -2   46.60    5.20
   2  14   2   48.50    4.80
   2  14   2   50.89    4.60
  -2  14  -2   46.00    4.90
  -4 -14  -2   65.79    3.50
  -4 -14  -2   67.59    3.70
   4 -14   2   61.39    3.70
  -4 -14  -2   63.89    3.90
   4 -14   2   64.69    4.40
  -4  14  -2   56.79    5.80
   4  14   2   68.59    5.10
  -4  14  -2   66.99    5.50
   4  14   2   75.59    5.50
   6 -14   2   50.59    4.00
  -6 -14  -2   51.09    3.10
  -6 -14  -2   47.60    3.30
   6 -14   2   53.19    3.60
  -6 -14  -2   47.80    3.50
   6  14   2   49.99    4.60
  -6  14  -2   45.70    5.40
  -6  14  -2   43.60    5.00
  -8 -14  -2   18.20    2.40
  -8 -14  -2   17.50    2.00
   8 -14   2   20.20    2.90
   8 -14   2   19.60    2.50
  -8 -14  -2   13.60    2.20
  -8  14  -2   22.50    4.10
  -8  14  -2   20.00    3.60
   8  14   2   23.70    3.40
 -10 -14  -2    9.20    2.00
 -10 -14  -2   13.20    1.90
  10 -14   2   14.20    2.50
 -10 -14  -2    7.60    1.90
 -10  14  -2    9.50    2.90
  10  14   2   12.10    2.20
 -10  14  -2    8.90    3.10
 -12 -14  -2   36.00    3.50
 -12 -14  -2   33.10    3.00
 -12 -14  -2   31.00    3.30
  12 -14   2   31.80    3.60
 -12  14  -2   31.10    4.90
  12  14   2   38.70    3.60
 -12  14  -2   35.70    4.80
  13 -15  -2    5.60    2.30
 -13 -15   2    5.80    1.80
 -13  15   2    5.70    3.20
 -13  15   2    2.30    2.20
  11 -15  -2   13.60    2.60
 -11 -15   2   16.00    2.50
 -11  15   2   13.20    3.70
 -11  15   2   14.50    3.40
  11  15  -2   17.00    3.40
   9 -15  -2    6.20    1.90
  -9 -15   2    7.20    1.80
  -9  15   2    4.60    2.40
  -9  15   2    3.50    2.40
   9  15  -2    7.30    2.70
  -7 -15   2   20.50    2.50
   7 -15  -2   25.60    2.70
  -7  15   2   17.80    3.90
  -7  15   2   20.90    3.80
   7  15  -2   21.70    3.70
  -5 -15   2    2.70    1.20
   5 -15  -2    4.00    1.50
   5  15  -2    0.90    1.80
  -5  15   2    1.80    2.10
  -5  15   2    1.10    1.70
   3 -15  -2    0.50    0.90
  -3 -15   2   -0.60    0.90
  -3  15   2   -0.60    1.40
  -3  15   2    0.10    1.90
   3  15  -2   -0.50    1.80
  -1 -15   2    1.90    1.20
   1 -15  -2   -0.50    0.80
   1 -15  -2    0.40    0.80
  -1  15   2    4.10    2.20
   1  15  -2    1.00    1.80
  -1  15   2    0.50    1.60
  -1 -15  -2   19.70    2.10
  -1 -15  -2   17.30    2.00
   1 -15   2   18.70    2.40
  -1  15  -2   18.10    3.70
   1  15   2   23.30    3.60
   1  15   2   22.90    3.80
  -3 -15  -2    7.00    1.50
   3 -15   2   10.30    2.10
  -3 -15  -2    5.30    1.50
   3  15   2    9.20    2.50
  -3  15  -2    6.60    2.50
   3  15   2    7.10    2.50
  -3  15  -2    5.50    2.60
   5 -15   2   26.30    3.00
  -5 -15  -2   21.20    2.00
  -5 -15  -2   22.20    2.30
  -5 -15  -2   17.50    2.20
  -5  15  -2   19.20    4.00
   5  15   2   14.60    3.00
  -5  15  -2   18.10    3.70
  -7 -15  -2   42.60    3.40
  -7 -15  -2   40.50    3.10
  -7 -15  -2   48.10    3.10
   7 -15   2   38.90    3.90
  -7  15  -2   49.50    5.50
   7  15   2   39.40    4.30
  -7  15  -2   42.20    5.60
  -9 -15  -2    3.90    1.50
  -9 -15  -2    3.00    1.30
  -9 -15  -2    2.30    1.30
  -9  15  -2    5.10    2.60
  -9  15  -2    4.80    2.40
 -10 -16   2    7.40    2.00
  10 -16  -2    5.20    2.20
 -10  16   2    9.40    3.10
 -10  16   2   16.50    3.60
  -8 -16   2    2.10    1.50
   8 -16  -2    1.10    1.60
  -8  16   2    1.30    2.20
  -8  16   2    4.00    2.30
   8  16  -2    4.20    2.40
  -6 -16   2    4.50    1.60
   6 -16  -2    8.30    2.00
  -6  16   2    8.00    2.80
  -6  16   2    7.30    2.90
   6  16  -2    6.60    2.60
   4 -16  -2    4.70    1.40
  -4 -16   2    6.40    1.70
  -4  16   2    4.20    2.50
  -4  16   2    3.70    2.10
   4  16  -2    6.40    2.70
   2 -16  -2    0.30    0.90
   2 -16  -2    0.50    1.00
  -2 -16   2    1.40    1.10
  -2  16   2    3.50    2.10
   2  16  -2    0.20    1.90
  -2  16   2    1.90    2.20
   0 -16   2   16.10    2.40
   0 -16  -2   14.70    2.00
   0 -16  -2   15.50    1.90
   0  16   2   18.20    3.50
   0  16   2   15.70    3.50
   0  16  -2   18.00    3.90
  -2 -16  -2    0.00    0.80
   2 -16   2   -0.80    1.20
  -2 -16  -2    2.50    1.20
   2  16   2    1.50    2.10
  -2  16  -2    5.70    2.50
   2  16   2   -0.30    1.50
   4 -16   2    1.90    1.60
  -4 -16  -2   -0.40    1.00
  -4 -16  -2    0.20    0.90
  -4  16  -2    0.50    1.70
   4  16   2    2.60    2.10
  -4  16  -2   -1.70    1.80
  -6 -16  -2    0.50    1.20
  -6 -16  -2    1.10    1.00
  -6 -16  -2    1.70    1.10
  -6  16  -2    1.30    2.10
   6  16   2    4.00    2.30
  -6  16  -2   -1.40    2.20
  -8 -16  -2    3.10    1.50
  -8 -16  -2    4.50    1.50
  -8  16  -2    6.20    3.10
   7 -17  -2   54.99    4.20
  -7 -17   2   56.49    4.20
   7  17  -2   53.09    5.80
  -7  17   2   48.00    6.10
  -7  17   2   57.09    6.20
  -5 -17   2   13.30    2.30
   5 -17  -2   11.90    2.20
  -5  17   2   15.80    3.50
   5  17  -2   14.70    3.70
  -5  17   2   11.20    3.60
  -3 -17   2   -0.10    1.20
   3 -17  -2   -0.60    1.20
  -3  17   2    1.70    2.40
  -3  17   2    1.80    2.10
   3  17  -2   -1.50    2.10
  -1 -17   2    6.90    2.10
   1 -17  -2    9.70    1.80
   1  17  -2    2.10    2.60
  -1  17   2   10.80    3.10
  -1  17   2    8.80    3.00
  -1 -17  -2   21.20    2.50
  -1 -17  -2   23.00    2.40
   1 -17   2   24.00    3.10
   1  17   2   30.30    4.60
  -1  17  -2   22.10    4.70
   1  17   2   28.50    4.30
   3 -17   2   23.10    3.20
  -3 -17  -2   24.70    2.50
  -3 -17  -2   17.90    2.40
   3  17   2   25.80    4.40
  -3  17  -2   23.60    4.50
  24   0  -3   -0.10    1.20
 -24   0   3   -1.50    1.50
  22   0  -3    0.30    1.20
 -22   0   3    0.10    1.50
  20   0  -3    0.60    1.00
 -20   0   3    1.00    1.20
 -20   0   3    0.00    1.50
  18   0  -3    0.60    0.90
 -18   0   3    0.80    1.10
 -18   0   3    0.20    1.20
  16   0  -3    0.30    0.70
 -16   0   3    1.30    0.90
 -16   0   3    0.40    1.10
 -14   0   3   -0.80    0.60
  14   0  -3    0.40    0.60
  14   0  -3   -0.10    0.80
 -14   0   3   -0.70    0.70
  12   0  -3   -0.20    0.70
  12   0  -3    0.00    0.50
 -12   0   3    1.60    0.90
 -12   0   3    0.70    0.80
  10   0  -3    0.50    0.70
 -10   0   3    0.40    0.50
 -10   0   3   -0.50    0.60
 -10   0   3   -0.20    0.60
  10   0  -3   -0.20    0.40
   8   0  -3   -0.30    0.30
  -8   0   3   -0.90    0.40
   8   0  -3    0.30    0.50
  -8   0   3   -0.70    0.30
  -8   0   3   -1.10    0.30
  -8   0   3   -0.20    0.50
  -6   0   3    0.20    0.30
  -6   0   3    0.00    0.20
   6   0  -3   -0.60    0.20
  -6   0   3   -0.30    0.40
   6   0  -3   -0.30    0.20
  -6   0   3   -0.70    0.40
  -6   0   3    0.30    0.30
   4   0  -3   -0.30    0.50
  -4   0   3   -1.40    0.30
  -4   0   3   -0.80    0.20
   4   0  -3   -0.70    0.20
  -4   0   3   -1.10    0.20
   4   0  -3    0.40    0.30
  -2   0   3   -0.60    0.40
   2   0  -3   -0.90    0.20
  -2   0   3   -0.40    0.20
   2   0  -3   -1.00    0.40
   2   0  -3   -0.80    0.30
  -2   0   3    0.00    0.30
   2   0  -3   -1.10    0.20
  -2   0   3   -1.20    0.30
   0   0  -3    0.40    0.50
   0   0  -3    0.20    0.40
   0   0   3    0.70    0.50
   0   0  -3    0.50    0.30
   0   0   3    0.40    0.30
   0   0  -3    0.50    0.50
   0   0   3    0.70    0.40
   0   0   3    0.20    0.40
   2   0   3    0.00    0.40
  -2   0  -3   -0.60    0.50
   2   0   3    0.40    0.40
  -2   0  -3   -0.10    0.50
   2   0   3    0.00    0.50
   2   0   3   -0.40    0.50
  -2   0  -3   -0.30    0.40
  -2   0  -3    0.10    0.30
   4   0   3    1.50    0.70
  -4   0  -3    0.60    0.60
   4   0   3    0.40    0.40
   4   0   3    0.20    0.30
   4   0   3    1.40    0.90
  -4   0  -3    0.30    0.70
  -4   0  -3    0.40    0.40
  -4   0  -3    1.10    0.80
  -6   0  -3    0.60    0.80
   6   0   3    0.50    0.40
  -6   0  -3    0.40    0.50
   6   0   3    1.10    1.10
  -8   0  -3    0.30    0.70
   8   0   3   -0.10    0.40
   8   0   3    1.20    1.00
 -10   0  -3    0.70    0.90
  10   0   3    1.40    1.30
  12   0   3    0.30    1.20
 -12   0  -3   -1.10    0.80
 -14   0  -3    0.20    1.20
  14   0   3    0.70    1.20
 -16   0  -3   -1.70    1.00
  16   0   3   -1.10    1.20
  18   0   3    0.50    1.30
 -18   0  -3    1.90    1.60
 -20   0  -3    0.90    1.70
  20   0   3   -1.30    1.30
  25  -1  -3    3.50    1.60
 -25  -1   3    3.50    2.30
 -25   1   3    0.50    2.10
  25   1  -3    0.10    1.30
 -23  -1   3   12.20    2.90
  23  -1  -3    7.10    1.80
 -23   1   3    6.30    2.30
  23   1  -3    9.90    2.10
 -21  -1   3    0.50    1.20
  21  -1  -3    0.40    1.10
 -21  -1   3    0.30    1.70
 -21   1   3    0.10    1.40
  21   1  -3    0.80    1.20
 -21   1   3    2.10    1.70
 -19  -1   3  140.49    7.40
 -19  -1   3  142.89    6.40
  19  -1  -3  136.99    6.30
 -19   1   3  138.49    6.60
  19   1  -3  133.99    6.30
 -19   1   3  143.49    7.50
 -17  -1   3   -1.20    1.00
  17  -1  -3    0.90    0.90
 -17  -1   3    1.80    1.00
 -17   1   3    3.40    1.30
 -17   1   3    1.40    1.20
  17   1  -3    2.80    1.10
  15  -1  -3   17.00    2.30
 -15  -1   3   20.80    2.50
 -15  -1   3   21.10    2.10
  15  -1  -3   17.20    1.80
  15   1  -3   21.00    2.00
 -15   1   3   21.90    2.30
 -15   1   3   17.20    2.30
 -13  -1   3   19.60    1.90
  13  -1  -3   22.20    2.30
  13  -1  -3   27.70    1.90
 -13  -1   3   24.90    2.40
 -13  -1   3   24.60    2.10
 -13   1   3   27.00    2.40
  13   1  -3   23.70    1.90
  11  -1  -3    4.10    1.10
 -11  -1   3    1.10    0.80
 -11  -1   3    3.00    0.90
  11  -1  -3    2.50    0.70
  11  -1  -3    2.00    1.00
 -11  -1   3    1.70    0.90
 -11   1   3    3.40    1.00
  11   1  -3    2.10    0.90
 -11   1   3    2.40    1.00
  11   1  -3    4.60    0.90
   9  -1  -3   -0.40    0.50
  -9  -1   3    1.40    0.60
  -9  -1   3    0.80    0.60
  -9  -1   3    0.20    0.50
   9  -1  -3    0.40    0.60
  -9  -1   3    0.40    0.60
   9  -1  -3    0.00    0.40
   9   1  -3    1.00    0.60
  -9   1   3    0.80    0.70
  -9   1   3    0.30    0.60
   9   1  -3    0.10    0.40
   7  -1  -3  269.07    8.30
  -7  -1   3  273.67    8.70
  -7  -1   3  270.87    9.20
   7  -1  -3  273.07    9.30
  -7  -1   3  280.47    8.70
   7  -1  -3  268.37    8.90
   7   1  -3  273.17    9.30
  -7   1   3  274.97    8.70
   7   1  -3  276.07    8.90
  -7   1   3  287.17    8.50
   7   1  -3  271.57    8.50
  -7   1   3  264.67    9.30
   5  -1  -3   17.50    1.10
   5  -1  -3   17.60    1.40
  -5  -1   3   18.10    1.00
  -5  -1   3   16.70    1.00
  -5  -1   3   18.40    1.00
  -5  -1   3   17.80    1.40
  -5   1   3   18.80    1.50
  -5   1   3   17.10    0.80
  -5   1   3   18.80    1.10
  -5   1   3   17.50    0.80
   5   1  -3   18.90    1.00
   5   1  -3   16.70    1.00
   3  -1  -3    4.00    0.50
   3  -1  -3    4.30    0.40
  -3  -1   3    4.40    0.40
  -3  -1   3    4.70    0.50
  -3  -1   3    3.40    0.70
   3  -1  -3    4.70    0.80
  -3   1   3    4.60    0.50
   3   1  -3    5.00    0.80
   3   1  -3    4.50    0.50
  -3   1   3    4.20    0.70
   3   1  -3    4.40    0.40
  -3   1   3    4.80    0.50
  -3   1   3    4.20    0.80
  -3   1   3    4.40    0.50
  -1  -1   3  669.23   19.70
   1  -1  -3  682.13   19.70
   1  -1  -3  655.13   19.50
  -1  -1   3  654.93   19.30
   1  -1  -3  635.64   19.30
   1  -1  -3  678.33   19.70
  -1  -1   3  639.44   19.80
   1   1  -3  634.44   19.80
  -1   1   3  649.54   19.40
  -1   1   3  644.24   19.70
  -1   1   3  668.43   19.70
   1   1  -3  667.63   19.50
  -1   1   3  656.43   19.80
   1   1  -3  652.43   19.30
  -1   1   3  649.83   19.60
  -1  -1  -3 1348.27   38.10
   1  -1   3 1234.68   38.10
   1  -1   3 1309.27   37.60
   1  -1   3 1259.47   37.80
  -1  -1  -3 1341.87   38.20
  -1  -1  -3 1271.87   37.60
   1  -1   3 1312.57   38.10
   1   1   3 1262.97   37.60
  -1   1  -3 1288.47   37.90
   1   1   3 1283.47   37.70
  -1   1  -3 1257.67   37.60
   1   1   3 1242.38   37.70
   3  -1   3  325.77   10.40
   3  -1   3  311.97   11.20
  -3  -1  -3  353.06   11.20
   3  -1   3  321.17   10.30
   3  -1   3  333.87   10.60
   3  -1   3  331.57   11.10
  -3  -1  -3  328.37   11.20
  -3  -1  -3  327.57   10.70
  -3   1  -3  353.26   11.00
   3   1   3  332.07   10.80
  -3   1  -3  321.07   10.40
   3   1   3  303.77   11.10
  -3   1  -3  339.87   11.10
  -3   1  -3  318.87   10.60
   5  -1   3  248.28    9.10
   5  -1   3  258.67    8.70
   5  -1   3  236.68    9.20
   5  -1   3  240.48    8.00
  -5  -1  -3  237.48    8.60
  -5   1  -3  252.17    8.10
  -5   1  -3  241.18    8.60
   5   1   3  240.78    9.20
   7  -1   3  229.28    9.40
   7  -1   3  250.27    8.00
  -7  -1  -3  232.08    8.80
   7   1   3  239.78    9.60
  -7   1  -3  237.18    8.90
  -7   1  -3  247.18    8.00
   9  -1   3    0.10    0.90
  -9  -1  -3    1.80    1.00
   9  -1   3   -0.20    0.50
  -9   1  -3    0.70    0.60
   9   1   3   -1.00    0.70
  -9   1  -3    1.50    0.90
  11  -1   3  110.09    4.20
 -11  -1  -3  100.29    5.40
  11  -1   3   91.59    5.70
 -11   1  -3  102.19    5.40
 -11   1  -3   97.99    4.10
 -13  -1  -3   -1.60    0.80
  13  -1   3    0.40    1.30
 -13   1  -3    0.10    1.10
 -13   1  -3    0.80    0.80
  13   1   3    1.90    1.20
 -15  -1  -3   30.00    3.40
 -15   1  -3   36.70    3.60
  15   1   3   36.70    3.60
  17  -1   3   15.90    2.80
 -17  -1  -3   21.80    3.20
  17   1   3   14.70    2.80
 -17   1  -3   16.90    3.00
  19  -1   3   -1.50    1.40
 -19  -1  -3   -0.80    1.40
 -19   1  -3    1.10    1.50
  19   1   3    0.80    1.50
 -24  -2   3   28.70    4.10
  24  -2  -3   29.40    3.20
 -24   2   3   32.40    4.30
  24   2  -3   36.10    3.50
  22  -2  -3   67.99    4.30
 -22  -2   3   54.69    5.00
  22   2  -3   65.69    4.40
 -22   2   3   58.29    5.20
 -22   2   3   62.69    4.40
  20  -2  -3  141.09    6.40
 -20  -2   3  137.09    6.20
 -20  -2   3  128.59    7.30
 -20   2   3  129.69    7.40
 -20   2   3  130.09    6.70
  20   2  -3  136.39    6.50
 -18  -2   3   29.20    3.30
  18  -2  -3   27.20    2.50
 -18  -2   3   31.10    2.70
  18   2  -3   31.10    2.70
 -18   2   3   36.50    3.20
 -18   2   3   27.30    3.30
  16  -2  -3    2.30    1.20
 -16  -2   3    0.30    0.80
 -16  -2   3    1.80    1.20
  16  -2  -3    2.10    0.90
  16   2  -3    1.90    1.00
 -16   2   3    1.80    1.10
 -16   2   3    0.60    1.20
 -14  -2   3    8.60    1.70
  14  -2  -3   15.80    2.10
  14  -2  -3   13.10    1.50
 -14  -2   3   14.70    1.70
  14   2  -3   14.00    1.60
 -14   2   3   15.10    2.00
 -12  -2   3   55.39    3.10
 -12  -2   3   53.79    3.30
  12  -2  -3   58.59    3.40
  12  -2  -3   51.79    2.70
 -12  -2   3   55.39    3.20
 -12   2   3   58.59    3.20
 -12   2   3   53.29    3.40
  12   2  -3   59.29    3.00
 -10  -2   3    8.30    1.20
 -10  -2   3    8.30    1.20
  10  -2  -3    8.30    0.90
  10  -2  -3    9.80    1.30
  10   2  -3    8.70    1.30
  10   2  -3    5.80    0.90
 -10   2   3    7.70    1.10
 -10   2   3    6.40    1.30
  -8  -2   3  190.28    6.70
  -8  -2   3  183.38    6.50
  -8  -2   3  196.68    6.60
   8  -2  -3  202.08    7.30
   8  -2  -3  196.08    6.80
  -8  -2   3  193.48    7.00
   8  -2  -3  198.98    6.10
   8   2  -3  191.48    6.40
  -8   2   3  201.98    6.50
  -8   2   3  196.98    6.60
   8   2  -3  187.98    6.70
   8   2  -3  185.48    7.00
  -8   2   3  174.78    7.10
  -6  -2   3    9.10    0.80
  -6  -2   3   12.00    1.20
  -6  -2   3   11.10    0.90
   6  -2  -3   12.30    1.00
   6  -2  -3    9.30    1.20
  -6  -2   3   11.60    0.90
   6  -2  -3   10.20    0.50
   6   2  -3   10.60    1.20
   6   2  -3    9.00    0.90
  -6   2   3   10.50    1.30
   4  -2  -3   71.69    2.60
  -4  -2   3   69.29    3.10
  -4  -2   3   67.39    2.30
   4  -2  -3   66.99    3.10
  -4  -2   3   64.29    2.50
  -4   2   3   67.69    2.60
  -4   2   3   66.29    3.10
   4   2  -3   71.79    2.60
   4   2  -3   66.99    2.40
   2  -2  -3  690.73   19.70
   2  -2  -3  661.43   20.00
  -2  -2   3  671.33   20.20
   2  -2  -3  649.74   19.50
  -2  -2   3  671.53   20.10
   2  -2  -3  661.03   19.60
  -2  -2   3  639.84   19.70
   2  -2  -3  672.63   19.70
  -2   2   3  664.03   19.60
   2   2  -3  654.73   20.10
  -2   2   3  643.24   20.00
  -2   2   3  643.84   19.50
   2   2  -3  647.74   20.20
   2   2  -3  663.83   19.60
  -2   2   3  668.23   19.80
   0  -2   3  202.68    6.90
   0  -2  -3  205.68    6.70
   0  -2  -3  219.98    7.00
   0  -2   3  197.88    6.40
   0  -2   3  195.98    7.00
   0  -2  -3  199.78    6.60
   0  -2  -3  210.68    7.00
   0   2   3  203.28    6.70
   0   2  -3  197.98    6.40
   0   2   3  206.18    6.70
   0   2  -3  199.28    7.10
   0   2  -3  213.28    6.80
   0   2   3  202.28    7.00
  -2  -2  -3  399.76   12.40
   2  -2   3  396.96   12.50
   2  -2   3  397.66   12.90
   2  -2   3  387.36   12.60
  -2  -2  -3  407.96   13.00
   2  -2   3  410.36   12.30
   2  -2   3  393.76   12.70
   2   2   3  408.96   12.50
   2   2   3  381.66   11.90
  -2   2  -3  393.46   12.30
  -2   2  -3  405.26   12.60
   2   2   3  374.46   12.90
   2   2   3  384.16   12.00
  -2   2  -3  380.46   12.60
   4  -2   3   23.60    1.70
   4  -2   3   21.50    1.90
   4  -2   3   21.20    2.00
   4  -2   3   20.20    1.70
   4  -2   3   22.00    1.70
  -4  -2  -3   21.30    2.00
  -4  -2  -3   20.50    1.70
  -4   2  -3   19.60    1.70
  -4   2  -3   23.40    1.70
  -4   2  -3   23.30    1.70
   4   2   3   21.70    2.10
  -4   2  -3   23.70    1.90
   6  -2   3  225.98    8.60
  -6  -2  -3  223.98    8.10
   6  -2   3  226.58    7.70
   6  -2   3  223.98    8.80
  -6   2  -3  213.08    8.00
  -6   2  -3  221.78    7.60
   6   2   3  205.78    8.70
  -6   2  -3  218.18    7.80
  -8  -2  -3  145.89    6.40
   8  -2   3  163.98    5.90
   8  -2   3  148.09    7.00
  -8   2  -3  151.38    5.70
  -8   2  -3  157.68    5.90
  -8   2  -3  148.09    6.40
 -10  -2  -3  353.66   12.70
  10  -2   3  352.76   13.50
  10  -2   3  358.66   11.60
 -10   2  -3  348.27   11.60
 -10   2  -3  344.47   12.70
  10   2   3  326.57   12.50
 -10   2  -3  348.67   11.50
  12  -2   3   83.89    3.90
 -12  -2  -3   77.79    4.80
  12  -2   3   83.69    5.40
 -12   2  -3   81.19    4.00
  12   2   3   79.19    4.80
 -12   2  -3   82.09    4.90
 -12   2  -3   77.49    3.70
 -14  -2  -3   69.79    4.70
  14  -2   3   69.29    5.20
 -14   2  -3   60.39    3.50
  14   2   3   63.99    4.50
 -14   2  -3   62.29    4.50
 -14   2  -3   64.59    3.40
 -16  -2  -3  113.49    6.60
 -16   2  -3  109.29    6.50
  16   2   3  104.29    6.30
  18  -2   3   74.09    5.50
 -18  -2  -3   94.89    6.20
 -18   2  -3   95.79    6.30
  18   2   3   79.69    5.60
  20  -2   3   13.20    2.90
 -20  -2  -3   11.20    2.80
 -20   2  -3    6.70    2.40
  20   2   3   16.90    3.00
  23  -3  -3    8.60    1.90
 -23  -3   3    9.60    2.60
  23   3  -3    3.90    1.60
 -23   3   3    1.80    1.90
  21  -3  -3   86.49    4.80
 -21  -3   3   80.19    5.60
 -21   3   3   82.99    5.20
 -21   3   3   80.69    5.80
  21   3  -3   74.39    4.70
 -19  -3   3   53.09    3.50
  19  -3  -3   49.60    3.40
 -19  -3   3   49.80    4.30
 -19   3   3   56.39    4.10
 -19   3   3   48.40    4.30
  19   3  -3   54.39    3.70
  17  -3  -3  148.49    6.10
  17  -3  -3  134.09    7.00
 -17  -3   3  128.79    6.70
 -17  -3   3  140.79    6.10
 -17   3   3  136.19    6.70
 -17   3   3  143.99    7.20
  17   3  -3  140.29    6.30
  15  -3  -3   53.89    3.00
 -15  -3   3   52.89    3.20
  15  -3  -3   51.19    3.70
 -15  -3   3   50.29    3.60
  15   3  -3   49.70    3.10
 -15   3   3   55.59    3.70
 -13  -3   3   36.90    2.50
 -13  -3   3   32.40    2.60
 -13  -3   3   40.20    2.70
  13  -3  -3   33.70    2.10
  13  -3  -3   39.30    2.90
  13   3  -3   36.50    2.50
 -13   3   3   39.30    2.70
 -13   3   3   39.60    3.00
 -13   3   3   33.20    2.40
  13   3  -3   36.30    2.40
 -11  -3   3  359.16   11.60
  11  -3  -3  334.97   10.80
  11  -3  -3  356.76   11.80
 -11  -3   3  329.37   11.50
  11   3  -3  320.17   11.50
 -11   3   3  348.77   12.10
  11   3  -3  335.07   11.20
 -11   3   3  344.27   11.20
 -11   3   3  321.97   11.00
  -9  -3   3   15.80    1.60
  -9  -3   3   17.70    1.50
  -9  -3   3   19.30    1.60
   9  -3  -3   19.60    1.20
   9  -3  -3   19.30    1.70
  -9   3   3   17.30    1.30
   9   3  -3   19.10    1.40
  -9   3   3   18.40    2.00
   9   3  -3   15.80    1.60
  -9   3   3   18.50    1.40
  -7  -3   3  345.57   10.80
  -7  -3   3  312.37   10.20
   7  -3  -3  318.27    9.60
  -7  -3   3  321.07   10.20
   7  -3  -3  324.47   11.00
  -7  -3   3  316.37   10.20
   7  -3  -3  329.37   10.30
  -7  -3   3  323.07   10.10
  -7   3   3  328.37   10.20
  -7   3   3  312.77   11.00
  -7   3   3  291.27    9.60
   7   3  -3  310.47   10.10
  -5  -3   3  187.38    6.20
  -5  -3   3  186.48    6.90
  -5  -3   3  178.38    6.00
   5  -3  -3  184.88    6.30
  -5  -3   3  191.78    6.20
  -5  -3   3  188.78    5.90
   5  -3  -3  193.78    7.00
  -5   3   3  193.88    6.20
  -5   3   3  182.48    6.90
   5   3  -3  182.08    6.20
   3  -3  -3   16.60    1.10
   3  -3  -3   17.20    1.00
  -3  -3   3   16.10    1.10
   3  -3  -3   16.20    1.40
  -3  -3   3   13.20    1.40
  -3   3   3   13.20    1.00
  -3   3   3   15.50    1.00
  -3   3   3   16.50    0.80
  -3   3   3   17.70    1.50
   3   3  -3   17.20    1.10
   1  -3  -3    6.20    0.80
  -1  -3   3    8.60    0.90
  -1  -3   3    6.70    1.10
   1  -3  -3    6.90    0.90
   1  -3  -3    6.00    0.70
   1  -3  -3    5.50    0.90
   1   3  -3    8.10    0.80
   1   3  -3    7.20    0.50
   1   3  -3    6.20    1.10
  -1   3   3    5.80    0.90
  -1   3   3    6.40    0.70
  -1   3   3    7.00    0.80
  -1  -3  -3   16.80    1.20
   1  -3   3   16.40    1.50
  -1  -3  -3   16.40    1.20
  -1  -3  -3   16.40    1.50
   1  -3   3   16.80    1.40
   1  -3   3   18.50    1.60
  -1   3  -3   16.80    1.30
  -1   3  -3   17.20    1.10
   1   3   3   14.50    1.20
   1   3   3   16.00    1.20
  -1   3  -3   17.40    1.60
  -1   3  -3   15.10    1.10
   1   3   3   13.80    1.20
  -3  -3  -3  309.97   10.40
  -3  -3  -3  317.77   11.10
   3  -3   3  324.17   10.80
   3  -3   3  317.27   11.00
   3  -3   3  317.97   10.80
  -3  -3  -3  322.57    9.90
   3  -3   3  319.77   10.60
  -3   3  -3  308.77   10.30
   3   3   3  321.17    9.90
  -3   3  -3  321.77   10.70
  -3   3  -3  333.27   10.30
   3   3   3  325.37   10.70
  -3   3  -3  330.17   10.60
   3   3   3  313.37   10.60
  -3   3  -3  305.27   10.80
   5  -3   3  433.56   13.60
  -5  -3  -3  402.26   13.60
   5  -3   3  401.16   14.20
   5  -3   3  431.96   14.20
  -5   3  -3  413.66   13.80
  -5   3  -3  404.56   13.50
   5   3   3  408.76   13.80
  -5   3  -3  425.66   13.60
  -5   3  -3  431.26   13.50
  -7  -3  -3  174.68    7.20
   7  -3   3  188.78    7.00
   7  -3   3  183.28    7.70
   7  -3   3  193.98    8.00
  -7   3  -3  181.48    6.80
  -7   3  -3  178.18    7.10
   7   3   3  178.78    7.30
  -7   3  -3  186.78    7.10
   9  -3   3  175.98    8.00
  -9  -3  -3  166.58    7.20
   9  -3   3  177.58    6.80
  -9   3  -3  176.78    6.90
  -9   3  -3  179.98    7.40
  -9   3  -3  171.68    6.70
   9   3   3  168.88    7.30
 -11  -3  -3   93.19    5.10
  11  -3   3   95.29    5.80
 -11   3  -3   96.39    4.70
 -11   3  -3   95.29    5.30
 -11   3  -3   99.79    4.50
  11   3   3   92.39    5.20
  13  -3   3   97.39    6.20
 -13  -3  -3  106.29    5.80
 -13   3  -3   99.79    5.80
 -13   3  -3  104.79    5.00
  13   3   3  104.49    5.80
 -13   3  -3  101.49    4.70
 -15  -3  -3   47.00    4.10
  15  -3   3   45.80    4.40
  15   3   3   49.99    4.20
 -15   3  -3   42.10    4.00
 -15   3  -3   50.89    3.40
 -15   3  -3   47.30    3.10
 -17  -3  -3   59.09    4.80
  17  -3   3   64.49    5.40
  17   3   3   51.39    4.50
 -17   3  -3   56.59    4.90
  19  -3   3   55.69    4.80
 -19  -3  -3   46.30    4.60
  19   3   3   48.40    4.60
 -19   3  -3   52.09    5.00
 -24  -4   3   40.10    4.50
  24   4  -3   37.40    3.70
 -24   4   3   42.30    4.90
 -22  -4   3   40.00    4.20
  22  -4  -3   52.19    3.60
 -22   4   3   33.90    4.20
 -22   4   3   42.00    4.10
  22   4  -3   40.20    3.60
  20  -4  -3    4.20    1.40
 -20  -4   3    4.40    1.90
 -20   4   3    8.60    2.30
  20   4  -3    4.50    1.50
 -20   4   3    5.70    2.10
  18  -4  -3  243.28    8.90
  18  -4  -3  229.08   10.30
 -18  -4   3  227.58    9.90
 -18  -4   3  221.78    8.80
 -18   4   3  246.98   10.10
  18   4  -3  229.38    9.20
 -18   4   3  222.38   10.20
  16  -4  -3   53.69    3.10
  16  -4  -3   60.99    4.10
 -16  -4   3   48.20    3.20
 -16  -4   3   50.09    3.70
  16   4  -3   54.79    3.40
 -16   4   3   54.29    4.00
  14  -4  -3  126.49    5.00
  14  -4  -3  117.79    5.90
 -14  -4   3  114.39    5.70
 -14  -4   3  122.59    5.40
 -14   4   3  129.69    6.20
  14   4  -3  133.99    5.50
  14   4  -3  116.39    5.40
 -12  -4   3  167.28    6.80
  12  -4  -3  171.48    7.00
  12  -4  -3  169.38    6.00
 -12   4   3  157.38    6.10
  12   4  -3  169.98    6.50
 -12   4   3  172.08    7.40
 -12   4   3  172.68    6.30
  12   4  -3  174.08    6.80
 -10  -4   3   58.09    3.20
 -10  -4   3   72.09    3.70
  10  -4  -3   61.99    3.40
 -10   4   3   62.39    3.80
 -10   4   3   66.09    2.80
  10   4  -3   72.59    3.20
  10   4  -3   66.29    3.50
  -8  -4   3  143.69    5.40
  -8  -4   3  146.59    5.40
   8  -4  -3  145.19    4.90
  -8  -4   3  155.68    6.10
   8  -4  -3  146.99    5.60
  -8  -4   3  148.19    5.40
   8   4  -3  151.68    6.00
  -8   4   3  143.89    6.20
   8   4  -3  141.69    5.30
  -8   4   3  146.09    4.70
  -6  -4   3  105.19    3.90
  -6  -4   3   97.89    3.90
   6  -4  -3  101.69    3.90
   6  -4  -3  100.99    4.60
  -6  -4   3   97.49    3.60
  -6  -4   3   99.69    4.50
  -6  -4   3   94.49    3.60
  -6   4   3  100.29    4.60
  -6   4   3  104.59    3.80
   6   4  -3   97.29    4.40
  -4  -4   3   87.09    2.90
  -4  -4   3   90.49    4.20
   4  -4  -3   88.19    2.80
   4  -4  -3   89.99    4.10
   4  -4  -3   88.69    2.90
   4  -4  -3   84.99    3.40
  -4  -4   3   88.79    3.40
   4   4  -3   88.99    4.20
  -4   4   3   90.29    3.40
   4   4  -3   87.89    2.90
   4   4  -3   83.79    3.40
  -4   4   3   85.89    3.20
  -4   4   3   85.69    4.00
  -2  -4   3   68.49    3.30
  -2  -4   3   66.49    2.80
   2  -4  -3   65.49    3.20
   2  -4  -3   70.09    2.80
  -2  -4   3   69.99    3.50
   2  -4  -3   66.49    2.60
   2  -4  -3   67.69    2.60
  -2   4   3   67.99    2.50
  -2   4   3   70.09    2.90
  -2   4   3   68.99    2.70
  -2   4   3   60.29    3.10
   2   4  -3   69.19    3.50
   2   4  -3   65.49    2.70
   0  -4  -3  498.95   15.60
   0  -4   3  502.65   15.50
   0  -4   3  499.25   16.00
   0  -4   3  524.75   16.30
   0  -4  -3  487.85   15.20
   0  -4  -3  514.95   15.80
   0  -4  -3  503.25   15.50
   0   4  -3  498.75   14.80
   0   4   3  498.65   15.30
   0   4  -3  499.95   15.30
   0   4  -3  482.05   16.20
   0   4  -3  496.75   14.90
   0   4   3  477.55   15.60
   0   4   3  513.95   15.40
  -2  -4  -3  133.19    5.50
  -2  -4  -3  122.69    4.70
  -2  -4  -3  128.09    4.80
   2  -4   3  129.79    5.50
   2  -4   3  127.39    5.30
   2  -4   3  120.59    5.00
  -2   4  -3  128.59    5.40
  -2   4  -3  131.89    4.90
   2   4   3  124.99    4.90
  -2   4  -3  131.49    5.50
  -2   4  -3  129.49    4.50
  -2   4  -3  126.69    4.60
   2   4   3  132.79    4.70
   2   4   3  133.19    5.10
   4  -4   3  212.48    7.90
   4  -4   3  203.58    8.00
   4  -4   3  216.58    7.80
  -4  -4  -3  211.18    6.80
   4  -4   3  193.28    7.80
  -4  -4  -3  215.78    7.50
   4   4   3  205.98    6.70
  -4   4  -3  210.88    7.30
   4   4   3  193.18    7.50
   4   4   3  205.58    6.80
  -4   4  -3  207.78    7.10
  -4   4  -3  205.18    8.00
  -4   4  -3  205.68    7.70
   6  -4   3   65.89    3.80
  -6  -4  -3   70.39    3.60
   6  -4   3   65.69    4.00
   6   4   3   66.29    3.60
  -6   4  -3   62.89    3.70
  -6   4  -3   69.69    3.60
  -6   4  -3   63.89    3.40
  -8  -4  -3  179.58    7.30
   8  -4   3  179.88    7.80
   8  -4   3  186.38    8.00
   8   4   3  170.88    7.30
  -8   4  -3  187.08    7.20
  -8   4  -3  168.18    7.20
  -8   4  -3  187.58    7.40
  10  -4   3   82.19    5.20
 -10  -4  -3   83.99    4.70
  10  -4   3   89.49    5.30
 -10   4  -3   95.39    5.00
 -10   4  -3   97.99    4.60
  10   4   3   82.59    4.80
 -10   4  -3   90.79    4.70
  12  -4   3   63.19    4.80
 -12  -4  -3   61.69    4.20
 -12   4  -3   75.09    4.60
  12   4   3   71.69    4.50
 -12   4  -3   65.49    3.80
 -12   4  -3   71.99    4.20
 -14  -4  -3   77.79    5.00
  14  -4   3   67.59    5.30
 -14   4  -3   78.49    4.20
 -14   4  -3   76.29    4.40
  14   4   3   72.59    4.80
 -14   4  -3   74.49    5.00
 -16  -4  -3   29.30    3.40
  16  -4   3   23.00    3.50
 -16   4  -3   27.70    2.80
  16   4   3   24.10    3.10
 -16   4  -3   28.70    2.60
 -16   4  -3   20.30    3.10
  18  -4   3   30.90    4.10
 -18  -4  -3   34.90    3.90
 -18   4  -3   37.90    4.20
  18   4   3   30.30    3.60
 -20  -4  -3   45.20    4.70
  20  -4   3   44.70    4.50
 -20   4  -3   41.40    4.70
  20   4   3   45.40    4.50
 -23  -5   3   34.30    4.00
 -23   5   3   38.10    4.00
 -23   5   3   37.50    4.60
  23   5  -3   30.80    3.30
  21  -5  -3   40.70    3.20
 -21  -5   3   40.30    4.00
 -21   5   3   29.10    3.80
 -21   5   3   32.90    3.80
  21   5  -3   39.10    3.40
 -19  -5   3    1.50    1.30
  19  -5  -3    0.70    1.40
  19  -5  -3   -1.80    0.90
 -19  -5   3    0.10    1.20
 -19   5   3    1.10    1.50
 -19   5   3    1.60    1.70
  19   5  -3    1.40    1.20
  17  -5  -3   47.20    3.00
 -17  -5   3   43.20    3.60
  17  -5  -3   42.00    3.90
 -17  -5   3   39.90    3.00
  17   5  -3   36.20    3.00
 -17   5   3   42.00    3.80
  15  -5  -3  124.19    5.10
  15  -5  -3  111.39    6.00
 -15  -5   3  120.69    5.90
  15   5  -3  123.79    5.50
 -15   5   3  121.79    6.40
  15   5  -3  114.99    5.40
  13  -5  -3   73.99    4.30
 -13  -5   3   75.19    4.10
  13   5  -3   73.69    3.80
 -13   5   3   71.59    4.60
  13   5  -3   74.39    4.00
 -13   5   3   75.89    3.50
  11  -5  -3   41.80    2.80
 -11  -5   3   38.00    2.50
  11  -5  -3   41.30    2.30
  11   5  -3   37.90    2.70
 -11   5   3   42.20    3.30
  11   5  -3   38.30    2.40
 -11   5   3   39.10    2.00
  -9  -5   3  563.94   17.70
  -9  -5   3  571.14   17.80
  -9  -5   3  552.54   17.80
   9  -5  -3  560.74   18.00
   9  -5  -3  575.44   17.30
   9   5  -3  542.25   18.30
   9   5  -3  592.44   17.80
  -9   5   3  574.54   19.00
  -9   5   3  586.44   16.90
   9   5  -3  562.84   17.70
  -7  -5   3   36.30    2.80
   7  -5  -3   36.20    1.70
   7  -5  -3   40.00    2.30
   7  -5  -3   35.80    1.60
  -7  -5   3   34.90    1.90
  -7  -5   3   40.30    2.20
   7   5  -3   38.90    2.70
  -7   5   3   40.30    2.90
   7   5  -3   38.10    2.10
  -7   5   3   37.50    1.40
  -5  -5   3  262.27    8.70
  -5  -5   3  271.17    9.60
  -5  -5   3  265.67    8.10
   5  -5  -3  252.97    7.90
   5  -5  -3  261.97    8.70
   5  -5  -3  266.77    8.00
  -5   5   3  246.58    9.50
   5   5  -3  267.57    8.20
   5   5  -3  260.17    9.60
   3  -5  -3   98.39    3.40
   3  -5  -3  100.49    4.60
  -3  -5   3   99.39    4.80
   3  -5  -3   88.69    3.70
  -3  -5   3   95.29    3.80
  -3  -5   3   99.39    4.50
   3  -5  -3   96.89    3.30
  -3   5   3  100.69    3.90
   3   5  -3   96.79    3.80
  -3   5   3   97.49    3.30
  -3   5   3   98.49    3.60
   3   5  -3  100.59    4.70
  -3   5   3  101.09    4.60
  -1  -5   3  573.64   16.90
   1  -5  -3  567.54   17.40
   1  -5  -3  561.14   17.50
   1  -5  -3  550.94   17.30
   1  -5  -3  577.64   18.10
  -1  -5   3  550.74   17.60
   1   5  -3  599.34   17.50
   1   5  -3  575.04   16.70
  -1   5   3  586.44   17.50
  -1   5   3  564.64   17.20
  -1   5   3  566.44   18.10
   1   5  -3  588.84   18.70
   1   5  -3  577.44   16.80
  -1  -5  -3   17.50    1.50
   1  -5   3   13.80    1.10
  -1  -5  -3   13.80    1.20
  -1  -5  -3   10.50    1.20
   1  -5   3   13.80    1.40
  -1  -5  -3   15.20    1.40
   1   5   3   16.30    1.30
  -1   5  -3   14.30    0.90
  -1   5  -3   15.30    1.80
   1   5   3   12.30    1.40
  -1   5  -3   15.40    2.00
  -3  -5  -3  306.47   10.00
  -3  -5  -3  306.77   10.20
   3  -5   3  309.47   10.00
   3  -5   3  318.97   10.60
  -3   5  -3  307.47    9.70
  -3   5  -3  300.07   10.90
   3   5   3  290.37   10.10
  -3   5  -3  306.67   11.20
   3   5   3  303.97   10.30
  -3   5  -3  306.17   10.00
   3   5   3  304.77   10.00
  -5  -5  -3   72.09    2.90
   5  -5   3   68.19    3.80
   5  -5   3   62.99    3.90
  -5  -5  -3   69.79    3.50
  -5   5  -3   66.19    3.80
  -5   5  -3   64.89    3.30
  -5   5  -3   69.19    4.00
   5   5   3   69.09    3.60
   5   5   3   72.49    2.90
   5   5   3   70.59    3.00
  -7  -5  -3   11.20    1.60
   7  -5   3   13.90    1.90
   7  -5   3   11.90    1.90
  -7   5  -3   13.30    1.70
  -7   5  -3   13.20    1.80
   7   5   3   11.20    1.70
  -7   5  -3   16.00    2.10
   9  -5   3   86.19    5.00
  -9  -5  -3   84.89    4.60
   9  -5   3   87.79    5.30
  -9   5  -3   87.79    4.60
   9   5   3   89.99    4.80
  -9   5  -3   92.19    4.80
  -9   5  -3   95.79    5.00
  11  -5   3   61.79    4.60
 -11  -5  -3   62.69    4.10
  11  -5   3   64.29    4.50
 -11   5  -3   64.89    3.90
  11   5   3   64.39    4.20
 -11   5  -3   64.49    4.20
 -11   5  -3   67.29    4.30
 -13  -5  -3   26.80    2.90
  13  -5   3   28.40    3.40
 -13   5  -3   27.10    2.90
  13   5   3   24.10    2.90
 -13   5  -3   22.20    2.80
 -13   5  -3   28.80    2.70
  15  -5   3   38.60    4.30
 -15  -5  -3   42.20    3.90
 -15   5  -3   46.20    3.70
 -15   5  -3   38.40    3.90
 -15   5  -3   42.90    3.40
  15   5   3   49.00    4.10
  17  -5   3   33.20    4.10
 -17  -5  -3   34.10    3.80
 -17   5  -3   31.40    3.80
  17   5   3   28.40    3.50
  19  -5   3   13.10    3.20
 -19  -5  -3   13.80    2.90
 -19   5  -3   16.80    3.20
  19   5   3   23.70    3.40
 -22  -6   3    8.70    2.40
 -22   6   3    8.00    2.60
  22   6  -3    6.70    1.80
 -22   6   3    9.50    2.60
  20  -6  -3    4.30    2.00
 -20  -6   3    3.80    1.80
 -20   6   3    4.20    1.90
  20   6  -3    1.90    1.30
 -20   6   3    2.40    1.90
 -18  -6   3  122.89    5.80
  18  -6  -3  128.09    5.70
 -18  -6   3  116.69    6.40
  18  -6  -3  129.59    7.20
  18   6  -3  133.19    6.20
 -18   6   3  122.69    7.00
 -16  -6   3   75.59    4.50
  16  -6  -3   72.19    4.80
  16  -6  -3   72.69    3.80
 -16   6   3   77.79    5.10
  16   6  -3   70.19    4.10
  16   6  -3   72.59    4.20
 -14  -6   3   63.89    3.80
  14  -6  -3   58.59    4.00
 -14   6   3   57.29    2.90
 -14   6   3   56.49    4.30
  14   6  -3   59.99    3.60
  14   6  -3   59.99    3.50
  12  -6  -3   50.09    3.50
 -12  -6   3   58.89    3.40
  12  -6  -3   63.19    3.10
 -12   6   3   52.19    4.00
 -12   6   3   56.59    2.60
  12   6  -3   63.19    3.40
  12   6  -3   62.49    3.70
 -10  -6   3   98.19    4.50
 -10  -6   3   90.79    4.20
  10  -6  -3   98.69    4.70
  10  -6  -3   98.69    4.00
  10   6  -3  101.69    4.40
 -10   6   3   98.89    5.30
 -10   6   3  106.09    3.50
  10   6  -3   97.69    4.90
  -8  -6   3   13.90    1.40
  -8  -6   3   13.30    1.20
   8  -6  -3   14.00    1.10
   8  -6  -3   13.60    1.20
   8  -6  -3   13.10    1.50
   8   6  -3   11.80    1.80
  -8   6   3   13.30    2.00
  -8   6   3   14.70    0.80
   8   6  -3   13.70    1.30
  -6  -6   3  117.09    4.70
   6  -6  -3  117.19    3.90
   6  -6  -3  117.89    3.80
  -6  -6   3  114.89    4.00
   6   6  -3  114.69    4.30
  -6   6   3  117.29    5.60
   6   6  -3  104.89    5.40
  -4  -6   3  139.69    5.20
   4  -6  -3  136.29    4.50
  -4  -6   3  135.19    4.40
   4  -6  -3  135.39    5.10
  -4  -6   3  135.79    4.30
   4  -6  -3  138.49    4.50
  -4   6   3  126.59    5.90
   4   6  -3  132.39    6.10
   4   6  -3  138.99    4.50
   2  -6  -3   69.09    2.90
  -2  -6   3   67.09    3.10
   2  -6  -3   69.99    3.10
   2  -6  -3   66.69    2.90
  -2  -6   3   72.19    2.40
  -2   6   3   67.39    2.70
   2   6  -3   71.59    4.10
  -2   6   3   64.79    3.70
   2   6  -3   70.59    2.40
   0  -6  -3   67.59    3.10
   0  -6  -3   70.99    3.10
   0  -6   3   64.79    2.50
   0  -6  -3   60.99    2.80
   0  -6   3   59.09    3.00
   0  -6  -3   63.59    3.50
   0   6  -3   63.39    4.00
   0   6  -3   65.79    2.30
   0   6   3   66.29    3.50
   0   6   3   64.29    2.80
  -2  -6  -3  122.79    5.00
   2  -6   3  128.39    5.20
  -2  -6  -3  122.09    4.80
   2  -6   3  121.99    4.50
  -2  -6  -3  130.89    5.10
   2   6   3  118.69    5.10
   2   6   3  121.39    5.30
  -2   6  -3  117.29    5.60
   2   6   3  122.39    4.90
  -2   6  -3  124.19    6.00
   4  -6   3   54.49    2.80
  -4  -6  -3   52.39    2.80
  -4  -6  -3   50.29    2.70
   4  -6   3   48.00    3.10
  -4   6  -3   51.59    3.40
  -4   6  -3   50.29    2.40
   4   6   3   49.50    2.70
  -4   6  -3   46.70    3.50
   4   6   3   49.30    2.90
   4   6   3   51.69    2.90
  -6  -6  -3    0.80    0.60
   6  -6   3    2.20    0.90
   6  -6   3    1.70    0.90
   6  -6   3    1.60    1.00
  -6  -6  -3    1.80    0.80
   6   6   3    1.80    0.90
   6   6   3    0.50    0.60
  -6   6  -3    0.90    1.20
  -6   6  -3    0.90    1.00
  -6   6  -3    3.10    1.00
  -8  -6  -3   12.10    1.70
   8  -6   3   11.50    2.00
   8  -6   3   12.60    2.00
  -8   6  -3   10.30    1.70
   8   6   3    8.30    1.60
  -8   6  -3   10.20    1.90
  -8   6  -3    8.10    1.90
   8   6   3    9.70    1.00
  10  -6   3   33.20    3.20
 -10  -6  -3   34.90    3.00
  10  -6   3   27.00    3.10
 -10   6  -3   32.30    2.90
 -10   6  -3   36.10    3.30
  10   6   3   29.30    2.90
 -10   6  -3   35.70    3.00
  12  -6   3   24.00    3.10
  12  -6   3   24.40    3.10
 -12  -6  -3   24.20    2.70
  12   6   3   22.80    2.70
 -12   6  -3   18.30    2.60
 -12   6  -3   29.30    2.90
 -12   6  -3   30.60    3.10
  14  -6   3    2.50    1.80
 -14  -6  -3    2.60    1.50
 -14   6  -3    1.70    1.40
 -14   6  -3    2.10    1.60
  14   6   3    1.30    1.20
 -14   6  -3    2.10    1.40
  16  -6   3    3.50    2.20
 -16  -6  -3   10.50    2.30
 -16   6  -3   10.30    2.20
 -16   6  -3   10.20    2.40
 -16   6  -3    6.60    1.90
  16   6   3    7.40    2.00
 -18  -6  -3    2.80    1.80
  18  -6   3   -1.50    1.60
 -18   6  -3   -0.50    1.50
  18   6   3    3.60    1.70
 -23  -7   3    7.50    2.40
 -23   7   3    2.00    2.10
 -23   7   3    2.70    2.00
  23   7  -3    2.50    1.50
  21  -7  -3   -0.30    1.60
 -21  -7   3   -1.00    1.30
 -21   7   3    1.80    1.80
  21   7  -3    0.40    1.10
 -21   7   3    2.10    1.70
 -19  -7   3    3.10    1.80
  19  -7  -3    5.40    2.20
 -19   7   3    3.90    2.20
  19   7  -3    1.50    1.20
  17  -7  -3   10.50    1.70
  17  -7  -3    9.50    2.40
 -17  -7   3    8.80    2.00
  17   7  -3    8.40    1.80
  17   7  -3    9.00    1.80
 -17   7   3    7.40    2.40
  15  -7  -3   13.00    2.30
  15  -7  -3    6.80    1.40
 -15  -7   3    7.80    1.70
  15   7  -3    6.50    1.60
  15   7  -3    5.40    1.40
 -15   7   3    5.50    2.00
 -13  -7   3    1.10    1.00
  13  -7  -3    1.90    0.90
  13  -7  -3    0.50    1.00
  13   7  -3    2.70    1.00
 -13   7   3    1.10    1.30
 -13   7   3    1.50    0.60
  13   7  -3    2.40    1.20
 -11  -7   3    2.50    0.90
  11  -7  -3    6.30    1.40
 -11  -7   3    2.20    0.90
  11  -7  -3    5.10    1.00
  11   7  -3    5.20    1.10
 -11   7   3    2.90    1.50
 -11   7   3    3.70    0.60
  11   7  -3    3.40    1.30
   9  -7  -3    9.90    1.10
   9  -7  -3   11.00    1.10
  -9  -7   3   12.00    1.50
   9  -7  -3   13.10    1.60
  -9  -7   3   11.50    1.30
  -9   7   3   11.30    2.10
  -9   7   3   13.10    0.90
   9   7  -3   14.70    2.00
   7  -7  -3   20.00    1.70
  -7  -7   3   19.70    1.70
  -7  -7   3   20.00    1.40
   7  -7  -3   19.60    1.30
   7  -7  -3   22.80    1.10
   7   7  -3   24.60    1.70
  -7   7   3   21.20    1.10
  -7   7   3   18.30    2.40
   7   7  -3   26.50    2.60
   5  -7  -3   21.80    1.20
  -5  -7   3   20.50    1.70
   5  -7  -3   18.80    1.20
  -5  -7   3   19.40    1.10
   5  -7  -3   22.30    1.60
  -5  -7   3   19.70    1.10
   5   7  -3   20.00    2.40
   5   7  -3   18.40    1.30
  -5   7   3   16.10    2.10
  -3  -7   3   14.60    0.80
   3  -7  -3   15.30    1.10
   3  -7  -3   12.30    1.10
  -3  -7   3   11.50    1.30
   3  -7  -3   13.80    1.30
   3   7  -3   14.40    2.10
   3   7  -3   12.70    1.00
  -3   7   3   11.60    1.90
   1  -7  -3   35.70    2.00
  -1  -7   3   35.30    1.60
   1  -7  -3   34.20    2.10
  -1  -7   3   37.80    2.30
   1  -7  -3   35.00    2.10
  -1   7   3   36.80    2.80
   1   7  -3   36.00    1.50
   1   7  -3   33.30    1.50
   1   7  -3   37.80    3.20
  -1   7   3   34.00    1.80
   1  -7   3  173.38    6.60
  -1  -7  -3  164.18    6.20
  -1  -7  -3  168.68    6.40
   1  -7   3  173.68    5.90
  -1   7  -3  176.48    5.60
  -1   7  -3  179.48    7.60
   1   7   3  173.48    6.30
   1   7   3  186.68    7.30
   1   7   3  181.68    7.00
  -1   7  -3  170.78    7.70
  -3  -7  -3  110.29    4.80
   3  -7   3   99.19    4.20
   3  -7   3  107.29    4.90
  -3  -7  -3  106.59    4.70
  -3  -7  -3  117.69    4.60
  -3   7  -3  104.89    5.70
  -3   7  -3  113.19    5.60
   3   7   3  108.19    4.80
   3   7   3  102.79    4.60
   3   7   3  110.29    5.00
  -3   7  -3  116.39    4.10
  -5  -7  -3    0.70    0.70
  -5  -7  -3    1.70    0.80
   5  -7   3    1.70    0.80
   5  -7   3    1.70    1.00
   5   7   3    0.10    0.70
  -5   7  -3    2.10    1.30
   5   7   3    0.90    0.70
  -5   7  -3    3.10    1.30
   5   7   3    2.10    0.90
  -7  -7  -3   -1.40    0.60
  -7  -7  -3    0.70    0.70
   7  -7   3    1.40    1.10
   7  -7   3    0.30    0.70
   7  -7   3   -0.10    1.00
   7   7   3    0.40    0.70
  -7   7  -3    0.10    0.80
   7   7   3    0.10    0.80
  -7   7  -3    1.50    1.30
  -7   7  -3    1.60    1.00
   9  -7   3   17.70    2.50
   9  -7   3   18.80    2.50
  -9  -7  -3   17.70    2.10
  -9  -7  -3   19.70    1.50
  -9   7  -3   20.00    2.60
  -9   7  -3   17.20    2.70
  -9   7  -3   21.80    2.40
   9   7   3   19.10    2.30
   9   7   3   16.30    1.40
 -11  -7  -3    0.00    1.00
  11  -7   3    0.20    1.20
  11  -7   3    0.50    1.20
 -11   7  -3    0.70    1.40
  11   7   3    0.20    0.90
 -11   7  -3    0.10    1.10
 -11   7  -3    1.10    1.10
 -13  -7  -3    0.80    1.20
  13  -7   3    3.40    1.90
 -13   7  -3    1.70    1.40
 -13   7  -3    3.70    1.90
 -13   7  -3    2.70    1.50
  13   7   3    0.30    1.00
 -15  -7  -3   -0.70    1.20
  15  -7   3   -0.50    1.50
 -15   7  -3    0.20    1.30
 -15   7  -3    0.30    1.50
 -15   7  -3    2.40    1.50
  15   7   3   -0.80    0.90
 -17  -7  -3    3.40    1.70
  17  -7   3    3.30    2.10
 -17   7  -3    3.50    1.70
  17   7   3    1.10    1.30
 -17   7  -3    3.00    1.90
 -17   7  -3    4.50    2.00
 -22  -8   3   -1.90    1.30
  22  -8  -3    1.40    2.10
 -22   8   3   -0.20    1.70
 -22   8   3   -0.80    1.80
  22   8  -3    0.40    1.20
 -22   8   3    1.50    2.40
  20  -8  -3    1.80    1.90
 -20  -8   3   -0.60    1.30
  20   8  -3   -0.20    1.00
 -20   8   3   -0.20    1.70
 -18  -8   3  107.59    5.90
  18  -8  -3  115.69    6.80
  18   8  -3  110.29    5.80
 -18   8   3  117.09    7.00
 -16  -8   3   12.30    2.10
  16  -8  -3   13.80    2.00
  16  -8  -3   16.80    2.70
  16   8  -3   13.90    2.10
  16   8  -3   16.50    2.30
 -16   8   3    9.40    2.60
  14  -8  -3   13.80    2.30
 -14  -8   3    8.20    1.60
  14  -8  -3    6.60    1.40
 -14   8   3   11.60    2.60
  14   8  -3    9.00    1.80
  14   8  -3    9.20    1.60
 -12  -8   3   53.19    3.30
 -12  -8   3   50.99    3.10
  12  -8  -3   48.20    2.90
  12  -8  -3   53.99    3.60
  12   8  -3   56.99    3.80
  12   8  -3   46.60    3.00
 -12   8   3   50.09    2.20
 -12   8   3   42.80    4.10
  10  -8  -3   31.40    2.00
  10  -8  -3   37.10    2.70
 -10  -8   3   34.10    2.20
 -10  -8   3   36.50    2.50
  10  -8  -3   33.20    2.20
  10   8  -3   33.80    3.10
 -10   8   3   31.60    3.40
 -10   8   3   38.70    1.70
   8  -8  -3   31.50    1.80
  -8  -8   3   33.30    1.90
  -8  -8   3   32.60    2.30
   8  -8  -3   31.40    2.30
   8   8  -3   32.60    2.20
  -8   8   3   30.60    1.50
  -8   8   3   29.90    3.20
  -6  -8   3    2.70    0.50
  -6  -8   3    3.30    0.60
  -6  -8   3    2.00    0.70
   6  -8  -3    2.20    0.60
   6  -8  -3    2.90    0.60
   6  -8  -3    1.40    0.70
   6   8  -3    1.80    1.20
   6   8  -3    2.30    0.70
  -6   8   3    2.40    1.20
  -4  -8   3   24.70    1.30
  -4  -8   3   28.40    2.00
   4  -8  -3   26.60    1.50
   4  -8  -3   26.20    1.80
  -4  -8   3   27.00    1.20
   4  -8  -3   25.40    1.60
  -4   8   3   23.30    2.60
   4   8  -3   22.20    2.70
   4   8  -3   27.50    1.60
   2  -8  -3    7.80    1.10
   2  -8  -3    7.20    1.00
   2  -8  -3    6.50    0.80
  -2  -8   3    8.90    1.20
   2  -8  -3    7.60    1.00
  -2   8   3    5.20    1.40
   2   8  -3    8.30    1.90
   2   8  -3    8.40    0.70
   0  -8  -3   68.69    3.30
   0  -8   3   64.99    3.40
   0  -8   3   65.69    2.70
   0  -8  -3   63.19    3.00
   0   8  -3   66.99    2.60
   0   8   3   60.19    4.00
   0   8   3   65.89    2.90
   0   8  -3   71.59    4.40
   0   8   3   63.39    3.90
   0   8  -3   64.99    4.40
   0   8  -3   68.99    2.50
   2  -8   3   20.00    1.90
   2  -8   3   18.90    1.50
  -2  -8  -3   21.60    1.60
  -2  -8  -3   20.60    1.80
   2   8   3   18.10    2.00
   2   8   3   17.80    2.10
  -2   8  -3   20.20    1.30
   2   8   3   20.20    1.70
  -2   8  -3   17.10    2.60
  -2   8  -3   24.70    2.70
  -4  -8  -3   43.70    2.60
   4  -8   3   45.70    2.60
  -4  -8  -3   43.10    2.80
   4  -8   3   47.20    3.10
  -4   8  -3   46.80    3.50
   4   8   3   45.40    2.90
  -4   8  -3   42.40    3.80
   4   8   3   43.70    2.70
   4   8   3   38.10    2.90
   6  -8   3    3.50    1.00
  -6  -8  -3    1.20    0.90
   6  -8   3    1.80    1.10
  -6  -8  -3    2.50    1.00
  -6   8  -3    3.50    1.70
   6   8   3    0.80    0.90
  -6   8  -3    2.40    1.30
   6   8   3    2.00    1.00
   8  -8   3   23.50    2.40
  -8  -8  -3   21.20    1.80
   8  -8   3   17.60    2.60
  -8  -8  -3   24.60    2.30
   8  -8   3   18.60    2.50
   8   8   3   22.20    2.40
  -8   8  -3   24.90    2.40
   8   8   3   24.40    2.00
  -8   8  -3   23.10    2.80
  -8   8  -3   24.30    3.10
 -10  -8  -3    1.70    1.20
  10  -8   3    2.20    1.50
  10  -8   3    2.90    1.50
 -10   8  -3    1.80    1.10
 -10   8  -3    2.20    1.50
  10   8   3    4.00    1.30
 -10   8  -3    1.40    1.60
  12  -8   3   78.09    5.30
  12  -8   3   67.79    5.20
 -12  -8  -3   85.19    4.90
 -12   8  -3   70.39    5.20
 -12   8  -3   81.99    5.20
  12   8   3   74.99    4.80
 -12   8  -3   74.29    4.80
 -14  -8  -3    1.20    1.40
  14  -8   3    0.30    1.40
  14   8   3   -2.20    0.90
 -14   8  -3    0.40    1.30
 -14   8  -3   -1.20    1.50
 -14   8  -3   -0.30    1.40
 -16  -8  -3    0.80    1.40
  16  -8   3    1.50    2.00
  16   8   3    1.10    1.20
 -16   8  -3    0.30    1.40
 -16   8  -3    0.40    1.40
 -16   8  -3    1.40    1.70
  18  -8   3   10.00    2.90
 -18  -8  -3    9.80    2.50
 -18   8  -3    7.60    2.40
  18   8   3    8.80    2.40
 -21  -9   3    2.20    1.70
  21  -9  -3    5.40    2.40
  21   9  -3    3.50    1.60
 -21   9   3    5.50    2.60
 -21   9   3    5.70    2.50
  19  -9  -3   12.00    2.90
 -19  -9   3    9.40    2.10
  19   9  -3   11.50    2.20
 -19   9   3   14.90    3.20
 -17  -9   3   14.30    2.20
  17  -9  -3   12.30    2.70
 -17   9   3   15.60    3.10
  17   9  -3   13.90    2.20
 -15  -9   3   98.49    5.00
 -15  -9   3   94.79    5.20
  15  -9  -3  102.79    5.90
 -15   9   3  101.99    6.40
  15   9  -3   92.39    5.00
  15   9  -3   96.39    5.40
 -13  -9   3   83.29    4.30
  13  -9  -3   84.29    4.90
 -13  -9   3   81.39    4.50
  13  -9  -3   83.49    4.20
  13   9  -3   89.69    5.10
 -13   9   3   78.79    5.50
  13   9  -3   84.99    4.40
 -11  -9   3    3.00    0.90
 -11  -9   3    3.90    1.10
  11  -9  -3    2.90    0.90
  11  -9  -3    3.50    1.30
  11  -9  -3    2.80    1.10
 -11   9   3    2.30    1.60
 -11   9   3    2.20    0.60
  11   9  -3    2.80    1.40
   9  -9  -3  314.47   10.20
  -9  -9   3  311.17   10.80
   9  -9  -3  303.27   10.90
   9  -9  -3  289.87    9.90
  -9  -9   3  301.17   10.00
  -9   9   3  298.87    9.50
  -9   9   3  294.97   12.20
   7  -9  -3    7.10    0.90
  -7  -9   3    7.90    0.90
  -7  -9   3    8.70    1.00
  -7  -9   3    8.50    1.30
   7  -9  -3    8.90    1.40
   7  -9  -3    8.80    0.90
   7   9  -3    5.30    1.70
  -7   9   3   11.70    2.30
   7   9  -3    8.20    1.20
   5  -9  -3   93.79    3.60
  -5  -9   3   91.89    4.20
   5  -9  -3   92.89    4.10
  -5  -9   3   93.39    3.30
  -5  -9   3   92.39    3.40
   5  -9  -3   91.99    3.60
  -5   9   3   85.19    5.20
   5   9  -3   88.99    3.70
   5   9  -3   81.29    5.10
  -3  -9   3  104.59    3.60
   3  -9  -3   96.49    4.30
   3  -9  -3  103.49    3.90
  -3  -9   3  100.79    4.50
  -3   9   3   95.79    5.40
  -3   9   3   99.09    5.70
   3   9  -3   99.59    5.80
   3   9  -3   99.79    3.70
  -1  -9   3   60.59    3.30
  -1  -9   3   66.39    2.60
   1  -9  -3   66.09    3.20
   1  -9  -3   66.29    3.00
   1  -9  -3   71.69    3.10
  -1   9   3   62.59    4.30
   1   9  -3   63.39    4.50
   1   9  -3   62.99    2.50
  -1   9   3   61.99    4.10
  -1  -9  -3  105.59    4.70
   1  -9   3  105.29    4.10
  -1  -9  -3  111.59    4.40
   1  -9   3  105.59    4.90
  -1   9  -3  109.39    3.80
   1   9   3  110.69    5.70
  -1   9  -3  112.79    6.20
  -1   9  -3  112.79    4.00
   1   9   3  107.39    4.40
  -1   9  -3  101.79    5.80
   1   9   3  105.09    5.40
   3  -9   3   57.79    3.50
  -3  -9  -3   60.29    3.10
  -3  -9  -3   59.29    3.30
   3  -9   3   58.89    2.90
   3   9   3   58.09    3.70
   3   9   3   62.09    4.00
  -3   9  -3   57.29    4.20
   3   9   3   57.89    3.10
  -3   9  -3   54.09    4.40
  -5  -9  -3   51.69    3.20
   5  -9   3   52.59    3.60
   5  -9   3   48.80    3.00
  -5  -9  -3   56.39    3.10
   5   9   3   53.19    3.50
   5   9   3   53.19    3.30
  -5   9  -3   57.59    4.50
   5   9   3   53.69    3.20
  -5   9  -3   58.69    4.20
   7  -9   3   48.90    3.70
  -7  -9  -3   53.69    3.30
   7  -9   3   52.09    4.00
   7  -9   3   50.19    3.30
   7   9   3   56.69    3.50
   7   9   3   54.69    3.40
  -7   9  -3   52.39    4.10
  -7   9  -3   53.89    4.50
   9  -9   3   42.80    3.70
   9  -9   3   44.10    3.40
  -9  -9  -3   51.29    3.40
   9  -9   3   46.60    4.00
  -9   9  -3   37.00    3.10
  -9   9  -3   49.90    4.50
  -9   9  -3   44.20    4.00
   9   9   3   44.60    3.40
   9   9   3   49.10    3.10
 -11  -9  -3   87.09    4.80
  11  -9   3   80.39    5.60
  11  -9   3   75.89    5.30
 -11   9  -3   81.69    5.70
 -11   9  -3   81.39    5.40
 -11   9  -3   79.59    4.90
  11   9   3   83.89    5.00
 -13  -9  -3   14.40    2.30
  13  -9   3   15.70    3.00
  13  -9   3   13.00    2.70
 -13   9  -3   13.30    2.40
 -13   9  -3   15.90    2.80
 -13   9  -3   14.40    3.00
  13   9   3   10.10    2.10
  15  -9   3   52.59    5.00
 -15  -9  -3   56.49    4.30
 -15   9  -3   55.49    4.60
 -15   9  -3   52.49    4.50
 -15   9  -3   63.39    5.10
  15   9   3   54.09    4.30
  17  -9   3   37.00    4.50
 -17  -9  -3   44.80    4.10
 -17   9  -3   37.00    4.40
  17   9   3   34.10    3.90
 -17   9  -3   35.90    4.00
 -17   9  -3   35.70    4.00
 -20 -10   3   41.10    3.90
  20 -10  -3   46.30    4.80
 -20 -10   3   39.00    3.70
 -20  10   3   38.60    4.70
 -20  10   3   40.30    5.20
  20  10  -3   47.40    3.90
  18 -10  -3   91.59    6.20
 -18 -10   3   84.19    5.20
 -18 -10   3   86.99    5.10
  18  10  -3   84.29    5.10
 -18  10   3   86.79    6.80
 -18  10   3   76.79    6.10
 -16 -10   3  178.88    7.90
  16 -10  -3  163.58    8.40
 -16 -10   3  180.28    7.50
  16  10  -3  159.68    7.90
  16  10  -3  160.58    7.50
 -16  10   3  171.88    9.20
  14 -10  -3  146.59    7.20
 -14 -10   3  140.89    6.20
 -14 -10   3  142.29    6.70
  14  10  -3  137.69    7.10
 -14  10   3  139.99    8.00
  14  10  -3  137.39    6.40
  12 -10  -3   71.89    4.60
  12 -10  -3   83.59    4.10
 -12 -10   3   85.29    4.00
  12 -10  -3   71.99    3.80
 -12 -10   3   85.19    4.60
 -12  10   3   87.89    5.80
  12  10  -3   74.19    5.00
 -10 -10   3  104.09    5.20
  10 -10  -3  111.49    5.40
  10 -10  -3  111.49    4.70
 -10 -10   3  111.69    4.60
  10 -10  -3  109.69    4.80
 -10  10   3  111.69    6.60
  10  10  -3  121.99    6.40
   8 -10  -3  135.49    4.70
  -8 -10   3  128.49    5.70
  -8 -10   3  118.39    4.80
   8 -10  -3  127.39    5.70
  -8 -10   3  125.19    4.70
   8 -10  -3  131.29    5.00
  -8  10   3  129.39    7.00
   8  10  -3  131.39    7.00
   6 -10  -3  199.68    6.80
   6 -10  -3  200.48    6.90
  -6 -10   3  200.08    6.40
  -6 -10   3  195.58    6.60
  -6 -10   3  193.68    7.60
   6  10  -3  199.48    9.10
  -6  10   3  202.58    9.40
   6  10  -3  193.98    7.00
  -6  10   3  182.98    8.80
  -4 -10   3  101.09    3.70
   4 -10  -3   97.39    4.00
  -4 -10   3  102.09    4.70
   4 -10  -3   93.99    4.40
  -4  10   3   96.89    5.70
   4  10  -3  103.69    4.00
  -4  10   3  105.89    6.20
   4  10  -3  104.39    6.10
  -2 -10   3  143.69    6.10
   2 -10  -3  150.48    5.50
   2 -10  -3  148.19    5.80
  -2  10   3  140.29    7.40
  -2  10   3  150.28    7.20
   2  10  -3  149.09    7.60
   2  10  -3  147.39    5.20
   0 -10   3  161.18    5.50
   0 -10  -3  151.98    5.90
   0 -10   3  154.98    6.40
   0 -10  -3  162.68    6.20
   0 -10  -3  150.98    5.80
   0  10  -3  156.68    8.00
   0  10  -3  152.78    5.30
   0  10   3  163.88    7.60
   0  10   3  158.08    7.30
   0  10  -3  154.68    5.50
  -2 -10  -3  170.88    6.70
  -2 -10  -3  162.88    6.40
  -2 -10  -3  168.98    6.80
   2 -10   3  175.08    7.20
   2 -10   3  167.88    6.20
   2  10   3  172.78    6.50
  -2  10  -3  184.38    8.80
  -2  10  -3  171.38    8.30
   2  10   3  170.48    7.60
   2  10   3  186.58    8.10
  -4 -10  -3   72.49    3.80
   4 -10   3   71.69    3.50
   4 -10   3   68.89    4.10
  -4 -10  -3   66.39    3.50
   4  10   3   68.19    3.60
   4  10   3   63.99    4.00
  -4  10  -3   75.59    5.40
  -4  10  -3   73.49    5.00
   4  10   3   65.89    4.30
  -6 -10  -3   45.60    3.20
  -6 -10  -3   47.50    3.00
   6 -10   3   45.20    3.50
   6 -10   3   49.20    3.10
   6  10   3   49.40    3.50
  -6  10  -3   49.20    4.60
  -6  10  -3   43.10    4.10
   6  10   3   53.19    3.30
  -8 -10  -3   58.49    3.50
   8 -10   3   51.89    4.00
   8 -10   3   57.09    4.40
   8 -10   3   51.99    3.50
  -8  10  -3   55.39    4.90
  -8  10  -3   55.19    4.50
   8  10   3   50.39    3.50
   8  10   3   48.20    3.50
  10 -10   3   22.20    3.00
  10 -10   3   25.60    2.80
  10 -10   3   25.60    3.30
 -10 -10  -3   30.30    2.80
  10  10   3   20.00    2.50
 -10  10  -3   29.50    2.90
 -10  10  -3   27.00    3.40
 -10  10  -3   25.70    3.70
  12 -10   3   13.50    2.80
 -12 -10  -3   15.10    2.30
  12 -10   3   14.70    2.80
 -12  10  -3   21.70    3.50
 -12  10  -3   16.60    3.00
 -12  10  -3   18.70    2.60
  12  10   3   14.60    2.40
  14 -10   3   59.29    5.20
 -14 -10  -3   51.79    4.10
  14 -10   3   54.49    4.90
 -14  10  -3   48.10    4.90
 -14  10  -3   59.49    4.80
  14  10   3   51.79    4.20
 -14  10  -3   51.09    4.40
  16 -10   3    8.80    2.80
 -16 -10  -3    8.90    2.20
  16  10   3    3.30    1.70
 -16  10  -3    4.60    2.20
 -16  10  -3   10.60    3.00
 -16  10  -3    5.80    2.10
 -19 -11   3   41.10    3.80
 -19 -11   3   36.70    3.40
  19 -11  -3   44.30    4.70
  19  11  -3   32.70    3.40
 -19  11   3   40.40    5.00
 -19  11   3   43.40    5.50
 -17 -11   3   50.39    4.00
 -17 -11   3   51.99    3.70
  17 -11  -3   53.39    4.70
  17  11  -3   55.39    4.00
 -17  11   3   43.90    5.00
 -17  11   3   55.89    5.90
  15 -11  -3   68.19    5.00
 -15 -11   3   67.69    4.50
 -15 -11   3   77.69    4.20
 -15  11   3   63.49    6.10
 -15  11   3   63.39    5.50
  15  11  -3   81.59    5.30
  13 -11  -3   36.40    3.50
 -13 -11   3   38.20    3.10
 -13 -11   3   40.80    2.80
  13  11  -3   41.30    3.90
 -13  11   3   47.50    5.10
 -13  11   3   33.90    4.30
 -11 -11   3  301.07   10.70
 -11 -11   3  330.27   11.90
  11 -11  -3  325.07   12.10
 -11  11   3  310.37   13.50
 -11  11   3  330.37   14.20
  11  11  -3  318.97   12.80
  -9 -11   3    2.90    0.80
  -9 -11   3    3.30    0.90
   9 -11  -3    2.70    1.30
   9 -11  -3    3.60    1.10
  -9 -11   3    4.10    1.20
  -9  11   3    2.20    1.70
   9  11  -3    2.50    1.70
  -9  11   3    1.00    1.90
  -7 -11   3  414.46   12.50
   7 -11  -3  395.66   13.00
  -7 -11   3  393.06   13.80
  -7 -11   3  407.06   12.70
   7 -11  -3  398.26   13.70
  -7  11   3  401.26   15.60
  -7  11   3  398.16   16.10
   7  11  -3  392.76   15.50
   5 -11  -3  117.89    5.30
  -5 -11   3  120.99    4.40
  -5 -11   3  131.99    5.60
   5 -11  -3  121.49    4.80
   5  11  -3  106.49    6.60
  -5  11   3  113.49    6.60
  -5  11   3  115.59    7.00
   3 -11  -3  126.49    4.80
  -3 -11   3  128.39    4.40
   3 -11  -3  119.29    5.20
  -3 -11   3  112.59    5.30
  -3  11   3  112.69    6.80
  -3  11   3  119.89    6.60
   3  11  -3  114.89    7.00
  -1 -11   3  286.77   10.40
  -1 -11   3  296.47    9.30
   1 -11  -3  288.87   10.00
   1 -11  -3  275.37    9.70
  -1  11   3  272.57   11.40
   1  11  -3  285.67   12.30
  -1  11   3  278.57   11.80
   1 -11   3  137.19    6.10
  -1 -11  -3  140.39    5.40
  -1 -11  -3  132.29    5.70
   1 -11   3  139.99    5.30
  -1 -11  -3  137.29    5.60
   1  11   3  133.29    7.10
  -1  11  -3  139.69    7.60
  -1  11  -3  137.09    7.80
   1  11   3  138.29    6.90
  -3 -11  -3   52.99    3.30
  -3 -11  -3   58.99    3.10
  -3 -11  -3   55.09    3.30
   3 -11   3   53.39    3.70
   3 -11   3   60.99    3.10
  -3  11  -3   57.49    4.90
   3  11   3   59.39    4.30
   3  11   3   56.69    4.00
   3  11   3   54.49    3.20
  -3  11  -3   59.69    4.70
  -5 -11  -3   51.89    3.30
   5 -11   3   53.09    3.80
   5 -11   3   49.40    3.10
  -5 -11  -3   53.89    3.10
  -5  11  -3   46.70    4.80
  -5  11  -3   45.50    4.40
   5  11   3   54.49    3.30
   5  11   3   51.69    4.00
   5  11   3   52.79    3.70
  -7 -11  -3   38.30    3.10
   7 -11   3   43.80    3.60
   7 -11   3   37.90    3.00
  -7 -11  -3   37.60    2.80
  -7  11  -3   43.10    4.60
   7  11   3   50.79    3.70
  -7  11  -3   40.00    4.20
   7  11   3   42.10    3.10
   9 -11   3   57.89    4.80
  -9 -11  -3   59.69    3.80
   9 -11   3   56.39    4.40
   9 -11   3   58.89    4.00
  -9  11  -3   53.59    5.20
  -9  11  -3   56.69    3.90
   9  11   3   66.49    4.10
  -9  11  -3   59.19    4.90
  11 -11   3   14.00    2.80
  11 -11   3   16.20    2.90
 -11 -11  -3   14.30    2.20
 -11  11  -3   13.90    3.20
  11  11   3   17.70    2.50
 -11  11  -3   17.30    3.10
 -11  11  -3   17.10    2.50
  13 -11   3   94.19    6.60
  13 -11   3   90.19    6.20
 -13 -11  -3  103.79    5.70
 -13  11  -3   89.19    6.30
  13  11   3   96.19    5.70
 -13  11  -3   98.09    6.90
 -13  11  -3   97.89    5.90
  15 -11   3   12.50    3.00
  15 -11   3    9.70    2.60
 -15 -11  -3   12.90    2.40
 -15  11  -3   12.70    3.10
 -15  11  -3   10.20    2.50
 -15  11  -3   11.30    3.10
  15  11   3    9.60    2.30
  18 -12  -3    0.50    1.90
 -18 -12   3    0.80    1.40
 -18 -12   3    2.00    1.40
 -18  12   3    0.70    2.00
 -18  12   3    1.00    2.50
  16 -12  -3   10.30    2.60
 -16 -12   3    7.90    1.70
 -16 -12   3    6.70    2.00
 -16  12   3    7.70    2.90
 -16  12   3    4.10    2.80
 -14 -12   3   44.20    3.60
 -14 -12   3   43.30    3.00
  14 -12  -3   41.50    3.90
 -14  12   3   37.00    5.00
  14  12  -3   40.70    4.00
 -14  12   3   43.00    5.00
  12 -12  -3   25.10    2.90
 -12 -12   3   24.00    2.00
 -12 -12   3   21.70    2.60
  12  12  -3   27.40    3.40
 -12  12   3   19.50    3.60
 -12  12   3   34.10    4.70
 -10 -12   3   27.80    2.70
  10 -12  -3   28.30    2.80
 -10 -12   3   24.30    2.00
 -10 -12   3   23.80    1.80
 -10  12   3   23.40    4.00
 -10  12   3   33.60    4.10
   8 -12  -3  286.57    9.80
  -8 -12   3  263.57   10.30
  -8 -12   3  275.47    9.30
   8 -12  -3  276.37   10.40
  -8 -12   3  285.17    9.10
  -8  12   3  269.57   12.70
   8  12  -3  274.67   12.20
  -8  12   3  277.27   12.40
   6 -12  -3   92.79    4.60
  -6 -12   3   88.39    4.60
  -6 -12   3   88.69    3.60
   6 -12  -3   87.79    4.00
  -6  12   3   84.29    6.20
   6  12  -3   78.59    5.80
  -6  12   3   94.59    6.10
   4 -12  -3   70.39    3.80
  -4 -12   3   75.99    3.20
  -4 -12   3   84.29    4.30
   4 -12  -3   74.89    3.60
   4  12  -3   77.19    5.70
  -4  12   3   68.99    5.20
  -4  12   3   71.59    5.60
  -2 -12   3  187.98    6.30
   2 -12  -3  169.58    7.00
  -2 -12   3  190.48    7.50
   2 -12  -3  172.48    6.70
   2  12  -3  182.98    9.40
  -2  12   3  181.78    8.80
  -2  12   3  179.78    9.10
   0 -12  -3   29.10    2.10
   0 -12   3   31.20    2.70
   0 -12  -3   31.80    2.30
   0 -12  -3   29.60    2.30
   0 -12   3   29.60    2.00
   0  12   3   38.90    3.70
   0  12  -3   29.60    4.00
   0  12   3   30.90    3.70
  -2 -12  -3   57.79    3.30
  -2 -12  -3   53.09    3.20
  -2 -12  -3   58.39    3.10
   2 -12   3   51.19    3.70
   2 -12   3   57.89    3.00
   2  12   3   57.39    4.60
  -2  12  -3   54.89    4.70
  -2  12  -3   59.59    5.30
   2  12   3   49.10    4.10
  -4 -12  -3   32.00    2.30
   4 -12   3   29.50    3.00
   4 -12   3   29.20    2.40
  -4 -12  -3   31.00    2.50
  -4 -12  -3   32.60    2.60
  -4  12  -3   32.40    4.00
  -4  12  -3   25.50    3.90
   4  12   3   27.10    3.00
   4  12   3   31.40    2.50
   4  12   3   26.80    3.20
  -6 -12  -3   98.19    4.70
  -6 -12  -3   92.89    4.90
   6 -12   3  103.59    5.80
   6 -12   3   97.69    4.90
   6  12   3   88.99    5.60
   6  12   3   95.19    4.90
  -6  12  -3   98.19    7.00
  -6  12  -3  100.79    6.50
   8 -12   3   32.90    3.70
  -8 -12  -3   37.50    3.10
   8 -12   3   31.10    3.00
  -8 -12  -3   40.70    3.00
   8 -12   3   37.00    3.70
  -8  12  -3   41.70    4.90
   8  12   3   32.90    3.00
  -8  12  -3   39.40    4.40
   8  12   3   41.60    3.60
 -10 -12  -3   37.60    3.40
  10 -12   3   41.90    4.10
 -10 -12  -3   40.50    3.20
  10 -12   3   42.30    4.30
  10 -12   3   40.00    3.50
 -10  12  -3   31.80    3.20
 -10  12  -3   33.30    4.30
 -10  12  -3   46.80    5.10
  10  12   3   37.70    3.30
 -12 -12  -3   12.00    2.10
  12 -12   3   10.00    2.80
  12 -12   3    6.40    2.40
 -12  12  -3    8.60    2.90
  12  12   3   10.20    2.30
 -12  12  -3   13.10    3.10
 -12  12  -3   11.00    2.40
 -14 -12  -3   44.50    3.80
  14  12   3   35.00    3.70
 -14  12  -3   36.60    4.60
 -14  12  -3   49.30    5.50
 -14  12  -3   31.80    3.70
  17 -13  -3    2.30    2.00
 -17 -13   3    1.80    1.60
 -17  13   3   -0.30    2.10
 -17  13   3    2.90    2.60
 -15 -13   3    3.70    1.30
 -15 -13   3    4.50    1.60
  15 -13  -3    4.00    2.10
 -15  13   3    6.30    3.10
 -15  13   3    2.70    2.40
 -13 -13   3    8.20    2.00
  13 -13  -3    6.90    2.10
 -13 -13   3    7.10    1.40
 -13 -13   3    7.90    1.60
 -13  13   3    4.20    2.30
 -13  13   3   11.20    3.50
  13  13  -3   12.50    2.80
  11 -13  -3    0.60    1.30
 -11 -13   3    0.50    0.80
 -11 -13   3    0.40    1.10
 -11 -13   3    1.40    0.80
 -11  13   3    0.70    1.80
  11  13  -3   -0.30    1.60
 -11  13   3   -0.70    2.00
  -9 -13   3   51.89    3.60
  -9 -13   3   55.99    3.00
   9 -13  -3   51.49    3.70
  -9 -13   3   52.49    2.70
   9  13  -3   52.89    5.00
  -9  13   3   59.39    5.80
  -9  13   3   54.19    5.20
   7 -13  -3   32.70    2.80
  -7 -13   3   27.60    2.60
   7 -13  -3   31.90    2.40
  -7 -13   3   24.80    1.80
  -7 -13   3   27.10    1.70
   7  13  -3   26.20    3.70
  -7  13   3   24.70    3.70
  -7  13   3   24.70    4.10
   5 -13  -3   38.50    2.60
  -5 -13   3   37.10    2.10
  -5 -13   3   39.90    3.00
  -5  13   3   38.40    4.30
  -5  13   3   33.20    4.40
   5  13  -3   38.60    4.40
   3 -13  -3   10.00    1.40
   3 -13  -3   14.00    1.80
  -3 -13   3   11.40    1.80
  -3  13   3   12.30    3.10
   3  13  -3    8.90    2.70
  -3  13   3   14.30    2.90
   1 -13  -3    6.10    1.30
  -1 -13   3    7.00    1.10
  -1 -13   3    4.30    1.40
   1 -13  -3    3.50    1.10
   1  13  -3    4.00    2.20
  -1  13   3    6.30    2.00
  -1  13   3    4.90    2.20
  -1 -13  -3   61.79    3.30
   1 -13   3   59.09    4.00
   1 -13   3   65.79    3.20
  -1 -13  -3   59.69    3.50
  -1 -13  -3   59.09    3.50
   1  13   3   60.09    4.70
   1  13   3   67.69    5.20
  -1  13  -3   58.49    5.50
  -3 -13  -3   -0.80    0.70
  -3 -13  -3   -0.60    0.70
  -3 -13  -3    0.50    0.80
   3 -13   3   -0.20    0.90
   3 -13   3    0.10    1.20
   3  13   3    0.40    1.20
  -3  13  -3    0.90    1.50
  -3  13  -3    0.60    1.70
   3  13   3   -0.60    1.40
  -5 -13  -3   24.80    2.50
  -5 -13  -3   31.10    2.80
   5 -13   3   29.50    3.20
  -5 -13  -3   32.90    2.50
   5 -13   3   30.50    2.60
  -5  13  -3   32.20    4.50
  -5  13  -3   31.50    4.20
   5  13   3   33.00    3.70
  -7 -13  -3   23.90    2.30
   7 -13   3   26.60    3.20
  -7 -13  -3   23.80    2.60
  -7 -13  -3   21.50    2.50
   7 -13   3   26.60    2.70
  -7  13  -3   22.40    4.10
  -7  13  -3   27.60    4.00
   7  13   3   25.50    2.60
   7  13   3   22.20    3.10
   9 -13   3    0.00    1.40
  -9 -13  -3   -0.20    0.90
   9 -13   3   -0.80    1.50
   9 -13   3    2.90    1.80
  -9 -13  -3   -0.70    0.90
  -9  13  -3   -1.90    2.00
   9  13   3   -1.60    1.00
  -9  13  -3   -0.70    1.80
 -11 -13  -3   14.20    2.20
 -11 -13  -3   13.50    2.40
  11 -13   3   17.60    3.30
  11 -13   3   16.60    2.70
  11 -13   3   15.20    2.90
 -11  13  -3   13.60    3.50
  11  13   3   15.70    2.50
 -11  13  -3   19.20    3.60
 -13 -13  -3    0.20    1.30
  13  13   3    2.10    1.50
 -13  13  -3    2.20    2.60
 -13  13  -3    0.30    1.90
 -14 -14   3    5.50    1.80
  14 -14  -3    5.30    2.20
 -14  14   3    0.70    2.10
 -14  14   3    5.00    2.80
  12 -14  -3    1.00    1.50
 -12 -14   3    0.20    1.00
 -12  14   3   -2.10    1.70
  12  14  -3   -0.90    1.60
 -12  14   3   -0.60    2.20
 -10 -14   3    2.20    1.30
  10 -14  -3    1.00    1.30
 -10  14   3    0.80    2.00
 -10  14   3    2.90    2.00
   8 -14  -3    5.80    1.70
  -8 -14   3    6.80    1.70
  -8  14   3    1.40    2.20
   8  14  -3    5.60    2.40
  -8  14   3    9.60    2.70
   6 -14  -3    8.90    1.80
  -6 -14   3    7.60    1.70
   6  14  -3    8.30    2.60
  -6  14   3    6.40    2.40
  -6  14   3    5.20    2.60
   4 -14  -3    1.00    0.90
   4 -14  -3    0.90    0.80
  -4 -14   3    0.80    0.90
  -4  14   3    3.40    1.80
  -4  14   3    2.60    2.00
   4  14  -3    3.50    2.00
   2 -14  -3    0.10    0.80
  -2 -14   3    0.10    0.90
   2 -14  -3    0.40    0.80
  -2  14   3    0.00    1.70
   2  14  -3    1.30    1.80
  -2  14   3    0.20    1.30
   0 -14  -3    1.50    1.00
   0 -14  -3    2.40    1.00
   0 -14   3    3.10    1.30
   0  14   3    3.20    1.90
   0  14  -3    2.60    2.00
   0  14   3    3.20    2.00
  -2 -14  -3    1.10    1.00
   2 -14   3    3.70    1.50
  -2 -14  -3    3.90    1.20
  -2 -14  -3    5.00    1.20
   2  14   3    2.70    1.90
   2  14   3    2.30    1.50
  -2  14  -3    3.70    2.30
   4 -14   3    0.60    1.30
  -4 -14  -3    1.10    1.00
  -4 -14  -3    0.80    0.90
  -4 -14  -3    1.10    1.00
   4  14   3    3.00    1.90
   4  14   3    2.10    1.50
  -4  14  -3    3.20    2.00
  -4  14  -3    2.40    2.20
  -6 -14  -3    1.20    1.10
   6 -14   3    0.50    1.50
  -6 -14  -3   -0.80    0.70
  -6 -14  -3    0.20    1.00
  -6  14  -3    0.80    1.80
   6  14   3    0.20    1.50
  -6  14  -3    0.50    2.10
   8 -14   3    3.00    1.80
   8 -14   3    2.00    1.90
  -8 -14  -3    1.50    1.20
  -8 -14  -3    4.40    1.50
  -8 -14  -3    2.70    1.20
  -8  14  -3    2.20    2.30
  -8  14  -3   -1.10    1.50
   8  14   3    1.90    1.20
 -10 -14  -3    4.80    1.60
 -10 -14  -3    4.50    1.60
 -10 -14  -3    1.70    1.20
  10 -14   3    2.00    1.80
  10  14   3    0.90    1.30
 -10  14  -3   -0.20    2.20
 -10  14  -3    1.30    2.10
 -13 -15   3   23.10    2.90
  13 -15  -3   22.50    3.30
 -13  15   3   18.20    3.90
 -13  15   3   28.90    5.00
  13  15  -3   32.90    4.20
  11 -15  -3   22.10    3.00
 -11 -15   3   20.70    2.70
  11  15  -3   26.70    4.00
 -11  15   3   20.10    3.80
 -11  15   3   22.50    4.30
  -9 -15   3    4.30    1.50
   9 -15  -3    9.00    2.10
  -9  15   3    6.80    2.70
  -9  15   3    7.40    3.10
   9  15  -3    5.90    2.60
  -7 -15   3  123.29    6.20
   7 -15  -3  119.99    6.00
  -7  15   3  126.79    8.00
  -7  15   3  126.79    8.60
   7  15  -3  117.79    7.90
  -5 -15   3   14.10    2.10
   5 -15  -3   16.60    2.20
   5  15  -3   11.60    3.00
  -5  15   3   11.80    3.20
  -5  15   3   14.50    3.20
   3 -15  -3   31.00    2.50
  -3 -15   3   38.40    3.10
   3 -15  -3   37.10    2.80
  -3  15   3   33.30    4.30
   3  15  -3   27.70    4.40
  -3  15   3   33.10    4.60
   1 -15  -3   33.40    2.70
   1 -15  -3   34.10    2.60
  -1 -15   3   31.40    3.10
   1  15  -3   40.10    5.00
  -1  15   3   35.50    4.50
  -1  15   3   34.40    4.20
  -1 -15  -3   82.49    4.30
   1 -15   3   74.99    4.90
  -1 -15  -3   77.49    4.20
  -1  15  -3   79.49    6.70
   1  15   3   92.69    6.20
   1  15   3   79.19    6.20
  -3 -15  -3   -0.70    0.80
  -3 -15  -3    1.00    0.90
  -3 -15  -3    0.20    0.90
   3 -15   3   -1.50    1.00
   3  15   3    0.10    1.40
   3  15   3    1.00    1.90
  -3  15  -3    1.70    2.00
  -5 -15  -3    8.60    1.50
  -5 -15  -3    4.10    1.40
  -5 -15  -3    2.80    1.20
   5 -15   3    3.60    1.70
  -5  15  -3    2.30    2.00
  -5  15  -3    4.00    2.50
   5  15   3    3.10    2.20
  -7 -15  -3   17.90    2.40
  -7 -15  -3   14.70    2.20
  -7 -15  -3   13.70    1.90
   7 -15   3   14.60    2.90
  -7  15  -3   14.30    3.70
  -7  15  -3   24.10    4.20
  -9 -15  -3    4.10    1.60
  -9 -15  -3    5.50    1.60
  -9 -15  -3    5.80    1.80
  -9  15  -3    4.20    2.90
  -9  15  -3    4.10    2.70
  10 -16  -3   52.29    4.20
 -10 -16   3   49.80    4.00
 -10  16   3   45.80    5.60
 -10  16   3   48.20    6.10
   8 -16  -3  123.89    6.50
  -8 -16   3  124.49    6.50
   8  16  -3  144.89    9.00
  -8  16   3  120.69    8.80
  -8  16   3  121.59    8.30
  -6 -16   3   83.29    4.90
   6 -16  -3   69.49    4.50
  -6  16   3   83.29    7.10
   6  16  -3   76.99    6.70
  -6  16   3   86.59    6.70
  -4 -16   3   79.29    5.00
  -4  16   3   90.39    6.70
  -4  16   3   93.89    7.20
   4  16  -3   82.19    6.80
  -2 -16   3   90.59    5.30
   2 -16  -3   97.19    4.90
   2  16  -3   90.19    7.30
  -2  16   3   92.29    6.70
  -2  16   3   90.29    7.00
   0 -16  -3   38.00    3.00
   0 -16   3   36.80    3.50
   0 -16  -3   38.20    3.00
   0  16   3   43.50    4.80
   0  16   3   49.60    5.40
   0  16  -3   45.80    5.60
  -2 -16  -3   28.20    2.60
   2 -16   3   29.20    3.30
  -2 -16  -3   26.70    2.50
   2  16   3   29.70    4.10
  -2  16  -3   38.00    5.30
   2  16   3   30.90    4.40
  -4 -16  -3   42.10    3.00
  -4 -16  -3   44.30    3.30
   4 -16   3   41.90    4.00
  -4 -16  -3   44.70    3.40
   4  16   3   39.90    4.70
  -4  16  -3   34.00    5.20
  -6 -16  -3   78.19    4.90
  -6 -16  -3   97.19    4.70
  -6 -16  -3   83.99    4.80
   6 -16   3   84.79    5.90
  -6  16  -3   84.39    7.70
   7 -17  -3   47.80    4.00
  -7 -17   3   50.69    4.10
   7  17  -3   64.29    6.40
  -7  17   3   53.89    5.90
  -7  17   3   43.60    5.90
  -5 -17   3   66.99    4.70
   5 -17  -3   74.79    4.70
   5  17  -3   81.29    7.20
  -5  17   3   87.99    6.90
  -5  17   3   80.79    7.30
  -3 -17   3   69.19    4.80
   3  17  -3   76.49    7.10
  -3  17   3   82.99    7.00
  -3  17   3   76.09    6.40
  -1 -17   3   51.79    4.20
   1 -17  -3   55.79    3.70
  -1  17   3   54.99    5.50
   1  17  -3   48.40    6.10
  -1  17   3   58.39    6.10
  -1 -17  -3   64.49    4.00
   1 -17   3   66.59    4.80
   1  17   3   63.99    6.20
  -1  17  -3   63.39    6.90
   1  17   3   61.09    5.80
 -24   0   4   34.10    4.30
  24   0  -4   32.30    3.10
 -22   0   4  138.39    6.90
 -22   0   4  151.18    8.10
  22   0  -4  136.49    6.50
 -20   0   4  585.64   21.10
  20   0  -4  590.54   19.50
 -20   0   4  593.14   20.10
  18   0  -4  379.76   13.20
 -18   0   4  384.76   14.60
 -18   0   4  398.86   14.10
 -16   0   4  282.97   10.70
  16   0  -4  281.97    9.80
  16   0  -4  273.07   10.90
 -16   0   4  281.97   11.00
 -14   0   4  413.06   14.60
  14   0  -4  416.46   13.70
  14   0  -4  453.45   14.90
 -12   0   4  397.96   12.70
  12   0  -4  391.26   12.30
 -12   0   4  384.76   13.40
  12   0  -4  385.56   13.20
 -10   0   4   33.20    1.90
 -10   0   4   34.80    2.40
  10   0  -4   33.00    1.70
 -10   0   4   36.70    2.50
  10   0  -4   33.30    2.20
  -8   0   4  264.47    8.50
   8   0  -4  264.27    8.20
  -8   0   4  278.07    9.30
  -8   0   4  263.97    8.30
   8   0  -4  265.67    8.80
  -8   0   4  254.37    8.20
  -8   0   4  277.67    9.40
  -6   0   4  431.46   12.90
   6   0  -4  421.36   12.80
  -6   0   4  419.26   12.80
  -6   0   4  434.06   13.90
  -6   0   4  424.66   12.70
   6   0  -4  426.66   13.00
  -6   0   4  430.46   13.80
  -4   0   4 1027.70   30.30
  -4   0   4  996.90   29.50
  -4   0   4  988.40   29.40
   4   0  -4 1016.70   30.40
   4   0  -4 1006.30   29.50
   4   0  -4 1024.50   29.50
  -4   0   4 1013.50   29.60
  -2   0   4  359.46   11.20
  -2   0   4  354.96   10.80
  -2   0   4  361.66   11.40
   2   0  -4  349.96   10.80
   2   0  -4  361.56   11.10
   2   0  -4  352.46   11.40
   2   0  -4  361.36   10.90
   0   0   4 1630.24   48.00
   0   0  -4 1701.93   48.20
   0   0   4 1647.44   47.90
   0   0  -4 1585.44   48.10
   0   0  -4 1601.94   47.80
   0   0   4 1661.63   48.40
   0   0  -4 1678.93   48.40
   0   0   4 1616.34   48.50
  -2   0  -4  853.41   26.40
  -2   0  -4  916.91   27.40
  -2   0  -4  949.80   27.30
   2   0   4  908.61   26.80
   2   0   4  893.51   26.50
  -2   0  -4  863.71   26.70
   2   0   4  888.71   27.40
   2   0   4  849.22   27.40
  -4   0  -4  437.56   14.30
  -4   0  -4  443.66   13.60
   4   0   4  445.26   13.60
   4   0   4  445.66   13.50
   6   0   4  418.66   15.00
  -6   0  -4  411.16   14.10
   6   0   4  435.16   12.90
  -6   0  -4  422.36   12.90
   8   0   4  101.09    5.70
  -8   0  -4  102.79    5.00
  10   0   4  200.88    9.40
 -10   0  -4  215.38    8.70
  12   0   4   73.29    5.40
 -12   0  -4   79.19    4.80
 -14   0  -4   64.49    4.60
 -16   0  -4   87.69    5.80
  16   0   4   76.69    5.50
  18   0   4   86.69    6.00
 -18   0  -4   89.29    6.20
  25  -1  -4   59.39    4.30
 -25  -1   4   76.09    6.00
 -25   1   4   58.09    5.70
  25   1  -4   67.49    4.60
 -23  -1   4   64.29    5.50
  23  -1  -4   71.29    4.40
  23   1  -4   65.39    4.30
 -23   1   4   66.19    5.40
 -23   1   4   68.89    4.70
 -21  -1   4  186.58    9.40
  21  -1  -4  208.18    8.20
 -21  -1   4  186.98    8.40
 -21   1   4  202.98    9.70
 -21   1   4  197.78    8.70
  21   1  -4  199.08    8.30
 -19  -1   4  108.69    5.50
  19  -1  -4  100.89    4.90
 -19  -1   4  100.49    6.00
  19   1  -4  102.29    5.10
 -19   1   4  104.79    5.70
 -19   1   4  102.59    6.10
  17  -1  -4   63.99    4.40
 -17  -1   4   72.09    4.60
  17  -1  -4   71.79    3.70
 -17  -1   4   75.29    4.30
 -17   1   4   71.39    4.70
 -17   1   4   73.59    4.40
  17   1  -4   78.79    3.90
  15  -1  -4  125.79    6.00
 -15  -1   4  121.19    5.90
  15  -1  -4  119.99    4.90
 -15  -1   4  122.09    5.70
 -15   1   4  118.19    5.80
  15   1  -4  124.19    5.10
  13  -1  -4  270.87   10.10
 -13  -1   4  281.47   10.20
 -13  -1   4  266.17   10.00
  13  -1  -4  265.37    9.00
 -13   1   4  267.77   10.20
 -13   1   4  290.57    9.90
  13   1  -4  294.47   10.20
  13   1  -4  261.87    9.20
 -11  -1   4  243.58    8.90
  11  -1  -4  233.08    8.70
 -11  -1   4  246.08    8.40
 -11  -1   4  243.38    9.00
  11  -1  -4  241.78    7.90
 -11   1   4  250.87    9.20
  11   1  -4  246.88    8.10
  11   1  -4  245.18    8.80
   9  -1  -4  317.27    9.80
   9  -1  -4  326.97   11.10
   9  -1  -4  319.57   10.60
  -9  -1   4  321.67   11.00
  -9  -1   4  326.17   10.20
  -9  -1   4  318.77   10.20
  -9  -1   4  321.17   11.10
   9   1  -4  318.07   10.50
  -9   1   4  316.87   11.20
  -9   1   4  327.27   11.10
  -9   1   4  328.67   10.00
   9   1  -4  325.97   10.00
  -9   1   4  315.07   10.30
   9   1  -4  314.47   11.00
   7  -1  -4  709.73   21.30
  -7  -1   4  710.03   21.00
  -7  -1   4  716.33   21.90
   7  -1  -4  710.43   22.00
  -7  -1   4  716.83   21.00
  -7  -1   4  692.73   21.00
  -7   1   4  690.93   20.80
  -7   1   4  708.13   22.10
  -7   1   4  726.03   22.00
  -7   1   4  704.83   20.80
   7   1  -4  677.93   21.90
   7   1  -4  736.23   21.20
   5  -1  -4  848.52   24.60
  -5  -1   4  847.72   25.60
  -5  -1   4  823.82   24.80
  -5  -1   4  848.92   24.60
   5  -1  -4  837.22   24.80
  -5   1   4  861.61   25.60
  -5   1   4  853.21   24.70
   5   1  -4  820.62   25.60
   5   1  -4  833.32   24.70
   5   1  -4  824.12   24.70
  -5   1   4  858.71   24.80
  -5   1   4  842.72   25.70
  -3  -1   4  782.52   22.60
   3  -1  -4  772.72   22.90
  -3  -1   4  776.32   23.00
   3  -1  -4  755.62   22.70
  -3  -1   4  795.92   22.70
  -3  -1   4  773.82   23.50
   3  -1  -4  799.52   22.90
   3   1  -4  755.02   22.60
  -3   1   4  770.12   23.50
  -3   1   4  759.42   22.80
  -3   1   4  767.32   23.50
   3   1  -4  798.62   22.90
  -3   1   4  781.32   22.90
   3   1  -4  756.52   22.70
  -3   1   4  783.12   23.20
   3   1  -4  765.32   23.60
  -3   1   4  780.72   23.10
  -1  -1   4  759.22   22.70
  -1  -1   4  769.22   22.20
   1  -1  -4  731.33   22.20
  -1  -1   4  750.92   22.70
   1  -1  -4  771.22   22.70
   1  -1  -4  725.03   22.50
   1  -1  -4  785.92   22.60
  -1   1   4  770.02   22.70
   1   1  -4  740.33   22.10
   1   1  -4  726.53   22.70
  -1   1   4  741.93   22.60
   1   1  -4  755.22   22.50
  -1   1   4  736.93   22.50
  -1   1   4  733.93   22.80
  -1   1   4  748.23   22.30
  -1  -1  -4  421.76   13.20
   1  -1   4  398.16   13.20
  -1  -1  -4  413.16   13.10
  -1  -1  -4  382.96   12.50
   1  -1   4  399.26   12.70
  -1  -1  -4  387.96   12.40
   1  -1   4  409.06   13.20
   1  -1   4  416.16   12.60
  -1   1  -4  420.36   13.00
  -1   1  -4  392.96   12.70
   1   1   4  393.56   12.40
   1   1   4  401.66   13.20
   1   1   4  390.76   13.20
   1   1   4  416.96   12.70
  -1   1  -4  390.86   12.40
   3  -1   4  128.79    4.90
  -3  -1  -4  116.29    4.70
   3  -1   4  122.49    4.60
   3  -1   4  119.29    5.40
  -3  -1  -4  115.09    4.10
   3  -1   4  118.49    5.20
   3  -1   4  119.79    4.40
   3   1   4  120.99    4.90
  -3   1  -4  119.89    4.70
   3   1   4  113.79    5.40
   3   1   4  117.99    4.10
   5  -1   4  437.26   15.00
   5  -1   4  420.06   15.10
   5  -1   4  452.75   13.70
  -5  -1  -4  419.96   14.20
   5  -1   4  439.96   13.50
  -5   1  -4  435.16   13.70
  -5   1  -4  424.96   14.20
   5   1   4  425.56   15.10
   7  -1   4  344.77   13.00
  -7  -1  -4  338.77   12.10
   7  -1   4  356.86   11.10
   7   1   4  328.37   12.90
  -7   1  -4  359.06   11.20
  -7   1  -4  342.67   12.10
   9  -1   4  346.17   10.90
  -9  -1  -4  337.17   12.30
   9  -1   4  330.87   13.20
   9   1   4  325.27   13.20
  -9   1  -4  336.27   12.40
  -9   1  -4  356.16   11.10
  11  -1   4   79.49    3.30
 -11  -1  -4   75.79    4.60
  11  -1   4   72.79    5.20
 -11   1  -4   70.59    4.50
  11   1   4   71.69    5.20
 -11   1  -4   74.29    3.30
  13  -1   4   29.60    3.70
 -13  -1  -4   35.10    3.40
 -13   1  -4   36.50    3.40
 -13   1  -4   35.90    2.20
  13   1   4   30.40    3.30
 -15  -1  -4  171.98    8.50
 -15   1  -4  168.68    8.50
  15   1   4  170.08    8.40
  17  -1   4   53.69    4.80
 -17  -1  -4   58.69    4.80
 -17   1  -4   61.89    5.00
  17   1   4   60.29    4.90
 -19  -1  -4   41.30    4.50
  19  -1   4   33.30    4.10
  19   1   4   33.30    4.00
 -19   1  -4   39.20    4.40
  24  -2  -4   41.50    3.40
 -24  -2   4   30.20    4.10
  24   2  -4   48.10    3.70
 -24   2   4   33.70    4.30
 -22  -2   4   28.10    2.90
 -22  -2   4   31.60    3.90
  22  -2  -4   28.00    2.70
 -22   2   4   32.10    3.40
 -22   2   4   22.50    3.50
  22   2  -4   24.00    2.70
 -20  -2   4   18.10    2.90
  20  -2  -4   19.40    2.10
 -20  -2   4   19.10    2.40
 -20   2   4   16.40    2.90
 -20   2   4   21.30    2.80
  20   2  -4   17.10    2.20
  18  -2  -4   53.09    3.20
 -18  -2   4   54.39    3.70
  18  -2  -4   62.99    4.40
 -18  -2   4   51.79    4.10
 -18   2   4   56.99    4.30
  18   2  -4   58.49    3.50
 -18   2   4   58.09    4.10
 -16  -2   4   47.10    3.20
  16  -2  -4   42.60    3.40
  16  -2  -4   44.20    2.60
 -16  -2   4   43.40    3.40
  16   2  -4   42.50    2.80
 -16   2   4   38.80    3.20
 -14  -2   4   75.59    4.30
  14  -2  -4   88.19    4.60
 -14  -2   4   82.89    4.30
  14  -2  -4   80.89    3.50
  14   2  -4   81.39    3.80
 -14   2   4   90.59    4.40
  12  -2  -4   59.79    2.70
  12  -2  -4   72.09    3.70
 -12  -2   4   67.19    3.50
 -12  -2   4   61.39    3.50
 -12   2   4   54.39    3.60
  12   2  -4   62.59    3.50
  12   2  -4   62.39    3.00
 -12   2   4   68.89    3.30
  10  -2  -4  189.68    7.10
 -10  -2   4  198.38    7.10
 -10  -2   4  199.98    6.80
  10  -2  -4  185.28    6.20
 -10  -2   4  197.08    7.40
  10   2  -4  199.38    7.10
  10   2  -4  195.98    7.50
 -10   2   4  186.68    7.70
 -10   2   4  208.78    6.80
  10   2  -4  186.78    6.60
  -8  -2   4  362.86   11.10
  -8  -2   4  352.76   10.90
   8  -2  -4  353.36   10.40
  -8  -2   4  355.96   11.80
  -8  -2   4  349.96   11.00
   8  -2  -4  356.86   12.00
   8  -2  -4  348.07   11.30
   8   2  -4  344.17   11.20
   8   2  -4  346.37   11.90
  -8   2   4  342.37   10.50
   6  -2  -4   12.60    1.40
  -6  -2   4   13.20    1.00
  -6  -2   4   12.50    0.80
  -6  -2   4   13.50    1.00
  -6  -2   4   13.60    1.40
  -6   2   4   17.20    1.10
   6   2  -4   15.70    1.00
   6   2  -4   16.30    1.60
  -6   2   4   14.00    0.60
  -6   2   4   12.20    1.40
   6   2  -4   14.10    1.00
   4  -2  -4  239.68    7.10
  -4  -2   4  233.38    7.00
  -4  -2   4  226.78    7.40
  -4  -2   4  235.38    8.10
  -4  -2   4  225.18    6.90
   4  -2  -4  234.98    8.10
   4  -2  -4  228.08    7.40
  -4   2   4  237.38    7.50
  -4   2   4  238.38    7.40
   4   2  -4  222.38    8.10
   4   2  -4  233.88    7.00
  -4   2   4  235.98    7.30
  -4   2   4  222.48    7.20
  -4   2   4  232.98    8.10
   4   2  -4  235.68    7.40
  -2  -2   4  390.56   13.00
  -2  -2   4  396.66   12.50
   2  -2  -4  410.76   12.50
   2  -2  -4  410.36   12.40
   2  -2  -4  411.06   12.40
   2  -2  -4  393.66   12.20
  -2  -2   4  408.16   12.00
   2  -2  -4  386.86   12.70
  -2   2   4  408.46   12.30
   2   2  -4  406.16   12.30
  -2   2   4  408.96   12.40
   2   2  -4  413.46   12.00
   2   2  -4  400.16   11.90
  -2   2   4  395.36   12.50
  -2   2   4  384.36   12.70
   2   2  -4  383.86   12.90
   0  -2   4  114.59    4.60
   0  -2  -4  116.39    4.60
   0  -2   4  120.59    4.10
   0  -2  -4  108.89    4.20
   0  -2   4  111.59    4.70
   0  -2  -4  115.69    4.70
   0   2  -4  116.49    4.00
   0   2   4  116.89    4.40
   0   2   4  109.39    4.70
   0   2  -4  129.29    4.50
   0   2   4  106.69    4.20
   0   2   4  117.99    4.30
   2  -2   4  317.37   10.30
  -2  -2  -4  342.27   11.00
   2  -2   4  299.27   10.40
   2  -2   4  302.57   10.80
   2  -2   4  307.47   10.90
   2  -2   4  331.77   10.20
  -2  -2  -4  302.57   10.20
  -2  -2  -4  332.47   11.00
   2   2   4  300.67   10.90
  -2   2  -4  309.77   10.10
   2   2   4  301.57    9.70
   2   2   4  311.47    9.80
  -2   2  -4  300.57   10.50
   2   2   4  326.47   10.50
  -2   2  -4  332.67   10.60
  -4  -2  -4   56.49    3.10
   4  -2   4   57.59    3.40
   4  -2   4   58.79    3.10
   4  -2   4   58.49    3.00
   4  -2   4   52.19    3.50
   4  -2   4   62.69    3.00
   4   2   4   59.09    3.70
  -4   2  -4   56.19    3.00
  -4   2  -4   59.39    3.00
   6  -2   4  107.09    5.40
   6  -2   4  106.19    5.50
   6  -2   4  106.39    4.30
  -6  -2  -4   97.39    4.70
  -6   2  -4   99.59    4.70
   6   2   4  101.39    5.50
  -6   2  -4  108.09    4.50
  -8  -2  -4  177.48    7.60
   8  -2   4  206.88    7.00
   8  -2   4  185.18    8.40
  -8   2  -4  174.88    7.50
   8   2   4  184.28    8.50
  -8   2  -4  195.38    7.10
 -10  -2  -4   22.60    2.50
  10  -2   4   25.20    2.00
  10  -2   4   20.90    2.90
 -10   2  -4   25.40    2.60
 -10   2  -4   29.20    2.20
  12  -2   4   56.99    4.70
 -12  -2  -4   57.49    4.10
 -12   2  -4   56.69    4.10
  12   2   4   46.70    3.80
 -12   2  -4   59.49    3.20
  14  -2   4   31.20    3.90
 -14  -2  -4   41.10    3.80
 -14   2  -4   41.60    2.70
  14   2   4   40.00    3.80
 -14   2  -4   38.70    3.70
 -16  -2  -4   32.80    3.70
  16  -2   4   31.60    4.00
 -16   2  -4   31.70    3.60
  16   2   4   19.20    3.00
  18  -2   4   15.80    3.10
 -18  -2  -4   24.70    3.50
 -18   2  -4   16.50    3.10
  18   2   4   17.70    3.10
 -25  -3   4   -0.10    1.80
 -25   3   4    1.10    1.90
  25   3  -4    1.10    1.40
 -23  -3   4    4.70    2.20
  23  -3  -4    0.20    1.10
 -23   3   4    3.10    2.00
 -23   3   4    2.60    1.70
  23   3  -4    3.50    1.50
 -21  -3   4   10.80    2.60
  21  -3  -4   16.20    2.10
 -21  -3   4   15.40    2.20
 -21   3   4   21.20    3.00
 -21   3   4   16.90    3.00
  21   3  -4   18.40    2.30
 -19  -3   4    4.10    1.50
  19  -3  -4    4.10    1.90
 -19  -3   4    0.30    1.30
  19  -3  -4    1.90    1.00
 -19   3   4    1.60    1.60
  19   3  -4    3.80    1.30
 -19   3   4    3.90    1.70
  17  -3  -4   60.89    4.20
 -17  -3   4   51.09    3.50
  17  -3  -4   57.89    3.10
 -17  -3   4   62.89    4.10
 -17   3   4   52.29    4.00
  17   3  -4   58.79    3.40
  15  -3  -4   11.20    2.00
  15  -3  -4   11.50    1.30
 -15  -3   4    8.10    1.60
 -15  -3   4    7.30    1.50
  15   3  -4   10.50    1.40
 -15   3   4   10.70    2.00
  13  -3  -4    0.10    0.70
  13  -3  -4   -0.10    0.40
 -13  -3   4    0.30    0.80
 -13   3   4   -0.30    0.90
  13   3  -4   -0.20    0.70
  13   3  -4    0.80    0.60
 -13   3   4    0.30    0.70
 -13   3   4   -0.10    0.70
  11  -3  -4   80.99    3.00
 -11  -3   4   85.99    3.90
  11  -3  -4   84.69    4.00
 -11   3   4   79.19    4.40
  11   3  -4   78.89    3.50
 -11   3   4   71.29    3.30
  11   3  -4   84.69    4.20
 -11   3   4   86.69    3.50
  -9  -3   4    9.50    1.10
   9  -3  -4   10.80    0.60
  -9  -3   4   10.80    1.10
  -9  -3   4    9.80    1.40
   9  -3  -4    8.60    1.20
  -9  -3   4    8.40    1.10
   9   3  -4    9.40    1.40
  -9   3   4    9.50    0.80
   9   3  -4    9.70    1.00
  -9   3   4   10.60    0.90
  -9   3   4    7.80    1.50
  -7  -3   4    8.60    0.90
  -7  -3   4    8.60    0.90
  -7  -3   4    6.70    1.20
  -7  -3   4    8.30    0.80
  -7  -3   4    8.90    0.90
   7  -3  -4    8.20    1.00
   7  -3  -4    7.30    1.30
   7   3  -4    5.60    1.10
  -7   3   4    7.80    1.40
  -7   3   4    6.50    0.80
   5  -3  -4    0.50    0.40
  -5  -3   4    0.70    0.40
  -5  -3   4   -0.50    0.60
  -5  -3   4    0.20    0.20
   5  -3  -4   -0.20    0.50
  -5   3   4    0.50    0.30
   5   3  -4   -0.60    0.20
   5   3  -4    0.30    0.60
  -5   3   4    0.30    0.30
   5   3  -4   -0.10    0.30
  -5   3   4    0.10    0.60
   3  -3  -4   99.99    3.50
   3  -3  -4   98.19    3.50
  -3  -3   4   95.09    3.70
   3  -3  -4   97.89    3.70
  -3  -3   4   92.89    4.30
   3  -3  -4  101.29    4.20
   3  -3  -4   97.19    3.60
  -3   3   4   92.79    3.50
   3   3  -4   99.99    4.30
  -3   3   4   99.29    3.70
   3   3  -4   99.79    3.60
  -3   3   4   89.59    4.10
  -1  -3   4   30.00    2.30
   1  -3  -4   32.00    1.90
  -1  -3   4   31.50    1.90
   1  -3  -4   31.70    1.90
  -1  -3   4   30.10    1.40
   1  -3  -4   33.60    1.80
   1  -3  -4   36.70    2.10
  -1   3   4   30.30    1.90
   1   3  -4   28.50    2.20
  -1   3   4   30.60    1.80
   1   3  -4   34.20    1.80
  -1   3   4   29.80    1.90
   1   3  -4   31.50    1.30
   1  -3   4    0.90    0.70
  -1  -3  -4    1.30    0.60
   1  -3   4    0.60    0.60
  -1  -3  -4    1.20    0.50
   1  -3   4    0.90    0.50
   1  -3   4    1.90    0.80
  -1  -3  -4    1.10    0.80
  -1   3  -4    1.30    0.80
   1   3   4    0.80    0.50
  -1   3  -4    0.40    0.50
   1   3   4    0.90    0.70
  -1   3  -4    1.50    0.50
  -1   3  -4    1.20    0.50
   1   3   4    1.70    0.60
   3  -3   4  111.59    4.80
   3  -3   4  115.19    5.20
  -3  -3  -4  117.79    4.80
   3  -3   4  124.39    5.50
   3  -3   4  121.99    5.10
  -3   3  -4  120.89    5.10
   3   3   4  118.19    4.10
  -3   3  -4  114.89    4.60
  -3   3  -4  121.79    4.70
   3   3   4  113.69    5.40
   3   3   4  112.79    4.10
   5  -3   4   14.10    1.70
   5  -3   4    9.70    1.60
   5  -3   4   14.00    1.50
  -5  -3  -4   12.80    1.60
   5  -3   4    8.70    1.70
  -5   3  -4   10.30    1.40
  -5   3  -4   11.70    1.60
   7  -3   4    8.60    1.80
  -7  -3  -4   11.70    1.60
   7  -3   4    8.60    1.80
   7  -3   4   12.90    1.50
   7   3   4    9.00    1.60
  -7   3  -4   11.50    1.60
  -7   3  -4    9.80    1.60
  -9  -3  -4    3.90    1.30
   9  -3   4    4.70    1.60
  -9   3  -4    9.40    1.70
   9   3   4    5.80    1.60
  -9   3  -4    9.10    1.50
 -11  -3  -4   30.20    2.90
  11  -3   4   27.20    3.30
 -11   3  -4   26.60    2.40
  11   3   4   27.70    2.90
 -11   3  -4   35.40    3.10
  13  -3   4   14.90    2.90
 -13  -3  -4   11.10    2.20
 -13   3  -4   17.10    2.00
 -13   3  -4   13.60    2.40
  13   3   4   16.20    2.60
 -15  -3  -4   11.70    2.40
  15  -3   4   11.70    2.80
 -15   3  -4   15.30    2.70
  15   3   4   13.90    2.60
 -17  -3  -4    3.80    1.80
  17  -3   4    0.90    1.80
 -17   3  -4    1.20    1.60
  17   3   4    1.80    1.40
  19  -3   4    3.10    1.90
 -19  -3  -4    1.90    1.70
 -19   3  -4    3.90    2.10
  19   3   4    0.80    1.50
 -24  -4   4    4.50    2.10
 -24   4   4   -0.70    1.70
 -24   4   4    1.10    1.70
  24   4  -4    1.20    1.30
 -22  -4   4   55.99    4.80
 -22   4   4   35.30    4.20
 -22   4   4   48.90    4.40
  22   4  -4   50.29    3.70
  20  -4  -4  168.78    6.70
  20  -4  -4  164.68    8.40
 -20  -4   4  155.48    7.90
 -20  -4   4  155.88    7.00
 -20   4   4  145.89    8.10
  20   4  -4  159.38    7.10
 -20   4   4  156.28    8.00
  18  -4  -4  134.19    5.80
 -18  -4   4  149.29    7.10
  18  -4  -4  142.99    7.30
 -18  -4   4  147.69    6.50
  18   4  -4  139.59    6.30
 -18   4   4  142.19    7.20
 -16  -4   4   76.89    4.30
 -16  -4   4   74.99    4.50
  16  -4  -4   78.09    4.80
  16  -4  -4   79.99    3.70
  16   4  -4   79.89    4.10
 -16   4   4   82.89    5.00
  14  -4  -4   55.99    2.60
  14  -4  -4   51.29    3.50
 -14  -4   4   57.09    3.50
 -14   4   4   57.79    3.10
  14   4  -4   54.39    3.50
 -14   4   4   47.50    2.80
  14   4  -4   53.19    3.00
 -14   4   4   55.09    3.90
  12  -4  -4   43.70    2.00
 -12  -4   4   44.10    2.80
  12  -4  -4   36.70    2.70
 -12   4   4   49.10    2.40
 -12   4   4   38.80    2.10
  12   4  -4   43.60    3.00
 -12   4   4   40.10    3.20
  12   4  -4   48.10    2.60
  10  -4  -4    8.60    0.70
 -10  -4   4    7.80    1.10
 -10  -4   4    8.70    1.10
  10  -4  -4    9.60    1.40
 -10  -4   4    8.40    1.10
  10   4  -4    7.30    1.00
 -10   4   4    6.20    1.50
 -10   4   4    5.80    0.70
  10   4  -4    9.20    1.50
  -8  -4   4   56.49    2.60
  -8  -4   4   56.59    2.50
  -8  -4   4   55.29    2.60
   8  -4  -4   52.99    2.70
   8   4  -4   51.59    3.20
  -8   4   4   53.49    3.40
  -6  -4   4    3.40    1.10
  -6  -4   4    2.80    0.70
   6  -4  -4    2.80    0.70
  -6  -4   4    1.90    0.40
  -6  -4   4    2.30    0.40
  -6   4   4    1.00    0.80
   6   4  -4    1.30    0.80
   4  -4  -4   18.80    1.40
  -4  -4   4   19.10    1.90
   4  -4  -4   21.10    1.30
   4  -4  -4   21.40    1.90
  -4  -4   4   21.60    1.40
   4   4  -4   17.70    1.90
  -4   4   4   20.40    1.00
  -4   4   4   24.00    1.50
   4   4  -4   23.80    1.50
  -4   4   4   22.40    1.40
  -4   4   4   19.90    1.90
   2  -4  -4  110.29    4.10
   2  -4  -4  102.19    4.00
   2  -4  -4  100.69    4.40
  -2  -4   4   98.79    4.70
  -2  -4   4   99.09    4.00
  -2   4   4   91.29    4.20
   2   4  -4   99.59    4.70
  -2   4   4  105.49    4.10
  -2   4   4  101.19    3.90
  -2   4   4   98.59    3.70
   2   4  -4  100.39    3.90
   0  -4  -4  380.36   12.10
   0  -4   4  356.76   12.30
   0  -4  -4  355.76   11.40
   0  -4  -4  366.46   11.70
   0  -4   4  365.66   12.10
   0  -4  -4  349.47   11.60
   0  -4   4  359.26   11.80
   0   4  -4  347.67   10.90
   0   4  -4  346.17   12.30
   0   4   4  356.86   11.50
   0   4  -4  361.26   10.90
   0   4   4  362.66   11.70
  -2  -4  -4   49.10    2.60
   2  -4   4   53.19    3.30
   2  -4   4   45.20    2.90
  -2  -4  -4   51.29    2.40
   2  -4   4   45.20    2.80
  -2   4  -4   46.40    2.40
   2   4   4   49.70    2.40
   2   4   4   47.20    2.70
  -2   4  -4   44.40    3.10
  -2   4  -4   50.49    2.30
  -4  -4  -4   28.00    1.50
  -4  -4  -4   27.30    2.10
   4  -4   4   27.00    2.30
   4  -4   4   25.80    2.50
  -4   4  -4   26.30    2.40
  -4   4  -4   30.80    2.10
  -4   4  -4   31.70    2.00
   4   4   4   30.00    2.30
   4   4   4   26.70    1.50
  -6  -4  -4   76.69    4.00
   6  -4   4   84.59    4.80
   6  -4   4   69.89    4.40
  -6   4  -4   82.39    4.00
   6   4   4   84.59    4.30
  -6   4  -4   78.09    4.20
   8  -4   4    1.40    1.20
  -8  -4  -4    1.70    0.90
   8  -4   4    1.80    1.10
  -8   4  -4    1.60    1.00
  -8   4  -4    4.30    1.30
   8   4   4    3.30    1.10
  -8   4  -4    2.80    1.10
  10  -4   4   17.10    2.70
 -10  -4  -4   18.20    2.30
  10  -4   4   18.70    2.70
 -10   4  -4   22.00    2.50
  10   4   4   19.90    2.50
 -10   4  -4   23.80    2.40
  12  -4   4    1.00    1.30
 -12  -4  -4    1.00    1.10
 -12   4  -4    0.70    1.10
  12   4   4   -0.90    0.80
 -12   4  -4    1.10    1.00
  14  -4   4    3.00    1.80
 -14  -4  -4    1.30    1.30
 -14   4  -4    0.50    1.30
 -14   4  -4    2.90    1.40
  14   4   4    3.30    1.50
 -16  -4  -4   15.20    2.80
  16  -4   4   10.40    2.80
  16   4   4   12.70    2.60
 -16   4  -4   11.70    2.60
  18  -4   4    5.50    2.50
 -18  -4  -4    6.00    2.20
  18   4   4    7.00    2.20
 -18   4  -4    9.00    2.50
 -23  -5   4   61.79    5.00
 -23   5   4   54.09    4.80
  23   5  -4   56.29    4.20
 -23   5   4   63.89    5.50
 -21  -5   4   93.89    5.90
  21  -5  -4  100.29    6.50
  21   5  -4   92.09    5.20
 -21   5   4   94.79    6.40
 -21   5   4  102.49    6.30
 -19  -5   4  133.69    6.20
  19  -5  -4  132.59    5.60
  19  -5  -4  125.49    7.10
 -19  -5   4  138.79    6.90
 -19   5   4  122.49    7.00
  19   5  -4  123.19    6.00
  17  -5  -4   58.89    3.00
  17  -5  -4   50.79    4.10
 -17  -5   4   51.69    3.50
 -17  -5   4   52.09    3.80
 -17   5   4   55.29    4.40
  17   5  -4   54.19    3.40
 -15  -5   4   48.90    3.40
  15  -5  -4   51.69    2.70
  15  -5  -4   52.49    3.70
  15   5  -4   55.19    3.60
  15   5  -4   46.30    3.00
 -15   5   4   56.39    2.90
 -15   5   4   54.79    4.10
  13  -5  -4  202.38    8.20
  13  -5  -4  204.98    6.80
 -13  -5   4  198.68    7.80
 -13   5   4  197.58    8.70
 -13   5   4  205.18    6.80
  13   5  -4  213.48    8.30
  13   5  -4  195.18    7.50
  11  -5  -4  159.58    5.20
 -11  -5   4  153.68    6.10
 -11  -5   4  159.68    6.20
  11  -5  -4  155.98    6.50
  11   5  -4  160.18    6.00
 -11   5   4  155.88    7.20
 -11   5   4  157.98    5.10
  11   5  -4  171.88    6.90
  -9  -5   4   71.39    3.20
   9  -5  -4   73.99    3.50
  -9  -5   4   71.19    3.30
  -9  -5   4   70.59    3.20
   9   5  -4   65.69    3.90
  -9   5   4   72.89    4.30
  -7  -5   4  243.38    7.70
  -7  -5   4  244.98    8.20
  -7  -5   4  240.18    7.70
  -7   5   4  236.78    9.20
   7   5  -4  240.88    9.20
   5  -5  -4  609.24   18.30
   5  -5  -4  608.34   17.50
  -5  -5   4  573.54   17.50
  -5   5   4  588.44   19.30
   3  -5  -4  322.67   11.20
   3  -5  -4  336.87   10.40
   3  -5  -4  330.07   10.30
   3  -5  -4  328.87   10.50
  -3  -5   4  315.77   10.50
  -3   5   4  307.67   11.10
  -3   5   4  322.47    9.90
   3   5  -4  317.97   11.60
  -1  -5   4  220.28    7.80
   1  -5  -4  239.08    8.20
   1  -5  -4  215.88    7.70
   1  -5  -4  221.38    7.40
   1  -5  -4  235.28    8.00
   1   5  -4  218.38    8.60
  -1   5   4  223.08    8.10
   1   5  -4  217.58    6.90
  -1   5   4  221.88    7.40
   1   5  -4  219.58    6.70
  -1  -5  -4  185.58    6.60
   1  -5   4  184.38    7.00
  -1  -5  -4  185.38    6.80
  -1  -5  -4  179.08    6.80
  -1  -5  -4  192.88    7.40
  -1   5  -4  191.28    6.30
   1   5   4  187.68    6.80
  -1   5  -4  187.38    7.70
   1   5   4  192.18    6.80
  -1   5  -4  188.78    6.00
  -3  -5  -4  209.28    7.10
  -3  -5  -4  196.08    7.40
   3  -5   4  207.78    8.00
   3   5   4  198.38    7.60
  -3   5  -4  210.88    7.20
  -3   5  -4  208.88    7.00
   3   5   4  207.98    7.10
  -3   5  -4  196.48    8.20
  -5  -5  -4  219.68    7.00
   5  -5   4  204.38    8.70
   5  -5   4  198.98    8.40
  -5  -5  -4  204.68    7.90
  -5   5  -4  219.18    8.40
  -5   5  -4  212.68    8.50
   5   5   4  209.78    6.90
  -5   5  -4  206.28    7.70
   5   5   4  209.88    8.10
   5   5   4  214.88    7.00
   7  -5   4  206.08    8.80
  -7  -5  -4  212.08    8.20
   7  -5   4  214.88    9.10
  -7   5  -4  211.08    8.30
  -7   5  -4  198.48    8.00
   7   5   4  206.78    8.40
  -7   5  -4  200.48    8.40
   9  -5   4  163.08    8.20
   9  -5   4  178.88    8.20
  -9  -5  -4  164.38    7.40
   9   5   4  180.58    7.70
  -9   5  -4  177.18    7.60
  -9   5  -4  171.28    7.30
  -9   5  -4  171.98    7.40
  11  -5   4   43.80    4.00
  11  -5   4   36.50    3.80
 -11  -5  -4   44.00    3.40
 -11   5  -4   40.10    3.40
 -11   5  -4   38.70    3.10
  11   5   4   36.40    3.30
 -11   5  -4   41.30    3.40
 -13  -5  -4   25.80    3.00
  13  -5   4   26.00    3.50
  13   5   4   15.10    2.60
 -13   5  -4   29.40    3.00
 -13   5  -4   24.40    3.00
  15  -5   4   43.90    4.70
 -15  -5  -4   43.90    4.10
 -15   5  -4   51.89    3.90
  15   5   4   48.70    4.30
 -15   5  -4   45.50    4.20
 -17  -5  -4   66.69    5.10
  17  -5   4   49.60    5.20
 -17   5  -4   55.99    4.90
  17   5   4   62.19    4.90
 -24  -6   4   94.19    6.30
 -24   6   4   81.09    6.40
  24   6  -4   92.79    5.60
 -24   6   4   84.89    6.30
 -22  -6   4   75.29    5.40
  22  -6  -4   85.79    6.30
  22   6  -4   79.49    4.90
 -22   6   4   91.29    6.10
 -22   6   4   78.89    6.00
 -20  -6   4   55.89    4.40
 -20  -6   4   54.69    3.80
  20  -6  -4   55.49    4.90
  20   6  -4   63.39    4.10
 -20   6   4   67.89    5.20
  18  -6  -4   85.99    5.50
 -18  -6   4   75.29    4.90
 -18  -6   4   82.49    4.70
  18  -6  -4   91.29    4.20
  18   6  -4   90.39    4.80
  18   6  -4   80.39    4.70
 -18   6   4   87.39    5.70
  16  -6  -4   81.29    4.90
  16  -6  -4   83.09    3.60
 -16  -6   4   69.29    4.30
 -16   6   4   71.39    5.10
  16   6  -4   74.59    4.10
  16   6  -4   73.69    4.40
 -14  -6   4  171.78    7.20
  14  -6  -4  181.48    6.20
  14  -6  -4  178.18    7.70
  14   6  -4  172.28    7.60
  14   6  -4  171.18    7.00
 -14   6   4  178.88    8.40
 -14   6   4  180.38    6.10
 -12  -6   4  197.98    7.40
  12  -6  -4  187.98    7.80
 -12  -6   4  196.98    7.50
 -12   6   4  194.88    6.20
  12   6  -4  202.58    7.40
  12   6  -4  187.78    8.00
 -12   6   4  192.68    8.60
  10  -6  -4  513.65   16.90
 -10  -6   4  527.05   16.40
 -10  -6   4  545.85   16.50
 -10  -6   4  507.35   16.70
 -10   6   4  517.55   18.10
  10   6  -4  517.35   17.60
 -10   6   4  522.95   15.40
  -8  -6   4  262.67    8.30
  -8  -6   4  249.18    8.40
  -8  -6   4  264.57    8.90
   8  -6  -4  254.97    8.90
   8   6  -4  251.17    9.80
  -8   6   4  251.07   10.00
  -6  -6   4  191.68    6.00
   6  -6  -4  188.38    6.80
  -6  -6   4  187.68    6.80
  -6  -6   4  179.48    6.10
   6  -6  -4  190.88    5.90
   6  -6  -4  198.78    5.90
  -6   6   4  184.28    7.80
   6   6  -4  195.98    6.10
   4  -6  -4  490.55   15.30
   4  -6  -4  496.75   14.80
   4  -6  -4  485.25   14.60
  -4  -6   4  477.55   15.40
   4   6  -4  499.35   16.80
  -4   6   4  488.75   16.40
  -2  -6   4  464.75   14.60
   2  -6  -4  454.15   14.40
   2  -6  -4  449.86   14.20
  -2   6   4  450.55   15.20
   2   6  -4  459.35   15.80
  -2   6   4  463.25   14.00
   0  -6  -4  301.47   10.00
   0  -6  -4  314.37   10.30
   0  -6  -4  307.57   10.70
   0  -6   4  298.87   10.50
   0  -6  -4  319.67   10.70
   0   6   4  297.07   10.60
   0   6  -4  312.37    9.20
   0   6  -4  293.67   11.40
   0   6   4  302.87   10.00
   0   6  -4  306.97    9.50
  -2  -6  -4  448.66   14.30
  -2  -6  -4  449.76   14.10
   2  -6   4  423.46   14.60
  -2  -6  -4  445.76   14.30
  -2   6  -4  448.36   13.40
  -2   6  -4  417.46   13.70
   2   6   4  441.16   14.20
  -2   6  -4  436.56   15.40
   2   6   4  434.96   14.20
   4  -6   4  277.47   10.30
  -4  -6  -4  264.87    9.20
  -4  -6  -4  274.97    9.60
  -4   6  -4  259.17    9.30
   4   6   4  268.97    9.30
  -4   6  -4  269.27   10.60
  -4   6  -4  284.27    9.00
   4   6   4  280.37    9.90
   4   6   4  279.87    9.20
  -4   6  -4  263.57   10.30
  -6  -6  -4  190.68    6.30
   6  -6   4  168.58    8.00
  -6  -6  -4  176.98    7.20
   6  -6   4  183.78    7.90
   6   6   4  192.28    7.60
  -6   6  -4  179.48    8.00
  -6   6  -4  189.38    7.90
  -6   6  -4  180.28    7.10
   6   6   4  179.98    6.40
   8  -6   4  343.47   13.30
  -8  -6  -4  350.26   12.40
   8  -6   4  317.37   12.90
  -8   6  -4  339.37   12.60
   8   6   4  349.17   12.60
  -8   6  -4  338.67   12.90
  -8   6  -4  348.67   12.30
 -10  -6  -4  137.19    6.40
  10  -6   4  129.19    7.20
  10  -6   4  131.69    6.90
 -10   6  -4  124.69    6.50
 -10   6  -4  121.29    6.20
  10   6   4  120.59    6.30
 -10   6  -4  132.69    6.40
 -12  -6  -4   83.29    5.10
  12  -6   4   93.49    6.10
  12  -6   4   81.29    5.60
 -12   6  -4   93.99    5.20
 -12   6  -4   88.89    5.40
 -12   6  -4   93.89    5.40
  12   6   4   82.39    5.20
  14  -6   4   87.29    6.40
 -14  -6  -4   97.09    5.70
  14   6   4   90.69    5.70
 -14   6  -4   91.99    5.70
 -14   6  -4   85.69    5.40
 -16  -6  -4   59.59    4.70
  16  -6   4   69.59    5.80
 -16   6  -4   59.29    4.90
  16   6   4   58.19    4.70
 -18  -6  -4   48.60    4.60
  18  -6   4   55.49    5.50
 -18   6  -4   44.80    4.60
  18   6   4   48.60    4.60
  23  -7  -4   78.09    6.00
 -23  -7   4   70.29    5.30
 -23   7   4   55.09    5.50
  23   7  -4   59.39    4.40
 -23   7   4   68.59    5.60
  21  -7  -4   22.90    3.60
 -21  -7   4   18.60    2.90
 -21   7   4   24.30    3.70
  21   7  -4   19.10    2.60
  19  -7  -4   84.99    5.70
 -19  -7   4   75.49    4.60
 -19  -7   4   78.09    5.00
  19   7  -4   68.29    4.40
 -19   7   4   84.19    5.80
 -17  -7   4  332.67   12.60
  17  -7  -4  342.97   13.50
  17   7  -4  327.77   12.60
  17   7  -4  342.27   12.30
 -17   7   4  350.66   14.00
 -15  -7   4  215.18    8.60
  15  -7  -4  220.18    7.40
  15  -7  -4  204.98    9.10
 -15  -7   4  217.78    8.60
  15   7  -4  212.78    9.00
 -15   7   4  225.88   10.00
  15   7  -4  203.88    8.30
 -13  -7   4  106.79    4.80
 -13  -7   4  103.09    4.90
  13  -7  -4   99.99    5.20
 -13   7   4  100.89    3.50
 -13   7   4  104.19    6.00
  13   7  -4   95.79    5.30
  13   7  -4   95.39    4.60
 -11  -7   4  395.56   13.00
 -11  -7   4  393.86   13.40
  11  -7  -4  401.86   13.70
  11  -7  -4  400.86   12.40
 -11   7   4  394.16   14.80
  11   7  -4  388.86   14.20
 -11   7   4  400.96   11.80
   9  -7  -4  197.88    7.70
   9  -7  -4  203.28    6.70
  -9  -7   4  219.08    7.80
  -9  -7   4  209.28    7.30
  -9  -7   4  202.98    7.10
  -9   7   4  212.18    9.00
   9   7  -4  217.38    7.40
   9   7  -4  216.08    8.80
   7  -7  -4  173.68    6.60
  -7  -7   4  170.08    6.50
   7  -7  -4  173.18    5.50
   7  -7  -4  171.58    5.60
  -7  -7   4  176.98    5.70
   7   7  -4  183.78    6.00
  -7   7   4  179.78    7.80
  -5  -7   4  130.19    4.00
   5  -7  -4  127.39    4.40
  -5  -7   4  124.99    5.10
  -5  -7   4  129.29    4.10
   5  -7  -4  135.49    5.10
   5  -7  -4  129.09    4.30
  -5   7   4  125.99    6.10
   5   7  -4  131.49    4.30
   5   7  -4  114.29    6.10
  -3  -7   4  111.69    4.80
   3  -7  -4  122.59    4.80
   3  -7  -4  119.29    4.60
  -3  -7   4  120.89    3.80
   3  -7  -4  114.99    4.20
   3  -7  -4  126.79    4.50
  -3   7   4  120.39    5.70
   3   7  -4  116.29    5.90
  -3   7   4  121.89    4.20
   1  -7  -4  510.45   16.40
   1  -7  -4  525.45   16.10
   1  -7  -4  537.85   16.40
  -1  -7   4  507.75   15.50
  -1  -7   4  498.35   16.60
   1   7  -4  516.15   18.00
  -1   7   4  521.15   16.00
   1   7  -4  532.15   15.20
   1   7  -4  521.95   15.30
  -1   7   4  515.15   17.20
   1  -7   4  184.28    6.40
   1  -7   4  183.68    7.40
  -1  -7  -4  196.28    6.90
  -1  -7  -4  186.58    7.10
   1   7   4  199.68    7.50
   1   7   4  193.08    7.00
  -1   7  -4  203.38    8.50
  -1   7  -4  197.58    6.20
  -3  -7  -4  334.57   11.20
   3  -7   4  341.67   11.90
  -3  -7  -4  334.87   11.30
   3   7   4  329.37   11.30
   3   7   4  333.07   11.50
  -3   7  -4  332.17   10.40
   3   7   4  328.17   11.30
  -3   7  -4  331.47   10.80
  -3   7  -4  298.57   12.40
  -5  -7  -4  255.67    8.70
   5  -7   4  249.68   10.00
   5  -7   4  226.58    9.50
  -5  -7  -4  242.58    9.00
  -5   7  -4  252.17   10.00
  -5   7  -4  246.38   10.20
  -5   7  -4  246.38    8.80
   5   7   4  242.08    8.50
   5   7   4  250.17    8.80
   5   7   4  250.17    9.30
   7  -7   4  134.39    6.80
   7  -7   4  145.39    7.20
  -7  -7  -4  151.38    5.40
  -7  -7  -4  134.49    6.20
  -7   7  -4  145.49    7.20
   7   7   4  150.08    5.50
  -7   7  -4  149.79    7.00
  -7   7  -4  132.49    6.10
   7   7   4  149.39    6.60
   9  -7   4   79.29    5.30
  -9  -7  -4   79.69    4.50
   9  -7   4   74.09    4.90
   9   7   4   64.09    4.30
  -9   7  -4   76.09    4.40
  -9   7  -4   77.59    4.70
  -9   7  -4   68.99    4.80
  11  -7   4  153.28    8.00
 -11  -7  -4  141.89    7.10
  11  -7   4  158.08    8.30
 -11   7  -4  158.18    7.80
  11   7   4  159.98    7.50
 -11   7  -4  160.28    7.40
 -11   7  -4  144.49    7.30
 -13  -7  -4  117.99    6.40
  13  -7   4  110.79    7.20
 -13   7  -4  128.69    6.70
  13   7   4  112.49    6.40
 -13   7  -4  117.99    6.70
 -13   7  -4  123.59    6.50
 -15  -7  -4   34.50    3.60
  15  -7   4   41.00    4.60
  15   7   4   29.30    3.50
 -15   7  -4   35.40    3.70
 -15   7  -4   38.00    3.80
 -17  -7  -4   52.09    4.60
  17  -7   4   48.70    5.20
  17   7   4   47.50    4.50
 -17   7  -4   40.70    4.30
 -22  -8   4    0.70    1.60
  22  -8  -4    3.10    2.10
  22   8  -4    4.90    1.70
 -22   8   4    2.20    2.20
 -20  -8   4    3.60    1.60
  20  -8  -4    0.90    1.80
  20   8  -4    4.10    1.40
 -20   8   4    2.20    2.00
 -18  -8   4    0.40    1.10
 -18  -8   4    1.00    1.40
  18  -8  -4    2.40    1.70
  18   8  -4    2.70    1.50
  18   8  -4    0.30    1.00
 -18   8   4    1.80    1.90
 -16  -8   4   29.10    2.70
  16  -8  -4   27.80    3.20
 -16  -8   4   24.50    2.50
 -16   8   4   18.00    3.20
  16   8  -4   23.00    2.40
  16   8  -4   25.20    2.90
 -14  -8   4   67.89    4.00
 -14  -8   4   66.09    3.70
  14  -8  -4   54.59    4.00
  14   8  -4   71.19    4.50
  14   8  -4   67.29    3.80
 -14   8   4   68.59    5.00
  12  -8  -4   93.29    4.90
 -12  -8   4   87.89    4.50
  12  -8  -4   92.69    3.80
 -12  -8   4   96.29    4.30
  12   8  -4  100.49    5.40
 -12   8   4   93.89    3.20
 -12   8   4   95.99    5.80
  10  -8  -4  199.28    5.90
 -10  -8   4  192.28    6.70
  10  -8  -4  177.38    6.30
  10  -8  -4  179.78    7.40
 -10  -8   4  193.58    7.40
 -10   8   4  191.18    8.80
  10   8  -4  191.68    8.40
  -8  -8   4  172.88    6.60
   8  -8  -4  165.48    5.60
   8  -8  -4  167.68    6.60
  -8  -8   4  162.38    5.60
   8  -8  -4  165.78    5.40
   8   8  -4  172.18    6.00
  -8   8   4  161.68    7.70
   6  -8  -4  218.68    7.00
   6  -8  -4  218.88    7.90
  -6  -8   4  217.68    6.80
   6  -8  -4  209.08    7.00
  -6  -8   4  213.28    7.90
  -6  -8   4  219.78    6.70
   6   8  -4  206.28    9.20
  -6   8   4  214.88    9.10
   6   8  -4  226.08    7.10
  -4  -8   4  196.88    7.60
   4  -8  -4  211.18    7.10
   4  -8  -4  207.08    6.80
   4  -8  -4  207.38    7.50
  -4  -8   4  214.08    6.40
   4   8  -4  207.18    9.00
  -4   8   4  209.48    8.70
   4   8  -4  211.28    6.60
   2  -8  -4  113.59    4.40
  -2  -8   4  103.29    4.80
   2  -8  -4  115.79    4.70
  -2  -8   4  108.09    3.70
   2  -8  -4  109.69    4.50
   2  -8  -4  111.59    4.20
  -2   8   4  111.99    5.50
   2   8  -4  111.09    3.60
   2   8  -4  109.69    6.00
  -2   8   4  112.89    4.10
   0  -8  -4   91.29    3.90
   0  -8   4   93.69    4.40
   0  -8  -4   87.69    4.10
   0  -8   4   91.59    3.50
   0   8   4   85.39    4.60
   0   8  -4   95.79    3.10
   0   8  -4   93.09    3.20
   0   8  -4   96.79    5.50
   0   8   4   93.29    3.90
   2  -8   4  170.68    6.20
  -2  -8  -4  168.48    6.50
   2  -8   4  179.48    7.30
  -2  -8  -4  176.38    6.90
   2   8   4  183.98    6.80
  -2   8  -4  163.48    8.00
   2   8   4  177.68    7.30
   2   8   4  167.38    7.00
  -2   8  -4  178.98    5.80
   4  -8   4   91.19    5.10
   4  -8   4  104.69    4.50
  -4  -8  -4  110.29    4.80
  -4  -8  -4  106.69    5.00
  -4   8  -4  116.39    6.20
  -4   8  -4  102.89    5.70
   4   8   4  104.79    5.00
  -4   8  -4  105.49    4.50
   4   8   4   98.09    4.70
   4   8   4  111.99    5.00
  -6  -8  -4   82.99    4.30
  -6  -8  -4   78.69    3.90
   6  -8   4   83.29    4.90
   6  -8   4   81.09    5.10
   6   8   4   76.79    3.90
  -6   8  -4   78.89    5.20
   6   8   4   80.09    3.80
  -6   8  -4   90.79    5.20
  -6   8  -4   73.59    4.00
   6   8   4   80.09    4.40
   8  -8   4  116.49    6.30
  -8  -8  -4  110.19    5.40
   8  -8   4  106.59    6.30
   8   8   4  115.29    4.70
  -8   8  -4  115.89    6.20
  -8   8  -4   98.79    6.20
   8   8   4  108.49    5.60
  -8   8  -4  115.69    5.50
  10  -8   4   70.09    5.20
 -10  -8  -4   73.79    4.40
  10  -8   4   69.09    4.90
  10   8   4   61.99    4.30
 -10   8  -4   66.69    4.30
 -10   8  -4   61.09    4.90
 -10   8  -4   67.59    4.70
 -12  -8  -4  126.39    6.50
  12  -8   4  123.39    7.20
  12  -8   4  130.39    7.60
 -12   8  -4  113.09    6.80
 -12   8  -4  118.59    6.40
 -12   8  -4  115.59    6.60
  12   8   4  122.89    6.60
 -14  -8  -4   56.19    4.30
  14  -8   4   48.40    4.90
  14   8   4   51.79    4.30
 -14   8  -4   58.19    4.80
 -14   8  -4   44.90    4.10
 -14   8  -4   52.59    4.40
 -16  -8  -4   25.30    3.30
  16  -8   4   26.50    4.00
 -16   8  -4   29.50    3.70
 -16   8  -4   34.40    3.80
  16   8   4   31.10    3.60
  21  -9  -4   10.00    2.90
 -21  -9   4    5.60    1.90
 -21  -9   4    5.10    1.90
 -21   9   4    7.50    2.80
  21   9  -4    6.80    1.80
  19  -9  -4   -0.10    1.50
 -19  -9   4    1.60    1.30
 -19  -9   4   -0.20    1.20
 -19   9   4    3.40    2.10
  19   9  -4    0.20    1.00
 -17  -9   4    3.90    1.50
 -17  -9   4    6.20    1.70
  17  -9  -4    2.80    1.70
 -17   9   4    4.60    2.20
  17   9  -4    4.10    1.70
  17   9  -4    1.90    1.20
 -15  -9   4   19.60    2.30
  15  -9  -4   18.90    2.70
 -15  -9   4   15.20    2.00
 -15   9   4   11.80    2.70
  15   9  -4   16.70    2.60
  13  -9  -4   23.00    2.60
 -13  -9   4   18.20    2.10
 -13  -9   4   17.90    1.90
  13  -9  -4   19.50    1.70
  13   9  -4   17.00    2.60
 -13   9   4   27.10    3.50
  11  -9  -4   33.30    2.00
 -11  -9   4   33.40    2.10
  11  -9  -4   27.20    1.80
  11  -9  -4   29.00    2.60
 -11  -9   4   36.60    2.60
  11   9  -4   32.80    3.30
 -11   9   4   27.10    3.40
   9  -9  -4   28.70    1.50
  -9  -9   4   27.40    1.70
   9  -9  -4   27.30    2.40
   9  -9  -4   30.70    1.80
  -9  -9   4   30.20    2.40
   9   9  -4   31.10    2.20
   9   9  -4   26.60    3.00
  -9   9   4   27.40    3.30
  -7  -9   4   46.70    2.80
   7  -9  -4   39.40    1.90
  -7  -9   4   39.60    1.80
   7  -9  -4   42.00    2.00
   7  -9  -4   41.30    2.70
  -7  -9   4   39.90    1.90
   7   9  -4   39.90    2.20
   7   9  -4   40.80    3.70
  -7   9   4   38.30    3.70
  -5  -9   4    7.20    0.60
   5  -9  -4    8.90    0.90
   5  -9  -4    6.20    1.10
   5  -9  -4    7.80    1.00
  -5  -9   4    9.10    1.30
  -5   9   4   11.10    2.10
   5   9  -4    7.80    0.80
   5   9  -4    5.70    1.70
  -3  -9   4   20.10    1.90
  -3  -9   4   19.00    1.10
   3  -9  -4   20.20    1.40
   3  -9  -4   22.20    1.80
  -3   9   4   19.30    2.50
   3   9  -4   24.80    3.00
   3   9  -4   20.00    1.20
   1  -9  -4   15.90    1.40
   1  -9  -4   16.80    1.50
   1  -9  -4   16.80    1.60
  -1  -9   4   14.80    1.10
  -1  -9   4   16.40    1.80
   1   9  -4   13.90    2.50
  -1   9   4   14.70    1.30
   1   9  -4   16.70    1.00
  -1   9   4   16.50    2.20
  -1   9   4   18.30    2.50
   1  -9   4   45.30    2.20
  -1  -9  -4   41.20    2.70
  -1  -9  -4   41.10    2.50
   1  -9   4   46.00    3.10
  -1   9  -4   42.60    1.90
   1   9   4   41.00    2.50
  -1   9  -4   44.40    1.90
   1   9   4   43.90    3.50
  -1   9  -4   46.20    4.10
   1   9   4   44.30    3.20
   3  -9   4   31.50    2.70
  -3  -9  -4   34.50    2.30
   3  -9   4   30.00    2.10
  -3  -9  -4   29.00    2.30
   3   9   4   33.00    2.60
  -3   9  -4   28.20    3.40
   3   9   4   29.00    2.80
  -3   9  -4   28.60    3.20
  -3   9  -4   31.20    1.70
   3   9   4   31.70    2.40
   5  -9   4    7.40    1.30
  -5  -9  -4    3.90    1.10
   5  -9   4    4.50    1.50
  -5  -9  -4    5.70    1.40
   5   9   4    4.10    1.30
   5   9   4    5.50    1.40
  -5   9  -4    6.00    1.90
  -5   9  -4    6.60    2.00
   5   9   4    3.90    1.10
  -5   9  -4    5.20    1.20
   7  -9   4   -1.00    1.10
   7  -9   4   -0.20    1.00
  -7  -9  -4    0.40    0.80
   7   9   4    0.00    0.90
   7   9   4    0.20    0.80
  -7   9  -4    1.40    1.40
  -7   9  -4    0.90    1.00
  -7   9  -4    0.50    1.50
  -9  -9  -4   13.50    2.00
   9  -9   4   20.70    2.90
   9  -9   4   21.30    3.10
  -9   9  -4   13.80    2.60
  -9   9  -4   13.90    2.10
   9   9   4   15.20    2.30
  -9   9  -4   13.70    2.80
 -11  -9  -4   30.50    3.00
  11  -9   4   26.00    3.60
  11  -9   4   35.10    3.80
 -11   9  -4   35.50    3.80
 -11   9  -4   37.30    3.40
  11   9   4   32.30    3.30
 -11   9  -4   33.20    3.90
  13  -9   4   14.30    3.00
 -13  -9  -4   19.00    2.60
  13  -9   4   14.10    3.10
 -13   9  -4   15.60    2.90
  13   9   4   16.00    2.70
 -13   9  -4   14.00    2.90
 -13   9  -4   21.50    2.90
  15  -9   4   15.90    3.40
 -15  -9  -4   18.00    2.80
 -15   9  -4   18.20    3.30
  15   9   4   13.10    2.70
 -15   9  -4   25.00    3.40
 -20 -10   4   -0.10    1.20
 -20 -10   4   -1.40    1.20
  20 -10  -4   -2.20    1.60
  20  10  -4   -0.10    1.10
 -20  10   4   -1.60    1.90
 -18 -10   4    0.70    1.40
 -18 -10   4    2.80    1.50
  18 -10  -4    2.90    2.00
 -18  10   4    2.20    2.00
  18  10  -4    2.10    1.20
 -16 -10   4    4.00    1.50
 -16 -10   4    5.50    1.50
  16 -10  -4    4.30    1.90
 -16  10   4    6.90    2.50
  16  10  -4    4.00    1.80
  14 -10  -4    0.20    1.10
 -14 -10   4    0.20    0.80
 -14 -10   4   -0.50    0.80
 -14  10   4   -0.40    1.50
  14  10  -4   -1.10    1.10
  12 -10  -4   19.30    2.40
 -12 -10   4   16.20    2.10
 -12 -10   4   17.80    1.70
 -12  10   4   16.00    3.10
  12  10  -4   20.40    2.90
  10 -10  -4   61.99    2.90
 -10 -10   4   61.69    2.80
  10 -10  -4   59.19    3.70
  10 -10  -4   58.09    3.00
 -10 -10   4   58.99    3.60
 -10  10   4   59.69    4.70
  10  10  -4   58.19    4.40
  -8 -10   4   11.60    1.10
  -8 -10   4   10.30    1.60
   8 -10  -4   11.30    1.10
  -8 -10   4   11.40    1.00
   8 -10  -4   13.30    1.80
   8  10  -4   12.40    1.40
   8  10  -4   13.10    2.60
  -8  10   4   12.70    2.50
  -6 -10   4    8.20    1.40
   6 -10  -4    8.40    1.00
   6 -10  -4    8.40    1.10
   6 -10  -4   12.20    1.60
  -6 -10   4    9.90    0.80
   6  10  -4    6.70    2.00
   6  10  -4   10.30    1.10
  -6  10   4   10.40    2.20
  -4 -10   4    4.70    1.20
   4 -10  -4    3.10    0.70
   4 -10  -4    4.60    1.10
   4  10  -4    2.50    1.50
  -4  10   4    2.10    1.40
   4  10  -4    2.60    0.70
   2 -10  -4    4.60    0.90
   2 -10  -4    5.60    0.90
  -2 -10   4    7.20    0.80
   2 -10  -4    8.30    1.30
  -2 -10   4    5.20    1.20
  -2  10   4    2.60    1.40
   2  10  -4    6.20    0.70
  -2  10   4    8.10    2.20
   2  10  -4    7.10    2.10
   0 -10   4   10.50    1.10
   0 -10  -4    9.90    1.30
   0 -10  -4    8.80    1.20
   0 -10   4   12.10    1.70
   0 -10  -4    9.70    1.40
   0  10  -4    8.80    0.80
   0  10  -4    9.70    2.40
   0  10   4    9.50    2.00
   0  10   4    7.30    1.10
   0  10   4   11.30    2.20
   0  10  -4   10.10    0.90
   2 -10   4    8.00    1.20
  -2 -10  -4   12.30    1.70
   2 -10   4   10.90    1.80
  -2 -10  -4   11.20    1.40
  -2  10  -4   10.60    0.90
   2  10   4   14.50    2.30
  -2  10  -4    9.90    2.50
   2  10   4    8.20    1.80
   2  10   4   12.10    1.50
  -2  10  -4   10.80    1.00
  -4 -10  -4   15.10    1.70
   4 -10   4   15.00    2.30
  -4 -10  -4   17.80    2.00
   4 -10   4   16.00    1.70
  -4  10  -4   14.10    2.80
   4  10   4   17.90    2.20
   4  10   4   14.50    1.80
   4  10   4   19.20    2.40
  -4  10  -4   15.60    2.80
   6 -10   4    1.50    1.10
  -6 -10  -4    0.00    0.80
  -6 -10  -4   -0.10    0.80
   6 -10   4    0.40    1.20
  -6  10  -4   -0.90    1.50
   6  10   4    1.30    1.20
  -6  10  -4    0.10    1.30
   6  10   4    0.50    0.90
  -6  10  -4    0.90    0.90
   6  10   4    0.20    0.90
   8 -10   4   40.30    3.80
   8 -10   4   33.60    3.70
  -8 -10  -4   37.90    2.90
  -8  10  -4   31.60    3.80
  -8  10  -4   32.10    2.90
  -8  10  -4   40.30    4.30
   8  10   4   32.80    3.00
  10 -10   4   12.60    2.70
  10 -10   4    6.00    2.10
 -10 -10  -4    9.60    1.90
 -10  10  -4    9.10    2.40
 -10  10  -4   15.60    3.10
 -10  10  -4    8.60    1.90
  10  10   4   14.80    2.40
  12 -10   4    2.30    1.80
 -12 -10  -4    1.00    1.20
  12 -10   4   -0.30    1.60
 -12  10  -4   -1.40    1.60
 -12  10  -4    0.30    1.60
 -12  10  -4   -1.00    1.10
  12  10   4    0.80    1.30
  14 -10   4    0.80    1.90
 -14 -10  -4    0.00    1.20
  14 -10   4    2.50    2.20
 -14  10  -4    3.30    1.80
 -14  10  -4    1.00    1.80
  14  10   4    0.20    1.20
 -14  10  -4    1.70    2.00
  19 -11  -4   39.70    4.50
 -19 -11   4   41.30    3.50
 -19 -11   4   36.50    3.60
 -19  11   4   47.90    5.60
 -19  11   4   46.30    5.20
  17 -11  -4   81.99    5.70
 -17 -11   4   79.49    4.60
 -17 -11   4   84.09    5.20
 -17  11   4   81.89    6.40
  15 -11  -4   63.39    4.80
 -15 -11   4   67.19    4.40
 -15 -11   4   76.49    4.00
 -15  11   4   60.39    5.60
  15  11  -4   67.59    5.10
 -13 -11   4   35.50    2.40
 -13 -11   4   29.40    2.80
  13 -11  -4   35.50    3.30
 -13  11   4   30.80    4.00
  13  11  -4   38.30    3.80
 -11 -11   4   67.19    4.00
  11 -11  -4   59.19    4.00
 -11 -11   4   62.39    3.00
  11  11  -4   53.99    4.50
 -11  11   4   60.59    5.00
  -9 -11   4   63.69    2.70
   9 -11  -4   66.09    3.90
   9 -11  -4   64.39    3.10
  -9 -11   4   59.59    2.80
  -9 -11   4   54.09    3.50
  -9  11   4   55.89    4.70
   7 -11  -4    9.00    1.20
  -7 -11   4    8.40    1.60
  -7 -11   4    9.80    0.90
  -7 -11   4    9.90    1.00
  -7  11   4    9.70    2.30
   7  11  -4    9.10    2.40
  -5 -11   4   19.10    2.10
   5 -11  -4   20.40    1.60
   5 -11  -4   18.90    1.90
  -5 -11   4   21.50    1.30
   5  11  -4   18.30    3.10
  -5  11   4   24.90    3.50
  -5  11   4   23.40    3.20
   3 -11  -4   43.70    2.40
  -3 -11   4   45.00    2.00
   3 -11  -4   41.40    2.70
  -3 -11   4   43.90    3.00
  -3  11   4   42.70    3.90
  -3  11   4   44.70    4.30
   3  11  -4   47.10    4.50
  -1 -11   4   45.00    3.10
   1 -11  -4   40.90    2.50
  -1 -11   4   38.20    2.10
   1 -11  -4   46.40    2.80
   1 -11  -4   43.60    2.50
   1  11  -4   36.70    4.20
  -1  11   4   37.10    3.50
  -1  11   4   41.10    4.00
  -1 -11  -4   88.69    4.20
   1 -11   4   85.09    3.70
  -1 -11  -4   96.19    4.50
  -1 -11  -4   90.69    4.10
   1 -11   4   82.19    4.70
   1  11   4   95.89    5.30
   1  11   4   79.49    3.90
   1  11   4   77.69    5.30
  -1  11  -4   82.09    5.90
  -3 -11  -4   92.19    4.70
   3 -11   4   90.19    5.10
  -3 -11  -4   93.19    4.30
   3 -11   4   94.99    4.20
   3  11   4   85.29    5.10
  -3  11  -4   84.29    6.10
   3  11   4   89.09    4.40
   3  11   4   90.19    5.50
  -5 -11  -4   29.20    2.60
   5 -11   4   30.10    2.40
  -5 -11  -4   26.90    2.30
   5 -11   4   33.40    3.30
  -5  11  -4   29.80    3.80
   5  11   4   29.00    2.50
  -5  11  -4   23.50    3.70
   5  11   4   28.20    3.00
   5  11   4   27.60    2.80
  -7 -11  -4   37.50    2.90
   7 -11   4   39.00    3.10
   7 -11   4   41.70    4.10
   7 -11   4   41.10    3.80
  -7 -11  -4   37.70    3.20
  -7  11  -4   38.80    4.50
  -7  11  -4   42.20    3.10
   7  11   4   41.70    3.40
   7  11   4   42.40    3.20
  -7  11  -4   43.00    4.40
  -9 -11  -4   10.40    1.90
   9 -11   4    9.50    2.60
   9 -11   4   12.10    2.70
  -9  11  -4   13.70    2.90
   9  11   4    9.70    2.00
  -9  11  -4   17.90    3.50
  -9  11  -4   14.20    2.20
  11 -11   4   26.80    3.90
  11 -11   4   33.40    4.00
 -11 -11  -4   37.60    3.30
 -11  11  -4   38.60    4.60
 -11  11  -4   39.80    3.60
 -11  11  -4   38.90    4.40
  11  11   4   40.00    3.60
  13 -11   4   23.30    3.80
 -13 -11  -4   21.20    2.80
  13 -11   4   24.80    3.70
 -13  11  -4   24.00    3.20
 -13  11  -4   20.40    3.70
  13  11   4   22.50    3.10
 -13  11  -4   30.10    4.00
 -18 -12   4   28.00    2.70
  18 -12  -4   21.60    3.60
 -18 -12   4   17.90    2.80
 -18  12   4   21.20    4.40
 -18  12   4   25.70    4.30
  16 -12  -4   46.20    4.40
 -16 -12   4   55.09    4.10
 -16 -12   4   54.39    3.50
 -16  12   4   59.79    5.80
  16  12  -4   50.79    4.70
 -16  12   4   59.19    6.20
 -14 -12   4   34.40    3.20
  14 -12  -4   27.50    3.30
 -14 -12   4   36.00    2.50
  14  12  -4   26.70    3.60
 -14  12   4   32.70    4.70
 -14  12   4   25.50    4.10
 -12 -12   4  115.29    5.90
  12 -12  -4  111.19    6.00
 -12 -12   4  116.49    4.70
 -12 -12   4  118.69    5.00
  12  12  -4  115.49    6.90
 -12  12   4  113.59    7.70
 -12  12   4   96.29    6.90
 -10 -12   4   69.49    3.10
  10 -12  -4   69.09    4.30
 -10 -12   4   74.09    3.30
 -10 -12   4   73.19    4.30
 -10  12   4   74.09    6.10
  10  12  -4   70.29    5.30
 -10  12   4   72.79    5.60
  -8 -12   4  180.48    5.80
  -8 -12   4  176.68    6.00
   8 -12  -4  163.58    7.20
   8 -12  -4  173.28    6.50
  -8 -12   4  159.18    7.30
   8  12  -4  177.28    9.20
  -8  12   4  178.08    9.50
  -8  12   4  178.68    9.00
  -6 -12   4  137.29    4.80
  -6 -12   4  138.19    6.20
   6 -12  -4  139.39    5.30
   6 -12  -4  135.39    6.00
   6  12  -4  133.29    7.70
  -6  12   4  127.99    7.80
  -6  12   4  120.49    7.30
   4 -12  -4   85.29    3.70
  -4 -12   4   78.59    4.40
  -4 -12   4   84.39    3.20
   4 -12  -4   82.99    4.20
   4  12  -4   85.19    6.00
  -4  12   4   70.19    5.30
  -4  12   4   76.99    5.80
   2 -12  -4  152.78    6.20
  -2 -12   4  149.49    6.70
   2 -12  -4  147.99    5.80
  -2  12   4  137.69    7.50
   2  12  -4  151.58    8.50
  -2  12   4  143.59    8.00
   0 -12  -4  128.69    5.30
   0 -12  -4  125.09    5.60
   0 -12  -4  121.19    5.20
   0 -12   4  126.19    4.80
   0 -12   4  124.59    6.00
   0  12   4  133.29    6.90
   0  12  -4  104.69    7.20
   0  12   4  123.49    7.10
  -2 -12  -4   97.19    4.80
   2 -12   4   98.69    5.40
  -2 -12  -4   94.99    4.60
  -2 -12  -4   98.39    4.50
   2 -12   4   93.69    4.20
   2  12   4   86.79    5.80
   2  12   4   91.59    5.60
   2  12   4   95.89    4.50
  -2  12  -4  111.99    7.10
   4 -12   4   59.49    4.30
  -4 -12  -4   58.29    3.40
  -4 -12  -4   60.29    3.70
   4 -12   4   50.79    3.20
   4  12   4   54.79    3.40
  -4  12  -4   66.49    5.60
   4  12   4   52.69    4.30
   4  12   4   56.29    4.10
  -6 -12  -4  115.49    5.70
   6 -12   4  108.49    5.30
   6 -12   4  107.19    6.30
  -6 -12  -4  101.29    5.10
   6  12   4  105.99    6.00
  -6  12  -4  107.49    5.30
  -6  12  -4  117.69    7.30
  -6  12  -4  106.69    7.30
   6  12   4  113.39    5.50
   8 -12   4   83.29    5.60
  -8 -12  -4   83.69    5.00
   8 -12   4   85.79    6.00
  -8 -12  -4   81.29    4.60
   8  12   4   90.49    5.00
  -8  12  -4   76.79    6.30
  -8  12  -4   77.99    6.00
  -8  12  -4   77.19    4.60
 -10 -12  -4   56.29    4.20
  10 -12   4   61.79    5.10
  10 -12   4   52.29    5.10
 -10 -12  -4   63.49    4.10
 -10  12  -4   55.79    5.40
  10  12   4   52.79    4.10
 -10  12  -4   45.00    5.20
  12 -12   4  107.59    7.00
  12 -12   4   97.19    7.10
 -12 -12  -4  100.19    5.60
  12  12   4   99.69    5.90
 -12  12  -4   85.69    6.90
 -12  12  -4   93.99    6.80
 -17 -13   4   25.90    3.20
  17 -13  -4   28.90    3.90
 -17  13   4   32.20    4.90
 -17  13   4   39.80    5.50
 -15 -13   4   71.59    4.80
  15 -13  -4   70.59    5.20
  15  13  -4   74.29    5.60
 -15  13   4   64.29    6.70
 -15  13   4   67.59    6.30
  13 -13  -4   83.79    5.40
 -13 -13   4   90.29    5.20
 -13  13   4   77.49    7.00
  13  13  -4   92.89    6.30
 -13  13   4   84.39    6.60
  11 -13  -4   88.29    5.20
 -11 -13   4   83.99    4.90
 -11  13   4   92.19    6.70
  11  13  -4   87.09    6.20
 -11  13   4   95.39    7.20
   9 -13  -4  128.19    5.90
  -9 -13   4  106.09    5.60
  -9  13   4  109.69    7.30
  -9  13   4  105.79    7.60
   9  13  -4  107.39    7.10
  -7 -13   4  170.48    7.50
   7 -13  -4  174.98    7.30
  -7  13   4  163.38    9.00
   7  13  -4  163.28    9.10
  -7  13   4  176.68    9.70
   5 -13  -4   75.29    3.70
   5 -13  -4   79.99    4.30
  -5 -13   4   77.99    4.50
  -5  13   4   89.99    6.00
   5  13  -4   72.39    5.90
  -5  13   4   88.69    6.40
   3 -13  -4  134.99    5.40
  -3 -13   4  126.09    6.20
   3 -13  -4  133.49    5.80
   3  13  -4  128.39    8.00
  -3  13   4  130.19    7.80
  -3  13   4  132.29    7.50
   1 -13  -4   98.59    4.80
   1 -13  -4   99.39    4.50
  -1 -13   4   97.59    5.30
  -1  13   4  114.49    6.50
  -1  13   4   93.49    6.50
   1  13  -4   95.19    6.90
  -1 -13  -4  140.89    6.10
  -1 -13  -4  143.69    5.80
  -1 -13  -4  129.49    5.80
   1 -13   4  140.89    5.40
   1 -13   4  136.69    6.70
  -1  13  -4  142.69    8.50
   1  13   4  128.79    7.20
   1  13   4  131.39    7.60
  -3 -13  -4  121.29    5.60
  -3 -13  -4  114.49    5.20
  -3 -13  -4  107.89    5.50
   3 -13   4  118.39    5.10
   3 -13   4  130.19    6.60
   3  13   4  113.49    6.80
   3  13   4  112.29    6.40
  -3  13  -4  120.69    7.80
  -5 -13  -4   52.89    3.60
  -5 -13  -4   50.09    3.50
  -5 -13  -4   53.19    3.30
   5 -13   4   52.99    3.40
   5 -13   4   46.90    4.10
  -5  13  -4   54.69    5.50
   5  13   4   52.49    3.50
   5  13   4   47.00    4.30
   5  13   4   49.40    4.00
   7 -13   4   40.90    4.30
  -7 -13  -4   39.50    3.30
   7 -13   4   43.50    4.20
   7 -13   4   42.60    3.30
  -7 -13  -4   41.60    3.10
   7  13   4   43.90    3.40
  -7  13  -4   42.40    5.10
   9 -13   4   82.59    5.90
  -9 -13  -4   83.69    5.10
  -9 -13  -4   85.89    4.80
   9 -13   4   82.19    6.30
  -9  13  -4   88.79    6.90
   9  13   4   71.89    4.80
  -9  13  -4   85.19    6.40
 -11 -13  -4   75.09    4.70
 -11 -13  -4   73.19    5.00
  11 -13   4   70.59    6.00
  11 -13   4   57.49    5.40
 -11  13  -4   66.99    6.40
  11  13   4   68.09    4.80
  16 -14  -4  108.39    6.80
 -16 -14   4   98.89    6.00
 -16  14   4  110.69    8.00
 -16  14   4  100.49    8.20
 -14 -14   4   68.39    4.70
  14 -14  -4   64.29    5.00
 -14  14   4   68.59    6.90
 -14  14   4   67.79    6.40
  14  14  -4   68.79    5.60
 -12 -14   4   18.50    2.50
  12 -14  -4   21.90    2.90
 -12  14   4   13.00    3.20
  12  14  -4   23.70    3.70
 -12  14   4   21.90    4.30
 -10 -14   4   21.30    2.60
  10 -14  -4   21.00    2.70
 -10  14   4   23.20    4.30
 -10  14   4   20.40    3.80
   8 -14  -4   88.09    4.90
  -8 -14   4   85.99    5.00
  -8  14   4   91.29    7.00
   8  14  -4   86.89    6.60
  -8  14   4   83.89    6.40
  -6 -14   4   81.69    4.70
   6  14  -4   82.29    6.40
  -6  14   4   92.89    6.90
  -6  14   4   79.99    6.10
   4 -14  -4   82.99    4.50
   4 -14  -4   88.19    4.10
  -4 -14   4   78.29    4.70
   4  14  -4   86.89    6.60
  -4  14   4   98.59    6.80
  -4  14   4   85.19    6.10
   2 -14  -4   47.30    3.20
   2 -14  -4   48.60    2.90
  -2 -14   4   49.00    3.60
  -2  14   4   41.60    4.80
  -2  14   4   48.20    4.60
   2  14  -4   42.90    5.10
   0 -14  -4   55.09    3.40
   0 -14   4   56.39    4.00
   0 -14  -4   54.49    3.20
   0  14   4   47.50    4.60
   0  14   4   45.10    4.80
   0  14  -4   57.79    5.70
   2 -14   4   45.00    3.80
  -2 -14  -4   39.50    2.90
  -2 -14  -4   39.50    2.70
  -2 -14  -4   35.90    2.90
   2  14   4   32.90    4.00
   2  14   4   37.10    3.90
  -2  14  -4   40.20    5.00
  -4 -14  -4   75.69    4.50
   4 -14   4   81.89    5.40
  -4 -14  -4   74.49    4.10
  -4 -14  -4   76.39    4.40
  -4  14  -4   91.89    6.90
   4  14   4   80.89    5.40
   4  14   4   85.49    5.90
  -6 -14  -4   46.30    3.20
  -6 -14  -4   47.60    3.50
  -6 -14  -4   41.10    3.30
   6 -14   4   49.00    4.40
   6  14   4   43.80    3.30
  -6  14  -4   40.20    5.20
   8 -14   4    1.70    2.10
  -8 -14  -4    5.40    1.70
  -8 -14  -4    5.10    1.60
  -8 -14  -4    6.90    1.60
   8 -14   4    4.90    2.10
  -8  14  -4    4.80    2.70
   8  14   4    3.50    1.50
 -10 -14  -4   52.39    3.80
  10 -14   4   60.69    5.40
 -10 -14  -4   56.69    4.30
  10 -14   4   53.49    5.30
  10  14   4   55.69    4.20
 -10  14  -4   54.89    6.00
  13 -15  -4    8.70    2.30
 -13 -15   4    9.00    2.20
 -13  15   4    8.00    2.90
  13  15  -4   11.80    3.10
 -13  15   4   10.00    3.50
  11 -15  -4   13.90    2.60
 -11 -15   4   13.20    2.30
 -11  15   4    7.20    3.00
 -11  15   4   13.10    3.30
  11  15  -4   15.00    3.30
  -9 -15   4   23.60    2.70
   9 -15  -4   27.60    3.00
  -9  15   4   36.10    5.00
  -9  15   4   26.00    4.20
   9  15  -4   27.20    4.40
   7 -15  -4   35.70    3.20
  -7 -15   4   35.40    3.30
   7  15  -4   37.20    4.80
  -7  15   4   35.20    5.00
  -7  15   4   41.00    4.80
   5 -15  -4   37.10    3.10
  -5 -15   4   40.60    3.40
   5  15  -4   29.80    4.40
  -5  15   4   35.30    4.50
  -5  15   4   43.80    5.30
   3 -15  -4   19.30    2.20
  -3 -15   4   17.30    2.40
  -3  15   4   13.00    3.20
  -3  15   4   26.40    3.90
   3  15  -4   18.40    3.80
   1 -15  -4   31.40    2.50
  -1 -15   4   31.20    3.20
   1 -15  -4   35.60    2.80
   1  15  -4   44.80    5.40
  -1  15   4   28.80    4.30
  -1  15   4   38.50    4.40
  -1 -15  -4    6.10    1.40
  -1 -15  -4    4.30    1.30
   1 -15   4    5.20    1.80
   1  15   4    9.00    2.80
  -1  15  -4    4.90    2.70
   1  15   4    4.20    1.90
   3 -15   4    1.10    1.50
  -3 -15  -4    2.50    1.20
  -3 -15  -4    1.20    0.90
  -3 -15  -4    1.10    1.00
  -3  15  -4    1.40    2.10
   3  15   4    2.00    2.10
   3  15   4    1.80    1.80
  -5 -15  -4   35.70    3.10
  -5 -15  -4   35.80    2.80
   5 -15   4   31.30    3.70
  -5 -15  -4   31.30    3.00
  -5  15  -4   40.70    5.40
  -7 -15  -4   13.20    2.20
  -7 -15  -4   13.10    1.90
   7 -15   4    8.30    2.60
  -7 -15  -4   13.20    2.30
  -7  15  -4   13.80    3.60
 -10 -16   4    3.90    1.60
  10 -16  -4    3.40    1.80
 -10  16   4    2.00    2.80
 -10  16   4    1.50    2.20
   8 -16  -4    0.00    1.40
  -8 -16   4   -1.00    1.00
  -8  16   4    0.40    2.00
  -8  16   4   -0.30    2.30
   8  16  -4    0.40    2.20
  -6 -16   4    0.30    1.10
   6 -16  -4    4.10    1.50
  -6  16   4    5.10    2.80
  -6  16   4   -0.60    1.70
   6  16  -4    0.30    1.90
  -4 -16   4   -1.30    1.00
   4 -16  -4    1.50    1.10
   4  16  -4    4.80    2.50
  -4  16   4    2.30    2.30
  -4  16   4    0.20    1.80
  -2 -16   4    0.20    1.30
   2 -16  -4   -0.10    0.90
  -2  16   4    0.70    1.70
  -2  16   4    0.20    2.20
   2  16  -4   -2.50    1.70
   0 -16  -4    3.50    1.40
   0 -16  -4    3.70    1.20
   0 -16   4    0.00    1.40
   0  16   4    2.20    2.20
   0  16   4    1.50    1.80
   0  16  -4    0.60    2.20
  -2 -16  -4    1.90    1.10
   2 -16   4   -1.00    1.20
  -2 -16  -4    0.00    1.00
  -2  16  -4   -1.20    2.10
   2  16   4    2.60    2.30
   2  16   4    1.50    1.80
   4 -16   4   -0.50    1.60
  -4 -16  -4   -0.90    1.00
  -4 -16  -4   -0.60    0.90
  -4 -16  -4   -1.00    0.90
  -4  16  -4    2.00    2.80
   4  16   4    3.60    2.10
   5 -17  -4    3.00    1.60
  -5 -17   4    2.50    1.60
   5  17  -4    1.90    2.40
  -5  17   4   -0.20    2.10
  -5  17   4    1.30    2.50
   3 -17  -4   17.80    2.40
  -3 -17   4   21.30    3.00
  -3  17   4   24.70    4.60
   3  17  -4   13.30    3.80
  -3  17   4   23.70    4.20
   1 -17  -4   16.20    2.20
  -1 -17   4   21.50    3.00
   1  17  -4   15.10    4.00
  -1  17   4   14.40    3.30
  -1  17   4   14.90    3.70
  26   0  -5   -0.40    1.10
 -26   0   5    0.30    1.90
  24   0  -5   -0.20    1.00
 -24   0   5   -1.10    1.60
 -22   0   5   -0.50    1.50
  22   0  -5    1.30    1.10
 -22   0   5    1.90    1.50
 -20   0   5    0.30    1.20
 -20   0   5    1.60    1.50
  20   0  -5    0.00    0.80
 -18   0   5    0.70    1.10
 -18   0   5    0.50    1.20
  18   0  -5   -0.30    1.10
  18   0  -5    0.70    0.80
  16   0  -5    0.20    1.00
  16   0  -5   -0.50    0.40
 -16   0   5   -0.40    0.80
  14   0  -5   -0.60    0.60
  14   0  -5   -0.10    0.40
 -14   0   5    1.30    0.90
 -12   0   5   -0.10    0.50
  12   0  -5   -0.70    0.30
  12   0  -5   -0.50    0.70
 -12   0   5   -0.20    0.70
 -10   0   5    0.70    0.80
 -10   0   5    0.50    0.40
 -10   0   5    0.20    0.40
  10   0  -5    0.30    0.60
  -8   0   5   -0.20    0.60
  -8   0   5    1.30    0.40
  -8   0   5    0.10    0.30
   8   0  -5    0.70    0.60
   8   0  -5    0.50    0.40
  -8   0   5    0.50    0.30
  -8   0   5   -0.30    0.50
   6   0  -5   -1.20    0.50
   6   0  -5   -0.70    0.30
  -6   0   5   -1.10    0.20
  -6   0   5   -1.00    0.30
   6   0  -5   -1.00    0.20
  -6   0   5   -0.60    0.60
   4   0  -5    0.10    0.30
   4   0  -5   -0.40    0.30
   4   0  -5   -0.50    0.50
  -4   0   5   -0.40    0.30
  -4   0   5   -0.30    0.20
  -4   0   5   -0.30    0.50
   4   0  -5   -0.10    0.30
  -4   0   5   -0.10    0.30
   2   0  -5    0.10    0.30
  -2   0   5    0.00    0.50
   2   0  -5    0.10    0.50
  -2   0   5   -0.60    0.40
   2   0  -5    0.00    0.30
  -2   0   5   -0.20    0.30
   2   0  -5   -0.50    0.40
  -2   0   5   -0.10    0.50
   0   0   5    0.80    0.80
   0   0  -5    1.30    0.60
   0   0  -5    0.50    0.40
   0   0   5    0.40    0.50
   0   0   5    0.00    0.40
   0   0   5   -0.10    0.60
   0   0  -5    1.30    0.60
  -2   0  -5    0.60    0.60
   2   0   5   -0.60    0.70
   2   0   5   -1.10    0.40
   2   0   5   -0.80    0.60
   2   0   5    0.50    0.60
  -2   0  -5   -0.20    0.50
   4   0   5    0.30    0.50
  -4   0  -5    0.70    0.70
   4   0   5    0.20    0.60
   4   0   5    0.00    0.90
   4   0   5    0.00    0.90
  -4   0  -5    1.50    0.60
  -6   0  -5   -0.50    0.60
   6   0   5   -0.70    0.80
  -6   0  -5   -0.10    0.40
   6   0   5    0.20    0.40
   8   0   5   -1.20    0.80
  -8   0  -5   -0.30    0.80
  10   0   5   -0.40    1.10
 -10   0  -5    0.40    1.00
 -12   0  -5    0.50    1.10
  12   0   5   -0.20    1.20
 -14   0  -5    0.20    1.40
 -16   0  -5   -1.50    1.20
  16   0   5    1.80    1.50
  18   0   5    2.10    1.80
 -18   0  -5    2.40    1.80
  25  -1  -5    5.90    1.60
 -25  -1   5    1.10    2.00
  25   1  -5    1.30    1.30
 -25   1   5    2.20    1.90
 -23  -1   5   16.40    2.60
  23  -1  -5   19.30    2.20
 -23  -1   5   12.90    2.90
  23   1  -5   16.80    2.30
 -23   1   5    8.90    2.50
 -23   1   5   11.60    2.40
 -21  -1   5    1.50    1.40
  21  -1  -5   -0.20    0.90
 -21  -1   5   -1.10    1.20
  21   1  -5   -1.40    0.70
 -21   1   5   -0.90    1.40
 -21   1   5    1.00    1.40
 -19  -1   5  313.97   12.60
  19  -1  -5  327.27   12.80
  19  -1  -5  314.87   11.00
 -19  -1   5  314.57   12.10
  19   1  -5  320.37   11.20
 -19   1   5  313.07   12.30
 -19   1   5  311.87   12.70
  17  -1  -5    2.30    1.30
  17  -1  -5    1.80    0.80
 -17  -1   5    1.70    1.20
 -17  -1   5    3.00    1.30
  17   1  -5    2.30    0.90
 -17   1   5    1.40    1.20
  15  -1  -5  123.19    4.70
 -15  -1   5  121.99    5.80
  15  -1  -5  112.79    5.70
 -15  -1   5  115.59    5.70
 -15   1   5  125.79    6.10
  15   1  -5  122.79    5.80
  15   1  -5  119.49    4.80
  13  -1  -5   32.70    1.80
  13  -1  -5   33.80    2.60
 -13  -1   5   42.50    3.00
  13   1  -5   35.70    2.00
 -13   1   5   37.00    2.90
  13   1  -5   34.60    2.60
 -11  -1   5   74.59    4.00
  11  -1  -5   75.99    2.80
 -11  -1   5   71.99    3.00
  11  -1  -5   72.19    3.60
 -11  -1   5   74.69    3.30
  11   1  -5   71.19    4.00
 -11   1   5   75.09    2.80
 -11   1   5   80.99    3.10
  11   1  -5   75.69    3.60
 -11   1   5   72.79    4.10
  11   1  -5   71.79    3.00
  -9  -1   5   61.79    2.60
   9  -1  -5   61.59    2.90
  -9  -1   5   63.59    2.60
  -9  -1   5   65.99    2.70
   9   1  -5   64.29    2.90
  -9   1   5   61.59    2.80
  -9   1   5   57.29    3.50
  -9   1   5   63.19    2.50
   9   1  -5   62.59    3.50
  -9   1   5   67.09    2.40
  -7  -1   5    2.70    0.50
  -7  -1   5    2.80    0.80
   7  -1  -5    2.40    0.60
   7  -1  -5    2.80    0.40
  -7  -1   5    2.40    0.50
   7   1  -5    2.30    0.80
  -7   1   5    2.80    0.40
   7   1  -5    3.90    0.60
  -7   1   5    1.90    0.80
  -7   1   5    3.70    1.00
   7   1  -5    2.90    0.60
  -7   1   5    2.30    0.50
   5  -1  -5  143.19    4.60
  -5  -1   5  142.29    4.60
  -5  -1   5  143.99    5.60
  -5  -1   5  140.39    4.50
  -5  -1   5  138.59    4.90
   5  -1  -5  141.39    4.80
   5   1  -5  142.69    4.80
  -5   1   5  143.49    5.60
   5   1  -5  140.29    5.70
  -5   1   5  135.39    4.70
   5   1  -5  140.39    4.60
  -5   1   5  133.19    4.70
  -5   1   5  140.49    4.80
  -5   1   5  150.18    5.70
   3  -1  -5  171.68    5.70
  -3  -1   5  168.68    5.30
   3  -1  -5  165.88    6.20
   3  -1  -5  167.28    5.60
  -3  -1   5  162.88    5.80
  -3  -1   5  165.88    6.20
   3  -1  -5  164.38    5.40
  -3   1   5  161.58    6.10
   3   1  -5  158.88    6.20
  -3   1   5  167.98    6.00
   3   1  -5  162.98    5.60
  -3   1   5  175.78    5.70
  -3   1   5  167.88    6.20
   3   1  -5  167.88    5.20
  -3   1   5  164.98    5.50
   3   1  -5  164.98    5.30
  -3   1   5  158.88    5.80
  -1  -1   5  140.39    5.40
  -1  -1   5  137.19    4.80
   1  -1  -5  127.09    5.10
   1  -1  -5  144.59    5.30
   1  -1  -5  145.59    5.40
  -1  -1   5  138.09    5.50
  -1  -1   5  127.99    5.20
   1  -1  -5  135.49    4.80
  -1   1   5  139.79    5.20
   1   1  -5  137.89    4.70
  -1   1   5  137.29    5.50
  -1   1   5  142.59    5.00
  -1   1   5  140.79    5.40
  -1   1   5  132.49    5.20
   1   1  -5  139.69    5.10
   1   1  -5  131.79    5.30
  -1  -1  -5  164.58    6.30
   1  -1   5  163.38    6.50
   1  -1   5  160.98    5.80
  -1  -1  -5  158.28    5.80
  -1  -1  -5  166.68    6.50
  -1  -1  -5  155.98    5.60
   1  -1   5  163.48    6.00
  -1   1  -5  151.98    5.60
   1   1   5  150.68    6.30
   1   1   5  156.28    5.60
  -1   1  -5  159.78    5.90
   1   1   5  163.48    5.90
   1   1   5  158.78    6.60
   3  -1   5  531.05   17.50
   3  -1   5  544.25   16.40
   3  -1   5  515.85   17.70
  -3  -1  -5  518.95   16.70
  -3  -1  -5  530.95   16.00
   3  -1   5  530.25   16.50
  -3   1  -5  530.95   16.60
   3   1   5  546.65   16.10
  -3   1  -5  499.45   16.40
   3   1   5  508.15   17.60
   5  -1   5  345.37   12.50
   5  -1   5  339.77   10.90
   5  -1   5  346.77   12.70
  -5  -1  -5  315.07   11.40
   5  -1   5  328.57   10.70
  -5   1  -5  332.77   10.80
  -5   1  -5  333.97   11.50
   5   1   5  314.27   12.40
  -7  -1  -5   16.10    1.90
   7  -1   5   15.20    2.40
   7  -1   5   17.80    1.50
   7   1   5   14.10    2.30
  -7   1  -5   15.20    1.40
  -7   1  -5   15.30    1.90
   9  -1   5   33.40    3.50
  -9  -1  -5   29.00    2.70
   9  -1   5   28.60    1.90
   9   1   5   28.00    3.30
  -9   1  -5   27.10    2.70
  -9   1  -5   31.90    1.90
  11  -1   5   -0.70    1.00
 -11  -1  -5    1.90    1.20
  11   1   5    0.90    1.30
 -11   1  -5   -0.60    0.80
  13  -1   5   -0.10    1.30
 -13  -1  -5   -0.20    1.10
 -13   1  -5   -0.20    1.10
  15  -1   5   16.50    3.20
 -15  -1  -5   24.00    3.20
  15   1   5   14.70    2.80
 -15   1  -5   10.30    2.40
  17  -1   5    4.00    1.80
 -17  -1  -5    4.20    1.90
 -17   1  -5    1.70    1.80
  17   1   5    0.80    1.40
 -26  -2   5   10.60    3.20
 -26   2   5   20.60    3.80
  26   2  -5   16.30    2.50
 -24  -2   5   18.10    3.30
 -24   2   5   18.50    3.50
  24   2  -5   12.90    2.20
 -24   2   5   15.30    2.80
 -22  -2   5   73.19    5.40
  22  -2  -5   79.79    4.20
 -22  -2   5   69.39    4.70
 -22   2   5   78.59    5.70
  22   2  -5   79.49    4.50
 -22   2   5   79.59    5.30
 -20  -2   5   85.29    5.00
 -20  -2   5   82.19    5.40
  20  -2  -5   89.09    4.30
  20  -2  -5   74.99    5.30
 -20   2   5   92.49    5.80
 -20   2   5   83.19    5.30
  20   2  -5   82.39    4.40
 -18  -2   5   69.89    4.60
  18  -2  -5   68.29    4.60
 -18  -2   5   67.39    4.30
  18  -2  -5   67.99    3.40
 -18   2   5   72.89    4.80
  18   2  -5   69.69    3.70
  16  -2  -5   14.80    1.40
 -16  -2   5   15.70    2.10
  16  -2  -5   13.70    2.10
 -16  -2   5   12.80    2.00
  16   2  -5   14.90    1.60
 -16   2   5   14.30    2.30
 -14  -2   5  223.08    8.60
  14  -2  -5  218.88    8.70
  14  -2  -5  224.18    7.40
 -14  -2   5  223.38    8.80
  14   2  -5  222.78    7.80
 -14   2   5  232.58    8.30
 -14   2   5  226.68    9.20
  14   2  -5  209.98    8.50
  12  -2  -5   91.39    4.40
  12  -2  -5   88.99    3.30
 -12  -2   5   89.29    3.80
  12   2  -5   85.49    4.60
 -12   2   5   97.39    4.00
  12   2  -5   95.79    3.80
  12   2  -5   96.49    4.30
 -12   2   5   89.09    4.80
  10  -2  -5  254.67    8.70
 -10  -2   5  255.87    8.30
 -10  -2   5  253.97    8.30
 -10  -2   5  256.27    8.50
 -10   2   5  254.77    7.90
  10   2  -5  245.88    9.30
 -10   2   5  243.38    7.70
 -10   2   5  256.37    9.60
  10   2  -5  247.58    8.60
   8  -2  -5   73.39    3.10
  -8  -2   5   69.89    2.90
  -8  -2   5   67.09    2.90
  -8  -2   5   71.49    2.70
  -8   2   5   71.39    2.40
  -8   2   5   69.89    2.40
   8   2  -5   65.89    2.90
  -8   2   5   68.79    3.80
   8   2  -5   70.39    3.80
  -6  -2   5    0.00    0.50
   6  -2  -5   -0.10    0.30
   6  -2  -5    0.30    0.20
  -6  -2   5    0.90    0.30
  -6  -2   5    0.30    0.40
   6  -2  -5    0.60    0.60
  -6   2   5    0.00    0.60
  -6   2   5    0.40    0.40
   6   2  -5    0.10    0.30
   6   2  -5   -1.30    0.40
  -6   2   5    0.50    0.30
   6   2  -5    0.30    0.30
  -6   2   5    0.10    0.30
  -4  -2   5  101.79    3.30
   4  -2  -5  108.29    3.60
   4  -2  -5   99.69    3.80
  -4  -2   5   96.99    4.40
  -4  -2   5  103.49    3.30
  -4  -2   5  102.99    3.90
   4  -2  -5   93.49    3.60
   4  -2  -5  102.09    4.40
  -4   2   5   97.39    4.40
  -4   2   5  102.69    4.40
  -4   2   5  103.29    3.80
  -4   2   5   97.19    3.60
   4   2  -5   95.79    4.40
  -4   2   5  100.49    3.70
   4   2  -5   96.29    3.70
   4   2  -5   99.39    3.30
  -4   2   5  101.59    3.80
   2  -2  -5  212.98    7.20
   2  -2  -5  235.58    7.80
   2  -2  -5  224.58    7.40
  -2  -2   5  219.08    7.00
   2  -2  -5  223.08    7.60
  -2  -2   5  230.88    8.20
  -2  -2   5  219.58    7.70
   2   2  -5  215.48    8.00
   2   2  -5  222.28    6.90
  -2   2   5  220.18    7.70
  -2   2   5  218.88    7.80
   2   2  -5  226.28    7.50
  -2   2   5  229.78    7.90
  -2   2   5  226.98    7.80
  -2   2   5  233.48    7.50
   0  -2   5    5.30    1.10
   0  -2   5    5.00    1.10
   0  -2   5    5.20    0.80
   0  -2  -5    6.20    0.90
   0  -2  -5    5.30    1.10
   0  -2  -5    5.80    1.10
   0   2  -5    4.60    0.70
   0   2  -5    5.20    1.10
   0   2  -5    5.80    1.00
   0   2   5    5.50    1.20
   0   2   5    4.40    0.80
   0   2   5    5.20    0.90
   0   2   5    4.50    0.80
   2  -2   5  249.08    9.60
   2  -2   5  262.27    9.50
   2  -2   5  258.27    8.70
   2  -2   5  259.67    8.90
   2  -2   5  272.57    9.10
  -2  -2  -5  235.58    8.70
   2   2   5  258.57    8.30
   2   2   5  247.48    8.20
  -2   2  -5  251.87    8.90
  -2   2  -5  255.67    8.60
   2   2   5  256.97    9.60
   4  -2   5   -0.70    0.60
   4  -2   5    0.00    0.60
  -4  -2  -5   -0.10    0.60
   4  -2   5    1.10    0.80
   4  -2   5   -0.70    0.80
  -4   2  -5   -0.20    0.50
  -4   2  -5   -0.20    0.70
   4   2   5    0.40    0.40
   4   2   5    0.30    0.90
   6  -2   5   17.80    1.60
   6  -2   5   14.80    2.30
  -6  -2  -5   12.90    1.70
   6  -2   5   15.00    2.30
  -6   2  -5   17.90    1.90
  -6   2  -5   17.20    1.70
   6   2   5   15.60    2.30
   8  -2   5   19.10    2.70
  -8  -2  -5   12.30    1.90
   8  -2   5   14.40    1.50
   8   2   5   15.80    2.50
  -8   2  -5   14.00    1.60
  -8   2  -5   15.10    2.00
  10  -2   5   27.80    3.40
 -10  -2  -5   28.30    2.80
 -10   2  -5   26.50    2.20
 -10   2  -5   30.30    2.90
 -12  -2  -5   14.70    2.30
  12  -2   5   12.30    2.70
 -12   2  -5   15.10    1.70
 -12   2  -5   15.30    2.40
  12   2   5    8.50    2.00
  14  -2   5   23.70    3.60
 -14  -2  -5   25.40    3.20
 -14   2  -5   22.80    3.10
  14   2   5   17.70    2.90
 -16  -2  -5   13.30    2.70
  16  -2   5    9.50    2.80
 -16   2  -5   10.20    2.50
  16   2   5   12.60    2.70
  18  -2   5   14.70    3.00
 -18  -2  -5   17.70    3.20
  18   2   5   17.30    3.20
 -18   2  -5   14.80    3.10
 -25  -3   5    6.60    2.60
  25   3  -5    6.90    1.80
 -25   3   5   12.90    3.10
 -23  -3   5   54.59    4.80
 -23   3   5   36.60    4.30
  23   3  -5   48.10    3.50
 -23   3   5   53.49    4.50
 -21  -3   5  165.18    7.60
  21  -3  -5  183.88    8.90
  21  -3  -5  165.78    6.70
 -21  -3   5  153.98    8.10
 -21   3   5  161.18    8.50
  21   3  -5  164.28    7.10
 -21   3   5  154.48    8.10
  19  -3  -5   74.39    3.70
  19  -3  -5   69.49    4.90
 -19  -3   5   72.79    4.50
 -19  -3   5   70.99    4.80
  19   3  -5   75.79    4.10
 -19   3   5   78.19    5.00
 -17  -3   5  144.69    6.80
  17  -3  -5  150.28    5.60
 -17  -3   5  155.38    7.00
  17  -3  -5  152.58    7.20
  17   3  -5  132.29    5.90
 -17   3   5  154.48    7.40
 -15  -3   5  147.79    6.60
  15  -3  -5  147.69    6.70
  15  -3  -5  147.29    5.20
 -15  -3   5  151.98    6.60
 -15   3   5  147.59    5.90
 -15   3   5  145.39    7.00
 -15   3   5  149.29    6.00
  15   3  -5  131.49    6.40
  15   3  -5  142.49    5.80
 -13  -3   5  148.99    5.80
 -13  -3   5  145.29    6.10
  13  -3  -5  150.08    5.00
  13  -3  -5  156.28    6.40
  13   3  -5  156.38    6.70
 -13   3   5  157.08    5.70
 -13   3   5  135.79    5.40
 -13   3   5  160.58    7.10
  13   3  -5  143.39    5.60
 -11  -3   5   80.09    3.40
 -11  -3   5   75.59    3.60
 -11  -3   5   67.39    3.20
  11  -3  -5   74.49    3.70
  11  -3  -5   75.09    2.60
 -11   3   5   75.39    4.30
 -11   3   5   78.39    3.00
  11   3  -5   67.99    4.00
  -9  -3   5  197.48    6.70
   9  -3  -5  206.38    7.20
  -9  -3   5  205.28    7.00
  -9   3   5  199.08    8.10
   9   3  -5  211.08    8.00
   9   3  -5  200.98    7.00
  -7  -3   5  729.33   22.90
   7  -3  -5  764.52   23.10
  -7  -3   5  751.52   22.30
   7   3  -5  754.62   22.60
   7   3  -5  780.02   24.10
  -7   3   5  762.92   24.10
   7   3  -5  792.82   23.00
   5  -3  -5  167.38    6.60
   5  -3  -5  164.78    5.90
  -5  -3   5  170.78    5.20
  -5  -3   5  174.58    6.00
   5  -3  -5  171.08    5.40
  -5  -3   5  172.38    5.20
  -5   3   5  172.28    5.60
   5   3  -5  171.08    5.30
   5   3  -5  171.48    5.90
   5   3  -5  165.28    6.80
  -5   3   5  171.68    5.70
  -5   3   5  169.48    6.70
  -3  -3   5  134.99    5.60
   3  -3  -5  134.99    4.80
   3  -3  -5  130.89    4.80
  -3  -3   5  127.79    4.90
   3  -3  -5  138.49    5.40
  -3  -3   5  132.19    4.20
  -3   3   5  129.39    4.90
  -3   3   5  132.49    4.70
   3   3  -5  130.29    4.00
  -3   3   5  131.49    4.90
  -3   3   5  123.29    5.30
   3   3  -5  133.99    4.80
   3   3  -5  131.99    4.10
   3   3  -5  128.69    5.50
   1  -3  -5  204.38    7.30
   1  -3  -5  213.98    7.20
  -1  -3   5  196.78    7.70
  -1  -3   5  194.08    7.30
  -1  -3   5  203.48    6.50
   1  -3  -5  209.78    7.40
   1  -3  -5  198.28    7.00
  -1   3   5  199.58    7.40
   1   3  -5  201.28    6.40
   1   3  -5  192.88    7.60
  -1   3   5  200.98    7.20
  -1  -3  -5   21.50    1.60
   1  -3   5   20.90    2.00
   1  -3   5   21.70    1.90
   1  -3   5   20.90    2.00
   1  -3   5   20.10    1.50
   1   3   5   21.00    1.50
   1   3   5   19.10    1.50
  -1   3  -5   19.60    2.00
  -1   3  -5   21.30    1.50
   1   3   5   22.30    2.10
   3  -3   5  110.79    4.50
   3  -3   5  114.19    5.00
   3  -3   5   99.19    5.30
   3  -3   5  104.89    4.80
   3  -3   5  111.89    5.30
  -3  -3  -5  109.59    4.70
   3   3   5  102.19    5.30
   3   3   5  107.69    3.90
  -3   3  -5  105.09    4.40
  -3   3  -5  117.19    5.00
  -3   3  -5  114.79    4.60
   3   3   5  102.99    3.90
   5  -3   5  120.99    6.10
   5  -3   5  120.09    5.90
  -5  -3  -5  114.19    5.20
   5  -3   5  127.39    5.40
   5  -3   5  124.69    5.20
  -5   3  -5  107.39    5.00
  -5   3  -5  122.29    5.30
   5   3   5  109.89    5.90
   7  -3   5   58.59    4.20
  -7  -3  -5   68.09    3.90
   7  -3   5   66.49    4.60
  -7   3  -5   64.29    3.80
  -7   3  -5   70.09    3.70
   9  -3   5   43.20    4.00
  -9  -3  -5   43.30    3.30
  -9   3  -5   44.40    3.30
   9   3   5   36.20    3.30
  -9   3  -5   44.60    3.00
 -11  -3  -5    8.80    2.00
  11  -3   5   10.10    2.50
 -11   3  -5    9.80    1.60
 -11   3  -5   10.10    2.00
  11   3   5    9.90    2.10
  13  -3   5   57.69    5.10
 -13  -3  -5   64.89    4.60
 -13   3  -5   64.29    3.70
  13   3   5   59.89    4.50
 -13   3  -5   55.59    4.40
 -15  -3  -5   42.40    4.00
  15  -3   5   35.90    4.40
 -15   3  -5   39.50    4.00
  15   3   5   39.00    4.00
 -17  -3  -5   36.80    4.10
  17  -3   5   37.80    4.70
  17   3   5   31.70    3.90
 -17   3  -5   40.70    4.30
 -24  -4   5   51.99    4.90
 -24   4   5   58.39    5.00
  24   4  -5   61.59    4.20
 -24   4   5   56.39    5.30
  22  -4  -5   53.29    4.90
 -22  -4   5   49.40    4.40
 -22  -4   5   51.99    3.90
 -22   4   5   45.90    4.40
  22   4  -5   55.59    3.80
 -22   4   5   49.60    4.80
 -20  -4   5   58.49    4.00
 -20  -4   5   59.89    4.50
  20  -4  -5   56.09    4.60
  20  -4  -5   56.29    3.20
 -20   4   5   57.19    4.60
  20   4  -5   57.09    3.60
  18  -4  -5  175.78    8.20
  18  -4  -5  160.78    6.20
 -18  -4   5  172.08    7.70
 -18  -4   5  160.58    7.40
  18   4  -5  164.18    6.90
 -18   4   5  170.08    8.20
 -16  -4   5   64.19    4.00
 -16  -4   5   62.29    4.00
  16  -4  -5   65.09    4.20
  16  -4  -5   65.79    2.90
  16   4  -5   63.69    3.40
  16   4  -5   58.99    3.90
 -16   4   5   55.29    3.20
 -16   4   5   54.29    4.20
 -16   4   5   71.79    3.60
  14  -4  -5   87.19    4.60
  14  -4  -5   79.69    3.10
 -14  -4   5   82.19    4.20
 -14  -4   5   83.99    4.00
 -14   4   5   90.99    3.80
 -14   4   5   72.99    3.50
  14   4  -5   87.39    4.70
  14   4  -5   87.09    3.90
 -14   4   5   84.99    5.00
 -12  -4   5  118.29    4.80
  12  -4  -5  110.39    3.60
 -12  -4   5  112.39    4.60
  12  -4  -5  107.69    5.00
 -12   4   5   99.09    3.80
  12   4  -5  106.69    5.40
 -12   4   5  118.19    5.80
 -10  -4   5  159.58    5.90
 -10  -4   5  161.18    5.70
 -10  -4   5  159.38    5.90
  10  -4  -5  160.98    6.20
  10   4  -5  165.98    7.00
 -10   4   5  156.68    7.00
  -8  -4   5   50.69    2.00
  -8  -4   5   45.30    2.40
   8  -4  -5   42.50    2.40
  -8  -4   5   47.80    2.20
  -8   4   5   47.30    3.20
   8   4  -5   50.59    3.20
  -6  -4   5  206.38    6.50
  -6  -4   5  209.98    7.20
  -6  -4   5  219.18    6.40
  -6   4   5  206.38    8.10
   6   4  -5  211.58    8.20
   4  -4  -5  313.67   10.10
   4  -4  -5  303.97    9.80
   4  -4  -5  316.37    9.80
   4  -4  -5  311.37   10.80
  -4  -4   5  316.07   10.20
   4  -4  -5  310.67    9.90
   4   4  -5  304.37   11.00
  -4   4   5  304.47   10.80
  -4   4   5  307.27    9.60
   2  -4  -5  141.29    5.30
   2  -4  -5  146.49    5.50
  -2  -4   5  141.99    5.40
   2  -4  -5  134.79    4.90
   2  -4  -5  129.69    5.20
   2  -4  -5  140.49    5.60
  -2   4   5  133.29    5.00
  -2   4   5  131.59    5.50
   2   4  -5  140.89    4.40
   0  -4  -5  384.96   12.40
   0  -4  -5  393.36   13.00
   0  -4   5  389.66   12.90
   0  -4  -5  407.16   12.90
   0  -4  -5  385.46   12.30
   0  -4  -5  365.06   12.40
   0   4  -5  384.76   11.80
   0   4   5  369.76   12.40
   0   4  -5  365.36   13.20
   0   4  -5  388.56   11.80
   0   4   5  376.36   12.40
  -2  -4  -5    1.40    0.60
   2  -4   5    0.40    0.70
  -2  -4  -5    1.30    0.70
   2   4   5   -0.90    0.50
   2   4   5    0.80    0.60
  -2   4  -5    0.00    0.50
  -2   4  -5    0.30    0.50
  -2   4  -5    0.90    0.90
   4  -4   5  129.99    6.00
   4  -4   5  121.09    6.10
  -4  -4  -5  119.89    5.20
  -4   4  -5  124.49    5.70
   4   4   5  126.69    4.40
   4   4   5  119.89    5.50
   4   4   5  121.19    4.30
  -4   4  -5  122.59    5.10
   6  -4   5  186.88    8.50
   6  -4   5  184.78    8.20
  -6  -4  -5  200.88    7.70
   6   4   5  182.48    7.80
  -6   4  -5  193.38    7.50
  -6   4  -5  189.08    7.70
  -8  -4  -5   61.59    3.90
   8  -4   5   65.79    4.70
   8  -4   5   65.89    4.60
  -8   4  -5   62.49    3.90
   8   4   5   62.09    4.10
  -8   4  -5   62.29    3.90
  10  -4   5   26.10    3.40
  10  -4   5   24.30    3.10
 -10  -4  -5   24.00    2.60
 -10   4  -5   22.00    2.60
  10   4   5   26.80    3.00
 -10   4  -5   24.40    2.50
 -12  -4  -5   90.89    5.50
  12  -4   5   94.09    6.50
 -12   4  -5  101.99    5.80
  12   4   5  106.79    6.10
 -12   4  -5  107.39    5.30
  14  -4   5   42.80    4.70
 -14  -4  -5   49.99    4.00
 -14   4  -5   38.10    3.80
  14   4   5   43.10    4.10
  16  -4   5   32.10    4.30
 -16  -4  -5   29.70    3.60
  16   4   5   28.70    3.70
 -16   4  -5   29.90    3.70
 -18  -4  -5   10.00    2.50
  18  -4   5   10.00    3.10
  18   4   5    7.90    2.30
 -18   4  -5    8.70    2.60
 -25  -5   5   37.10    4.40
 -25   5   5   42.30    5.00
  25   5  -5   49.30    3.90
 -25   5   5   46.00    4.70
 -23  -5   5   53.69    4.70
  23  -5  -5   55.29    5.20
  23   5  -5   56.89    4.00
 -23   5   5   54.29    5.20
 -23   5   5   47.90    4.70
 -21  -5   5    8.20    2.20
 -21  -5   5    9.90    2.00
  21  -5  -5   14.00    2.90
  21   5  -5    8.00    1.70
 -21   5   5    6.90    2.30
 -19  -5   5    9.50    2.00
  19  -5  -5    9.40    1.30
  19  -5  -5    5.60    2.00
 -19  -5   5   10.00    2.20
 -19   5   5   11.80    2.50
  19   5  -5   10.60    1.80
 -17  -5   5   31.40    3.00
  17  -5  -5   31.70    2.00
  17  -5  -5   28.00    3.10
 -17  -5   5   33.10    3.00
  17   5  -5   31.20    3.00
 -17   5   5   29.20    3.50
  17   5  -5   37.90    2.70
 -15  -5   5    0.60    0.90
 -15  -5   5    1.20    1.00
  15  -5  -5    2.30    0.60
  15  -5  -5    1.80    1.20
  15   5  -5    2.60    1.00
 -15   5   5    1.10    0.70
  15   5  -5    2.40    1.20
 -15   5   5    2.60    1.50
 -13  -5   5   80.89    4.00
  13  -5  -5   83.09    2.80
  13  -5  -5   79.19    4.30
 -13  -5   5   82.29    4.10
  13   5  -5   86.69    4.80
 -13   5   5   77.09    2.90
 -13   5   5   80.89    5.00
  13   5  -5   83.49    3.90
 -11  -5   5  302.87    9.90
 -11  -5   5  286.17    9.70
 -11  -5   5  280.47    9.50
  11  -5  -5  295.17   10.20
  11   5  -5  275.17   10.80
 -11   5   5  276.37   11.10
  -9  -5   5  949.11   29.20
  -9  -5   5  943.01   28.50
  -9  -5   5  968.70   28.80
   9  -5  -5  987.30   29.40
  -9   5   5  982.10   30.70
   9   5  -5  975.60   30.40
  -7  -5   5   12.40    0.80
   7  -5  -5   16.20    1.40
  -7  -5   5   14.10    1.30
  -7  -5   5   11.10    0.90
   7   5  -5   14.00    1.90
  -7   5   5   14.90    2.00
   5  -5  -5   74.69    3.40
  -5  -5   5   77.89    3.40
   5  -5  -5   74.09    2.90
   5  -5  -5   81.39    3.10
   5   5  -5   81.39    4.30
  -5   5   5   70.49    4.10
  -5   5   5   77.49    2.60
   3  -5  -5  286.97    9.10
  -3  -5   5  259.57    9.20
   3  -5  -5  261.17    8.80
   3  -5  -5  263.87    9.00
  -3   5   5  270.87    9.70
   3   5  -5  261.27   10.20
  -3   5   5  275.17    8.60
   1  -5  -5  399.46   12.80
   1  -5  -5  380.86   12.60
   1  -5  -5  377.96   12.30
   1  -5  -5  370.06   12.00
  -1  -5   5  373.16   12.60
  -1   5   5  372.16   12.10
   1   5  -5  365.46   13.30
   1   5  -5  382.46   11.30
   1   5  -5  379.76   11.40
  -1   5   5  365.46   12.60
   1  -5   5   42.90    2.80
  -1  -5  -5   39.40    2.50
  -1  -5  -5   40.80    2.30
  -1  -5  -5   39.30    2.40
  -1   5  -5   46.20    3.20
   1   5   5   41.40    2.50
  -1   5  -5   39.20    2.10
  -1   5  -5   41.40    2.00
   1   5   5   40.00    2.50
   3  -5   5  546.85   18.40
   3  -5   5  559.84   18.80
  -3  -5  -5  570.84   17.20
  -3  -5  -5  547.25   17.70
  -3   5  -5  541.35   17.40
   3   5   5  570.34   17.20
   3   5   5  552.84   18.00
  -3   5  -5  567.44   17.20
  -3   5  -5  535.95   18.60
   5  -5   5    8.70    1.90
   5  -5   5    6.90    1.60
  -5  -5  -5    8.20    1.40
   5   5   5   10.90    1.00
   5   5   5    9.30    0.90
  -5   5  -5    7.40    1.30
  -5   5  -5   10.50    1.90
   5   5   5    8.20    0.80
   5   5   5    9.80    1.70
   7  -5   5   84.49    5.10
  -7  -5  -5   84.79    4.40
   7  -5   5   72.79    5.00
  -7   5  -5   76.19    4.20
  -7   5  -5   76.39    4.60
   7   5   5   75.49    4.50
   9  -5   5  144.49    7.50
   9  -5   5  133.29    7.10
  -9  -5  -5  125.79    6.20
  -9   5  -5  120.09    6.20
   9   5   5  127.69    6.50
  -9   5  -5  126.69    6.20
  11  -5   5  131.29    7.70
  11  -5   5  131.99    7.50
 -11  -5  -5  140.69    6.90
 -11   5  -5  143.89    6.80
 -11   5  -5  129.89    6.70
  11   5   5  145.29    7.20
  13  -5   5   27.30    3.80
 -13  -5  -5   25.90    3.10
  13   5   5   28.40    3.40
 -13   5  -5   23.50    3.00
 -13   5  -5   24.90    2.90
 -15  -5  -5   42.70    4.10
  15  -5   5   49.90    5.20
 -15   5  -5   41.20    4.10
  15   5   5   56.19    4.70
  17  -5   5   13.80    3.30
 -17  -5  -5   10.70    2.60
 -17   5  -5   13.70    2.80
  17   5   5   13.40    2.80
 -24  -6   5    2.60    1.90
  24  -6  -5    6.40    2.50
 -24   6   5    4.10    2.30
  24   6  -5    4.50    1.70
 -24   6   5    4.80    2.30
 -22  -6   5    0.60    1.50
  22  -6  -5    0.50    1.70
  22   6  -5   -0.40    0.90
 -22   6   5    0.80    1.80
 -20  -6   5   22.40    2.70
  20  -6  -5   26.50    3.60
 -20  -6   5   22.50    2.90
  20   6  -5   21.80    2.40
 -20   6   5   20.60    3.40
  18  -6  -5  112.59    6.30
 -18  -6   5  100.69    5.60
 -18  -6   5  109.89    5.40
  18   6  -5  103.89    5.70
 -18   6   5  106.59    6.60
  18   6  -5  103.39    5.20
  16  -6  -5   67.79    2.90
  16  -6  -5   70.59    4.50
 -16  -6   5   75.79    4.00
 -16  -6   5   68.39    4.10
  16   6  -5   66.29    4.40
 -16   6   5   61.89    4.80
  16   6  -5   69.19    3.80
 -14  -6   5    9.80    1.50
 -14  -6   5    9.50    1.60
  14  -6  -5   10.70    1.90
  14  -6  -5   11.00    0.80
 -14   6   5   10.70    2.30
  14   6  -5    8.50    1.80
 -14   6   5   11.40    0.90
  12  -6  -5   10.10    1.70
 -12  -6   5    7.90    1.30
 -12  -6   5    7.30    1.20
 -12   6   5   11.10    2.20
  12   6  -5    8.10    1.80
 -10  -6   5    4.20    1.00
  10  -6  -5    2.30    0.90
 -10  -6   5    4.20    0.80
 -10  -6   5    3.90    0.80
 -10   6   5    6.80    1.70
  10   6  -5    2.80    1.20
  -8  -6   5   58.39    3.00
  -8  -6   5   59.89    2.40
  -8  -6   5   57.39    2.40
   8  -6  -5   57.59    3.10
  -8   6   5   60.89    4.00
   8   6  -5   61.19    4.00
  -6  -6   5  111.29    4.60
   6  -6  -5  112.99    3.60
   6  -6  -5  117.69    4.70
   6   6  -5  119.29    5.70
  -6   6   5  108.29    5.50
   4  -6  -5   57.49    2.80
  -4  -6   5   51.29    2.80
   4  -6  -5   55.19    2.60
   4  -6  -5   53.69    2.70
   4   6  -5   48.90    3.60
  -4   6   5   55.09    3.40
  -4   6   5   50.69    2.20
   2  -6  -5    3.50    0.90
   2  -6  -5    1.60    0.60
   2  -6  -5    2.50    1.00
  -2  -6   5    2.30    0.80
  -2   6   5    2.90    0.70
  -2   6   5    2.90    1.00
   2   6  -5    3.20    1.40
   0  -6  -5  102.99    4.20
   0  -6  -5  103.49    4.50
   0  -6   5  103.09    4.70
   0  -6  -5   98.49    4.60
   0   6   5  102.39    4.30
   0   6  -5  103.09    3.40
   0   6  -5   98.99    5.40
   0   6  -5  100.19    3.70
   0   6   5  101.89    4.70
   2  -6   5  226.08    8.70
  -2  -6  -5  231.78    8.10
  -2  -6  -5  219.08    8.00
  -2   6  -5  213.58    9.20
  -2   6  -5  216.88    7.60
  -2   6  -5  225.48    7.40
   2   6   5  220.18    8.20
   2   6   5  230.98    8.10
  -4  -6  -5   16.60    1.80
  -4  -6  -5   22.00    1.70
   4  -6   5   19.50    2.40
   4  -6   5   21.60    2.60
   4   6   5   19.90    1.60
   4   6   5   21.50    1.80
  -4   6  -5   19.20    1.80
  -4   6  -5   15.50    2.40
   4   6   5   19.10    2.10
   6  -6   5   74.39    5.00
  -6  -6  -5   76.89    4.20
   6  -6   5   83.59    5.00
   6   6   5   74.09    4.40
   6   6   5   76.49    3.10
   6   6   5   80.69    3.30
  -6   6  -5   75.49    4.00
  -6   6  -5   72.39    4.60
  -8  -6  -5   75.29    4.40
   8  -6   5   75.19    5.00
   8  -6   5   74.29    5.20
  -8   6  -5   74.99    4.30
   8   6   5   79.49    4.70
  -8   6  -5   73.79    4.70
  10  -6   5   22.30    3.20
  10  -6   5   21.30    3.10
 -10  -6  -5   20.00    2.50
 -10   6  -5   19.20    2.60
 -10   6  -5   23.30    2.70
  10   6   5   19.80    2.70
 -12  -6  -5  173.18    8.00
  12  -6   5  161.88    9.00
 -12   6  -5  170.68    8.00
 -12   6  -5  166.98    8.00
  12   6   5  160.98    8.10
  14  -6   5   -0.50    1.50
 -14  -6  -5    0.00    1.20
 -14   6  -5   -2.00    1.10
  14   6   5    0.70    1.20
 -14   6  -5    1.50    1.40
 -16  -6  -5   30.90    3.70
  16  -6   5   34.70    4.60
  16   6   5   38.10    4.10
 -16   6  -5   40.80    4.10
 -23  -7   5    1.60    1.40
  23  -7  -5    1.90    1.90
 -23  -7   5    1.40    1.70
 -23   7   5    0.50    2.10
  23   7  -5   -0.20    1.20
  21  -7  -5   42.90    4.50
 -21  -7   5   32.70    3.20
 -21  -7   5   33.60    3.50
 -21   7   5   28.50    4.00
 -19  -7   5    2.00    1.30
 -19  -7   5    2.30    1.60
  19  -7  -5    4.20    2.00
  19   7  -5    3.80    1.70
 -19   7   5    0.90    1.80
  19   7  -5    3.60    1.30
 -17  -7   5   -0.20    1.00
  17  -7  -5    1.00    1.30
 -17  -7   5    0.30    0.90
 -17   7   5    2.80    1.80
  17   7  -5   -1.10    0.80
  17   7  -5    2.00    1.30
 -15  -7   5    5.80    1.40
 -15  -7   5    4.40    1.30
  15  -7  -5    3.50    1.50
  15  -7  -5    4.40    0.70
 -15   7   5    6.30    2.00
  15   7  -5    5.20    1.60
 -13  -7   5    0.00    0.70
  13  -7  -5    1.00    1.00
 -13  -7   5    1.10    0.80
 -13   7   5    3.10    1.60
  13   7  -5   -0.30    1.00
  11  -7  -5   16.90    1.90
 -11  -7   5   17.90    1.60
 -11  -7   5   13.30    1.70
 -11  -7   5   17.70    1.50
 -11   7   5   12.00    2.40
  11   7  -5   13.80    2.20
  -9  -7   5   32.60    1.90
  -9  -7   5   36.20    1.80
   9  -7  -5   36.80    2.40
  -9  -7   5   34.10    2.30
   9   7  -5   32.00    3.10
  -9   7   5   32.50    3.20
   7  -7  -5    6.70    0.60
  -7  -7   5    7.60    1.20
   7  -7  -5    7.40    1.20
  -7  -7   5    7.00    0.70
  -7  -7   5    5.60    0.50
   7   7  -5    6.80    1.70
  -7   7   5    6.80    1.70
  -5  -7   5    6.20    1.10
   5  -7  -5    6.50    1.00
   5  -7  -5    8.70    1.20
   5  -7  -5    7.50    0.70
  -5   7   5    7.10    1.70
   5   7  -5    8.40    1.90
   3  -7  -5    2.40    0.80
   3  -7  -5    2.20    0.90
   3  -7  -5    1.40    0.60
  -3  -7   5    1.70    0.80
  -3   7   5    1.70    1.00
  -3   7   5    1.20    0.50
   3   7  -5    1.30    1.10
  -1  -7   5    1.40    0.80
   1  -7  -5    0.70    0.60
   1  -7  -5    1.60    0.70
   1   7  -5    1.50    1.10
  -1   7   5    2.00    1.00
  -1   7   5    2.00    0.70
  -1  -7  -5  173.48    7.10
   1  -7   5  190.58    7.60
  -1  -7  -5  185.68    6.90
   1   7   5  196.18    7.10
   1   7   5  181.08    7.30
  -1   7  -5  191.38    6.40
  -1   7  -5  182.38    8.30
  -3  -7  -5    1.90    0.90
  -3  -7  -5    1.40    0.80
   3  -7   5   -0.70    0.70
   3   7   5    1.90    0.80
   3   7   5    1.50    1.00
  -3   7  -5    2.90    0.70
   3   7   5    2.20    0.90
  -3   7  -5    2.80    1.50
  -3   7  -5    1.20    0.80
   5  -7   5   23.60    2.60
  -5  -7  -5   19.40    1.70
  -5  -7  -5   20.90    2.10
   5  -7   5   17.10    2.50
  -5   7  -5   23.20    2.00
   5   7   5   20.20    1.70
   5   7   5   24.10    2.40
  -5   7  -5   16.90    2.60
   5   7   5   22.10    1.90
   7  -7   5    0.80    1.10
   7  -7   5    1.00    1.30
  -7  -7  -5    0.50    0.50
  -7  -7  -5   -0.50    0.70
   7   7   5    0.60    0.90
   7   7   5    0.60    0.60
  -7   7  -5    0.20    1.20
  -7   7  -5    0.70    1.00
  -9  -7  -5   20.10    2.40
   9  -7   5   26.30    3.20
   9  -7   5   27.20    3.40
  -9   7  -5   20.60    2.90
  -9   7  -5   27.20    2.70
   9   7   5   25.40    2.80
 -11  -7  -5   63.29    4.30
  11  -7   5   65.59    5.00
  11  -7   5   63.59    5.30
 -11   7  -5   59.19    4.60
 -11   7  -5   62.09    4.30
  11   7   5   61.59    4.50
  13  -7   5   -1.30    1.40
 -13  -7  -5    1.00    1.40
 -13   7  -5   -0.80    1.20
  13   7   5    0.30    1.30
 -13   7  -5    0.60    1.50
 -15  -7  -5    0.00    1.30
  15  -7   5    1.30    1.80
  15   7   5   -0.20    1.20
 -15   7  -5    0.20    1.40
 -22  -8   5   30.70    3.30
  22  -8  -5   27.90    4.00
 -22  -8   5   24.80    3.20
  22   8  -5   23.50    2.90
 -22   8   5   28.70    4.40
 -20  -8   5   28.40    3.00
  20  -8  -5   33.40    4.00
 -20  -8   5   28.90    3.10
  20   8  -5   25.10    2.70
 -20   8   5   29.30    4.10
  18  -8  -5   51.59    4.40
 -18  -8   5   43.00    3.40
 -18  -8   5   47.90    3.60
 -18   8   5   49.60    4.90
  18   8  -5   43.80    3.80
  18   8  -5   48.60    3.40
  16  -8  -5    3.60    1.50
 -16  -8   5    1.90    1.20
 -16  -8   5    3.50    1.30
 -16   8   5    2.90    1.90
  16   8  -5    4.40    1.70
 -14  -8   5   17.40    2.00
 -14  -8   5   17.00    1.90
  14  -8  -5   16.50    2.30
  14   8  -5   16.40    2.50
 -14   8   5   13.00    2.60
 -12  -8   5   43.30    2.90
  12  -8  -5   40.00    3.00
 -12  -8   5   38.00    2.40
  12   8  -5   40.00    3.60
 -12   8   5   37.10    3.80
  10  -8  -5    2.30    1.00
 -10  -8   5    1.60    0.80
 -10  -8   5    1.20    0.80
 -10  -8   5    0.30    0.50
 -10   8   5    0.20    1.10
  10   8  -5    2.30    1.40
   8  -8  -5    1.60    0.80
  -8  -8   5    1.00    0.60
   8  -8  -5    0.10    0.30
  -8  -8   5    0.80    0.70
  -8  -8   5    0.60    0.30
  -8   8   5    0.00    1.00
   8   8  -5   -1.10    0.80
   6  -8  -5   90.59    4.10
   6  -8  -5   85.89    3.10
  -6  -8   5   87.29    4.10
  -6   8   5   81.09    4.90
   6   8  -5   86.39    5.30
   4  -8  -5   13.20    1.50
   4  -8  -5   14.40    1.10
  -4  -8   5   15.90    1.70
  -4   8   5   13.10    2.10
   4   8  -5   15.90    2.40
   2  -8  -5   10.50    1.20
  -2  -8   5   10.70    1.50
   2  -8  -5    7.80    1.20
  -2   8   5   10.50    1.10
   2   8  -5   10.00    2.10
  -2   8   5   10.80    1.90
   0  -8  -5   46.60    2.60
   0  -8   5   48.60    3.10
   0  -8  -5   42.50    2.70
   0   8  -5   46.00    1.80
   0   8  -5   45.30    2.10
   0   8   5   45.00    3.20
   0   8   5   41.40    2.50
   0   8  -5   52.49    4.10
  -2  -8  -5    1.60    0.80
  -2  -8  -5    2.80    1.00
   2  -8   5    1.70    1.00
  -2   8  -5    3.80    0.60
   2   8   5    0.60    0.80
  -2   8  -5    2.20    0.70
   2   8   5    3.70    1.30
   2   8   5    1.80    0.90
  -2   8  -5    1.90    1.40
   4  -8   5    0.10    1.00
  -4  -8  -5    1.70    0.90
  -4  -8  -5    1.00    0.80
   4   8   5    0.80    0.90
  -4   8  -5    0.70    0.70
   4   8   5    1.00    0.80
   4   8   5    1.30    1.00
  -4   8  -5    0.80    1.40
   6  -8   5   26.30    3.00
  -6  -8  -5   22.40    2.30
   6  -8   5   26.30    3.10
  -6  -8  -5   24.30    2.00
  -6   8  -5   24.60    2.20
   6   8   5   21.80    2.40
   6   8   5   26.00    2.10
   6   8   5   21.60    1.80
  -6   8  -5   27.70    3.30
  -8  -8  -5   29.80    2.70
   8  -8   5   24.30    3.30
   8  -8   5   25.90    3.20
  -8   8  -5   27.70    3.30
  -8   8  -5   25.80    2.60
   8   8   5   29.80    3.00
  10  -8   5   14.40    3.00
 -10  -8  -5   16.00    2.30
  10  -8   5   11.10    2.50
 -10   8  -5   11.40    2.10
  10   8   5   15.90    2.50
 -10   8  -5   16.30    2.90
  12  -8   5   59.99    5.40
  12  -8   5   75.69    5.70
 -12  -8  -5   70.49    4.70
 -12   8  -5   60.29    4.50
  12   8   5   65.49    4.80
 -12   8  -5   71.19    5.20
  14  -8   5   -0.20    1.70
 -14  -8  -5    0.60    1.40
  14   8   5    0.20    1.40
 -14   8  -5    1.30    1.80
 -14   8  -5   -0.60    1.20
  16  -8   5   14.30    3.40
 -16  -8  -5   14.80    2.80
  16   8   5   14.90    2.90
 -16   8  -5   15.00    3.00
  21  -9  -5    0.80    1.90
 -21  -9   5   -1.00    1.20
 -21  -9   5    1.20    1.10
  21   9  -5   -0.20    1.00
 -21   9   5    2.60    2.10
 -19  -9   5    4.90    1.80
 -19  -9   5    6.80    1.70
  19  -9  -5    6.80    2.30
 -19   9   5    4.30    2.30
  17  -9  -5    0.00    1.20
 -17  -9   5    0.00    1.10
 -17  -9   5    2.00    1.20
 -17   9   5   -1.00    1.60
  17   9  -5   -0.30    1.40
 -15  -9   5    6.20    1.50
  15  -9  -5    6.50    1.80
 -15  -9   5    6.50    1.40
  15   9  -5    4.20    1.80
 -15   9   5    3.60    1.90
  13  -9  -5   81.09    4.70
 -13  -9   5   73.49    4.20
 -13  -9   5   74.89    3.70
 -13   9   5   72.49    5.40
  13   9  -5   81.99    5.20
  11  -9  -5  116.99    5.60
 -11  -9   5  116.39    4.50
 -11  -9   5  118.29    5.40
 -11   9   5  115.39    6.70
  11   9  -5  121.49    6.60
  -9  -9   5  579.84   18.80
   9  -9  -5  564.04   18.70
  -9  -9   5  584.94   17.30
   9  -9  -5  573.74   17.30
  -9  -9   5  573.14   17.70
  -9   9   5  583.84   20.50
   9   9  -5  580.74   20.30
   7  -9  -5    0.00    0.60
   7  -9  -5    0.60    0.40
  -7  -9   5    0.00    0.60
  -7  -9   5    0.60    0.30
  -7  -9   5    0.20    0.50
  -7  -9   5    0.00    0.30
   7  -9  -5    1.10    0.50
   7   9  -5    1.40    1.30
  -7   9   5   -0.60    0.80
  -5  -9   5  128.69    5.50
   5  -9  -5  128.59    5.40
   5  -9  -5  122.79    4.40
   5  -9  -5  128.39    4.80
  -5   9   5  123.39    6.40
   5   9  -5  122.69    6.80
   3  -9  -5  236.48    8.60
   3  -9  -5  243.18    7.90
   3  -9  -5  230.58    8.20
  -3  -9   5  224.88    8.80
  -3   9   5  249.08    9.90
  -3   9   5  231.48    7.80
   3   9  -5  239.98   10.40
   1  -9  -5   56.89    3.20
  -1  -9   5   58.59    3.50
   1  -9  -5   62.79    3.10
  -1   9   5   58.69    3.90
   1   9  -5   61.79    4.60
  -1   9   5   57.09    2.90
   1   9  -5   57.69    2.30
   1   9  -5   58.09    2.20
   1  -9   5  175.78    7.40
  -1  -9  -5  168.58    6.50
  -1  -9  -5  170.28    6.90
  -1   9  -5  146.39    8.10
  -1   9  -5  160.78    5.90
   1   9   5  173.98    7.60
   1   9   5  167.48    6.50
   1   9   5  171.88    7.30
  -1   9  -5  175.58    5.50
  -3  -9  -5   43.60    3.20
  -3  -9  -5   55.19    3.20
   3  -9   5   58.69    4.00
   3   9   5   52.79    3.30
  -3   9  -5   60.19    4.60
   3   9   5   57.09    3.50
   3   9   5   57.69    3.70
   5  -9   5   58.39    4.20
  -5  -9  -5   60.49    3.70
  -5  -9  -5   61.29    3.50
   5   9   5   59.79    3.60
   5   9   5   51.99    3.20
  -5   9  -5   53.09    4.50
  -5   9  -5   58.39    3.30
   5   9   5   55.59    3.60
   7  -9   5   68.19    5.20
  -7  -9  -5   65.79    4.10
   7  -9   5   71.89    5.00
  -7   9  -5   65.59    5.10
   7   9   5   72.39    4.40
   7   9   5   74.99    3.80
  -7   9  -5   74.79    4.20
   9  -9   5   25.00    3.40
  -9  -9  -5   27.00    2.70
   9  -9   5   27.70    3.60
   9   9   5   21.50    2.70
  -9   9  -5   20.60    3.20
  -9   9  -5   20.90    2.50
  11  -9   5  125.09    7.60
 -11  -9  -5  133.69    6.70
  11  -9   5  130.89    8.00
 -11   9  -5  136.89    6.80
  11   9   5  130.39    6.90
 -11   9  -5  137.19    7.70
  13  -9   5    8.20    2.70
  13  -9   5    5.90    2.40
 -13  -9  -5   10.90    2.20
 -13   9  -5    6.60    2.40
 -13   9  -5    8.50    2.20
  13   9   5    8.80    2.10
 -15  -9  -5   67.49    4.90
  15  -9   5   58.69    5.90
 -15   9  -5   72.09    5.60
 -15   9  -5   68.19    5.20
  15   9   5   67.09    5.10
 -20 -10   5   48.80    3.80
  20 -10  -5   56.19    5.10
 -20 -10   5   50.59    4.00
 -20  10   5   48.50    5.30
 -18 -10   5  151.88    7.30
 -18 -10   5  144.79    6.80
  18 -10  -5  155.28    8.20
  18  10  -5  152.98    8.00
 -18  10   5  145.19    8.70
 -16 -10   5  132.79    6.60
 -16 -10   5  140.69    6.10
  16 -10  -5  126.99    7.00
 -16  10   5  132.59    8.10
  16  10  -5  155.18    7.70
 -14 -10   5   39.30    3.10
  14 -10  -5   40.90    3.60
 -14 -10   5   39.90    2.60
  14  10  -5   45.00    4.10
 -14  10   5   37.30    4.40
  12 -10  -5   65.09    4.20
 -12 -10   5   65.79    3.10
 -12 -10   5   63.89    3.90
  12  10  -5   57.79    4.60
 -12  10   5   72.29    5.40
 -10 -10   5   98.99    3.70
 -10 -10   5   86.99    3.50
  10 -10  -5   92.49    3.50
 -10 -10   5   87.99    4.60
  10 -10  -5   94.49    4.80
  10  10  -5   93.59    5.80
 -10  10   5   86.79    5.90
  -8 -10   5  142.89    4.60
  -8 -10   5  139.09    4.70
  -8 -10   5  136.39    6.10
   8 -10  -5  139.79    4.90
  -8  10   5  140.19    7.50
   6 -10  -5   95.99    3.90
   6 -10  -5   97.19    3.70
  -6 -10   5   92.99    4.60
   6 -10  -5   85.69    4.40
  -6  10   5   95.89    5.80
   6  10  -5   99.69    6.20
   4 -10  -5  132.49    4.80
   4 -10  -5  126.79    5.40
  -4 -10   5  129.89    5.70
  -4  10   5  118.59    6.50
   4  10  -5  117.59    7.00
   2 -10  -5   73.39    3.90
  -2 -10   5   79.39    2.90
   2 -10  -5   81.69    3.50
  -2 -10   5   76.99    4.30
   2 -10  -5   74.59    3.60
  -2  10   5   80.39    3.40
  -2  10   5   78.39    4.90
   2  10  -5   80.69    5.50
   0 -10  -5  114.79    5.20
   0 -10   5  116.29    5.60
   0 -10  -5  111.79    4.80
   0 -10   5  111.09    4.20
   0  10   5  108.69    4.70
   0  10   5  112.79    6.20
   0  10   5  108.69    5.80
   0  10  -5  115.09    6.90
  -2 -10  -5  254.17    9.00
  -2 -10  -5  241.78    9.30
   2 -10   5  239.28    9.90
   2  10   5  244.48    9.70
   2  10   5  250.77    9.00
  -2  10  -5  241.78    8.40
  -2  10  -5  251.47   11.30
   2  10   5  241.08   10.00
  -4 -10  -5  114.99    5.10
   4 -10   5  101.79    5.90
  -4 -10  -5  103.79    5.30
  -4  10  -5  116.19    6.90
   4  10   5  100.69    5.50
   4  10   5  111.89    5.30
  -4  10  -5  106.49    4.80
   4  10   5  111.49    5.40
   6 -10   5  123.19    6.80
   6 -10   5  117.79    7.00
  -6 -10  -5  117.69    5.70
  -6 -10  -5  123.09    6.10
   6  10   5  130.09    5.90
  -6  10  -5  126.09    5.60
  -6  10  -5  119.89    7.30
   6  10   5  121.69    6.00
   6  10   5  118.19    5.50
   8 -10   5   73.39    5.40
  -8 -10  -5   80.99    4.60
   8 -10   5   82.39    5.90
   8  10   5   81.09    4.90
  -8  10  -5   78.59    5.70
  -8  10  -5   76.99    4.50
  10 -10   5  141.79    7.90
  10 -10   5  145.39    8.20
 -10 -10  -5  122.69    6.40
 -10  10  -5  114.59    6.30
 -10  10  -5  134.89    7.90
  10  10   5  140.29    7.00
 -12 -10  -5   72.39    4.90
  12 -10   5   80.79    6.40
  12 -10   5   69.29    5.70
 -12  10  -5   76.59    5.90
  12  10   5   72.59    5.10
 -12  10  -5   75.39    5.10
 -14 -10  -5   63.59    4.90
  14 -10   5   74.19    6.20
  14 -10   5   73.09    6.40
  14  10   5   75.29    5.40
 -14  10  -5   74.79    6.00
 -14  10  -5   80.39    5.40
  19 -11  -5   28.20    3.90
 -19 -11   5   30.30    3.30
 -19 -11   5   26.30    2.80
 -19  11   5   23.90    4.20
 -17 -11   5  101.29    6.00
  17 -11  -5  122.59    7.00
 -17 -11   5  117.49    5.60
  17  11  -5  127.79    7.20
 -17  11   5  123.09    7.90
 -15 -11   5   39.00    3.30
  15 -11  -5   39.10    3.80
 -15 -11   5   45.50    2.80
  15  11  -5   42.30    4.20
 -15  11   5   40.00    4.70
 -13 -11   5   70.49    4.30
  13 -11  -5   65.99    4.60
 -13 -11   5   81.19    3.60
  13  11  -5   65.49    5.10
 -13  11   5   70.69    5.60
 -11 -11   5  242.78    9.60
 -11 -11   5  234.68    8.20
 -11 -11   5  247.08    8.00
  11 -11  -5  243.18    9.70
 -11  11   5  249.68   11.40
  11  11  -5  253.07   11.10
  -9 -11   5    0.70    0.50
  -9 -11   5    0.70    0.90
   9 -11  -5    1.10    1.00
  -9 -11   5    1.20    0.50
  -9  11   5    4.00    1.80
  -7 -11   5  445.46   13.20
  -7 -11   5  445.06   15.20
   7 -11  -5  416.36   14.90
   7 -11  -5  451.15   13.80
   7  11  -5  446.46   17.30
  -7  11   5  434.66   16.80
   5 -11  -5   12.90    1.20
   5 -11  -5   16.40    1.90
  -5 -11   5   15.40    1.00
  -5 -11   5   16.90    2.10
  -5  11   5   13.90    2.60
   5  11  -5   15.10    2.90
   3 -11  -5   52.59    3.20
  -3 -11   5   52.59    2.10
  -3 -11   5   51.09    3.50
   3 -11  -5   54.59    2.70
  -3  11   5   53.59    4.20
   3  11  -5   57.29    5.00
  -3  11   5   54.89    4.60
  -1 -11   5  136.79    4.90
   1 -11  -5  141.59    5.80
   1 -11  -5  137.59    5.60
  -1 -11   5  142.09    6.60
   1 -11  -5  145.09    6.10
  -1  11   5  147.99    5.60
   1  11  -5  145.59    8.20
  -1  11   5  141.69    7.50
  -1  11   5  139.59    7.20
   1 -11   5  212.28    7.10
  -1 -11  -5  195.58    8.00
  -1 -11  -5  206.08    7.70
   1 -11   5  197.28    8.70
   1  11   5  198.88    8.80
   1  11   5  208.98    9.30
  -1  11  -5  195.98   10.10
   1  11   5  205.68    7.70
   3 -11   5  169.28    7.90
  -3 -11  -5  175.38    6.80
  -3 -11  -5  157.78    7.10
   3  11   5  159.48    7.50
   3  11   5  166.58    7.90
  -3  11  -5  164.98    6.30
   3  11   5  170.88    6.90
  -3  11  -5  161.68    8.90
  -5 -11  -5   67.19    3.80
  -5 -11  -5   64.19    4.10
   5 -11   5   70.79    4.90
   5  11   5   64.09    4.30
   5  11   5   73.99    4.30
   5  11   5   68.89    4.10
  -5  11  -5   64.29    5.40
  -5  11  -5   59.79    3.60
  -7 -11  -5   54.29    3.60
  -7 -11  -5   60.89    4.10
   7 -11   5   57.89    5.00
   7 -11   5   59.29    4.70
  -7  11  -5   50.89    3.60
  -7  11  -5   60.49    5.40
   7  11   5   61.69    4.10
   9 -11   5  232.68   11.10
   9 -11   5  230.68   11.40
  -9 -11  -5  238.28    9.70
  -9  11  -5  236.98    9.60
   9  11   5  248.78   10.20
  -9  11  -5  240.58   11.60
  11 -11   5   64.09    5.80
 -11 -11  -5   72.89    4.70
  11 -11   5   64.09    5.60
  11  11   5   72.99    4.90
 -11  11  -5   65.79    4.70
 -11  11  -5   67.79    5.90
  13 -11   5   92.19    6.80
  13 -11   5   96.89    7.30
 -13 -11  -5   93.39    5.70
  13  11   5   95.79    6.00
 -13  11  -5   91.79    6.90
  18 -12  -5    2.40    1.90
 -18 -12   5    2.10    1.50
 -18  12   5    3.90    2.50
 -16 -12   5   55.09    4.10
  16 -12  -5   59.59    4.70
 -16  12   5   53.59    5.60
  16  12  -5   62.19    5.20
 -14 -12   5   47.00    3.60
  14 -12  -5   45.80    4.00
 -14  12   5   57.39    5.50
  14  12  -5   50.29    4.70
  12 -12  -5   21.10    2.80
 -12 -12   5   15.80    2.30
 -12 -12   5   15.70    1.50
  12  12  -5   19.50    3.30
 -12  12   5   20.70    3.60
 -10 -12   5  142.29    5.00
  10 -12  -5  136.49    6.50
 -10 -12   5  128.49    6.40
 -10  12   5  129.29    7.80
  10  12  -5  149.29    8.00
  -8 -12   5   85.69    4.60
   8  12  -5   79.79    6.00
  -8  12   5   81.39    5.90
  -6 -12   5   24.10    2.50
   6 -12  -5   25.60    2.40
   6 -12  -5   23.90    1.80
  -6  12   5   27.80    3.90
   6  12  -5   30.50    4.00
  -6  12   5   21.30    3.30
  -4 -12   5   59.69    3.90
   4 -12  -5   68.49    3.80
   4 -12  -5   72.79    3.30
  -4  12   5   58.59    5.30
  -4  12   5   74.59    5.20
   4  12  -5   62.39    5.40
  -2 -12   5   56.79    3.90
   2 -12  -5   56.89    3.10
   2 -12  -5   61.19    3.50
  -2  12   5   60.59    4.60
   2  12  -5   56.49    5.30
  -2  12   5   56.69    4.80
   0 -12  -5   51.49    3.10
   0 -12  -5   52.39    3.10
   0 -12   5   53.49    2.60
   0 -12  -5   56.99    3.40
   0 -12   5   54.79    3.90
   0  12  -5   60.19    5.50
   0  12   5   53.89    4.60
   0  12   5   46.40    4.10
   2 -12   5  105.69    6.10
  -2 -12  -5  111.79    5.50
   2 -12   5  113.09    4.70
  -2 -12  -5  120.29    5.20
  -2  12  -5  118.29    7.60
   2  12   5  111.49    6.50
   2  12   5  116.09    5.20
   2  12   5  114.39    6.30
   4 -12   5   85.59    5.50
  -4 -12  -5   83.59    4.40
  -4 -12  -5   82.69    4.70
  -4  12  -5   76.69    6.30
   4  12   5   89.89    4.60
   4  12   5   89.59    5.40
   4  12   5   80.79    5.00
   6 -12   5   33.30    3.80
  -6 -12  -5   28.30    2.60
  -6 -12  -5   33.80    3.10
  -6  12  -5   29.30    4.30
   6  12   5   33.30    3.00
  -8 -12  -5   21.70    2.50
   8 -12   5   18.80    3.50
  -8 -12  -5   24.30    2.90
   8 -12   5   23.40    3.50
  -8  12  -5   26.30    4.20
   8  12   5   29.00    3.00
 -10 -12  -5  108.19    6.50
 -10 -12  -5  124.69    6.40
  10 -12   5  131.19    8.30
  10 -12   5  129.69    7.90
 -10  12  -5  147.79    8.80
  10  12   5  126.39    6.70
  12 -12   5    5.30    2.60
  12 -12   5    5.90    2.50
 -12 -12  -5    3.50    1.60
  12  12   5    4.70    1.80
 -12  12  -5    2.20    2.20
  17 -13  -5   30.90    3.90
 -17 -13   5   29.30    3.30
 -17  13   5   30.30    5.20
 -17  13   5   23.80    4.30
 -15 -13   5   42.20    3.60
  15 -13  -5   44.40    4.20
 -15  13   5   40.30    5.50
  15  13  -5   47.50    4.70
 -15  13   5   35.30    4.80
 -13 -13   5    2.90    1.40
  13 -13  -5    5.20    1.90
 -13  13   5    2.70    2.10
  13  13  -5    0.70    1.70
 -13  13   5    0.70    2.10
  11 -13  -5   14.30    2.30
 -11 -13   5   11.00    2.00
  11  13  -5    8.20    2.60
 -11  13   5   12.30    3.40
 -11  13   5   11.40    2.90
   9 -13  -5    7.90    1.80
  -9 -13   5    8.60    1.80
  -9  13   5    9.90    3.10
  -9  13   5   12.40    2.90
  -7 -13   5    0.60    1.00
   7 -13  -5    1.80    1.00
  -7  13   5    0.00    1.50
  -7  13   5    1.30    2.00
   7  13  -5   -0.30    1.50
   5 -13  -5   14.90    1.50
  -5 -13   5   11.90    2.00
   5 -13  -5   11.40    1.80
  -5  13   5   16.10    3.20
   5  13  -5   11.90    3.00
  -5  13   5   16.30    3.10
   3 -13  -5    3.40    1.00
  -3 -13   5    2.70    1.30
   3 -13  -5    1.40    1.00
   3  13  -5    2.10    1.90
  -3  13   5    1.50    1.90
  -3  13   5    2.60    1.70
   1 -13  -5    3.00    1.00
  -1 -13   5    2.80    1.50
   1 -13  -5    2.40    1.10
   1  13  -5    4.30    2.30
  -1  13   5    5.50    2.00
  -1  13   5    4.80    2.20
  -1 -13  -5    1.70    1.00
  -1 -13  -5    2.90    1.20
  -1 -13  -5    2.20    1.00
   1 -13   5    2.40    1.40
   1  13   5    3.50    2.00
   1  13   5    1.30    1.50
  -1  13  -5    0.60    1.90
  -3 -13  -5    4.60    1.30
  -3 -13  -5    2.40    1.20
  -3 -13  -5    2.00    1.10
   3 -13   5    1.50    1.60
   3  13   5    4.30    2.00
   3  13   5    4.10    1.70
  -3  13  -5    2.30    2.40
   3  13   5    3.30    1.20
  -5 -13  -5   34.50    2.80
  -5 -13  -5   33.60    3.10
   5 -13   5   32.90    3.70
   5  13   5   29.10    3.40
   5  13   5   33.20    2.90
   5  13   5   30.60    3.20
  -5  13  -5   24.10    4.30
   7 -13   5    3.50    1.90
   7 -13   5    0.80    2.00
  -7 -13  -5    4.40    1.40
  -7 -13  -5    4.70    1.60
  -7  13  -5    3.00    2.30
   7  13   5    5.60    1.60
   9 -13   5   -0.40    1.60
  -9 -13  -5    0.50    1.20
  -9 -13  -5    0.60    1.20
   9 -13   5   -1.00    2.00
   9  13   5    1.50    1.40
  -9  13  -5   -0.60    2.00
  16 -14  -5    9.70    2.60
 -16 -14   5    4.50    1.80
 -16  14   5    7.90    3.40
 -16  14   5    4.80    2.60
  14 -14  -5    5.20    2.00
 -14 -14   5    1.80    1.30
 -14  14   5    6.50    2.60
  14  14  -5    1.10    2.00
 -14  14   5    4.30    3.00
 -12 -14   5    1.40    1.20
  12 -14  -5    2.30    1.50
  12  14  -5    4.70    2.30
 -12  14   5    0.90    1.80
 -12  14   5    1.90    2.40
 -10 -14   5   -0.20    0.90
  10 -14  -5   -1.20    1.00
 -10  14   5    2.10    2.20
 -10  14   5   -1.20    1.60
  10  14  -5    1.20    1.80
  -8 -14   5    4.20    1.50
   8 -14  -5    3.40    1.40
  -8  14   5    0.40    1.60
   8  14  -5    4.30    2.10
  -8  14   5    1.80    2.10
  -6 -14   5    0.40    1.00
   6 -14  -5   -0.40    0.80
  -6  14   5    1.00    2.10
  -6  14   5   -1.50    1.30
   6  14  -5   -0.70    1.40
  -4 -14   5    0.80    1.10
   4 -14  -5   -0.50    0.80
   4  14  -5    0.50    1.80
  -4  14   5    0.00    1.70
  -4  14   5    2.20    1.80
  -2 -14   5    3.30    1.50
   2 -14  -5    4.80    1.30
   2 -14  -5    4.70    1.10
  -2  14   5    5.50    2.10
  -2  14   5    3.50    2.10
   2  14  -5    8.00    2.80
   0 -14   5   -0.20    1.10
   0 -14  -5    0.60    0.80
   0 -14  -5    0.40    0.80
   0  14  -5    0.30    1.70
   0  14   5   -0.30    1.60
   0  14   5    0.10    1.60
   2 -14   5   11.90    2.50
  -2 -14  -5   10.70    1.90
  -2 -14  -5   14.00    1.90
  -2 -14  -5   16.20    1.90
  -2  14  -5   15.60    3.80
   2  14   5   14.20    2.70
   2  14   5   13.80    2.90
  -4 -14  -5    9.70    1.70
   4 -14   5    9.60    2.50
  -4 -14  -5    8.40    1.80
  -4 -14  -5    8.40    1.80
   4  14   5    8.10    1.70
   4  14   5    6.60    2.30
  -4  14  -5    4.80    2.70
   4  14   5    9.20    2.30
   6 -14   5   -1.40    1.40
  -6 -14  -5    1.30    1.10
  -6 -14  -5   -0.50    0.90
  -6 -14  -5    0.60    1.10
   6  14   5    1.40    1.30
  -6  14  -5    3.40    2.60
   8 -14   5   -0.90    1.80
   8 -14   5   -0.50    1.70
  -8 -14  -5   -1.30    0.90
  -8 -14  -5   -0.30    1.10
   8  14   5   -1.40    1.00
  -8  14  -5    1.80    2.30
 -13 -15   5    9.30    2.20
  13 -15  -5   12.20    2.50
  13  15  -5   11.00    3.10
 -13  15   5    6.80    3.10
 -13  15   5    6.50    2.70
 -11 -15   5   32.30    3.30
  11 -15  -5   31.80    3.40
  11  15  -5   32.50    4.60
 -11  15   5   34.70    4.80
 -11  15   5   36.20    5.30
  -9 -15   5    9.40    2.10
   9 -15  -5    6.30    2.00
  -9  15   5    7.90    2.70
  -9  15   5    9.30    3.10
   7 -15  -5   30.20    3.00
  -7 -15   5   28.70    3.10
  -7  15   5   24.60    4.30
  -7  15   5   35.10    4.60
   7  15  -5   31.70    4.70
  -5 -15   5    3.10    1.50
   5 -15  -5    2.40    1.20
  -5  15   5    8.50    2.90
  -5  15   5    4.00    2.10
   5  15  -5    5.00    2.60
   3 -15  -5   16.50    2.20
  -3 -15   5   13.80    2.40
  -3  15   5   10.70    2.80
   3  15  -5   12.50    3.40
  -3  15   5   11.00    3.10
   1 -15  -5    7.40    1.70
  -1 -15   5    6.60    2.00
   1 -15  -5    8.60    1.50
  -1  15   5    9.90    2.90
   1  15  -5   11.00    3.20
  -1  15   5    8.50    2.60
  -1 -15  -5   93.99    4.70
   1 -15   5   92.49    5.90
  -1 -15  -5   93.19    4.80
  -1 -15  -5   96.89    5.10
  -1  15  -5  106.19    7.80
   1  15   5  103.09    6.50
   1  15   5   88.29    6.60
  -3 -15  -5    6.30    1.70
  -3 -15  -5    8.90    1.70
   3 -15   5    7.40    2.30
  -3 -15  -5    8.50    1.60
   3  15   5    6.40    2.40
   3  15   5    9.60    2.50
  -3  15  -5    7.10    3.00
  -5 -15  -5   48.30    3.40
  -5 -15  -5   52.29    3.80
   5 -15   5   39.60    4.30
  -5 -15  -5   43.90    3.50
  -5  15  -5   45.60    5.80
  -7 -15  -5   22.10    2.90
  -7 -15  -5   22.30    2.80
  10 -16  -5   83.79    5.20
 -10 -16   5   64.69    4.70
  10  16  -5   66.89    6.40
 -10  16   5   63.69    6.90
 -10  16   5   85.09    6.90
   8 -16  -5   73.69    4.60
  -8 -16   5   61.59    4.50
  -8  16   5   67.59    6.30
   8  16  -5   72.49    6.80
  -8  16   5   56.19    6.30
  -6 -16   5   43.50    3.80
   6  16  -5   41.20    5.40
  -6  16   5   47.20    5.30
  -6  16   5   46.70    5.70
  -4 -16   5   32.20    3.40
   4 -16  -5   27.50    2.80
   4  16  -5   32.10    4.90
  -4  16   5   34.40    4.80
  -4  16   5   34.30    4.50
  -2 -16   5   54.29    4.40
   2 -16  -5   63.59    4.00
  -2  16   5   61.99    5.70
   2  16  -5   63.99    6.50
  -2  16   5   53.09    5.70
   0 -16  -5   33.40    3.00
   0 -16   5   36.20    3.80
   0  16  -5   34.40    5.20
   0  16   5   35.70    4.30
   0  16   5   36.90    4.60
  -2 -16  -5   88.29    5.10
  -2 -16  -5  102.89    5.20
   2 -16   5   95.79    6.30
  -2  16  -5  104.49    8.20
   2  16   5   89.79    6.80
   2  16   5   97.19    6.50
 -26   0   6   39.20    4.70
  24   0  -6  104.69    5.10
 -24   0   6  106.39    6.20
 -24   0   6   87.49    6.40
 -22   0   6  297.27   12.20
 -22   0   6  298.97   12.70
  22   0  -6  301.57   10.80
 -20   0   6   36.00    3.50
 -20   0   6   35.60    3.70
  20   0  -6   42.10    2.70
  20   0  -6   33.30    3.60
  18   0  -6  222.98    7.90
  18   0  -6  218.48    9.40
 -18   0   6  225.38    9.60
  16   0  -6  380.06   13.50
  16   0  -6  379.96   12.10
 -16   0   6  360.96   13.70
 -14   0   6  668.73   22.50
  14   0  -6  666.53   21.90
  14   0  -6  700.23   20.70
 -14   0   6  697.23   20.80
 -12   0   6  296.07   11.00
 -12   0   6  295.07    9.60
  12   0  -6  283.37   10.10
 -12   0   6  298.77    9.30
 -10   0   6   85.39    3.30
 -10   0   6   88.09    4.60
  10   0  -6   91.69    3.80
 -10   0   6   87.69    3.30
   8   0  -6  637.14   19.50
  -8   0   6  662.83   19.40
  -8   0   6  650.53   19.30
  -8   0   6  640.34   20.80
   8   0  -6  659.93   19.30
   8   0  -6  631.84   20.80
  -6   0   6 1608.04   47.50
  -6   0   6 1646.94   47.90
  -6   0   6 1617.84   48.80
   6   0  -6 1711.53   47.70
   6   0  -6 1598.54   48.90
   6   0  -6 1626.94   47.70
  -6   0   6 1648.14   47.70
   4   0  -6  794.42   25.10
  -4   0   6  832.72   24.60
   4   0  -6  817.32   24.20
   4   0  -6  799.22   23.90
  -4   0   6  790.22   25.00
  -4   0   6  813.72   24.00
   4   0  -6  803.12   24.00
  -4   0   6  832.22   24.20
   2   0  -6  224.38    8.30
  -2   0   6  233.28    7.70
   2   0  -6  240.38    7.80
   2   0  -6  242.38    8.10
  -2   0   6  234.08    8.50
  -2   0   6  241.98    8.40
   2   0  -6  234.08    7.60
  -2   0   6  225.58    8.20
   0   0  -6   45.40    2.50
   0   0  -6   41.60    2.20
   0   0   6   43.20    2.40
   0   0   6   36.50    2.80
   0   0   6   43.50    2.80
   0   0   6   39.70    2.40
  -2   0  -6  234.08    8.10
  -2   0  -6  237.98    8.30
   2   0   6  241.08    9.30
   2   0   6  240.98    8.20
   2   0   6  232.08    9.40
  -4   0  -6  173.38    6.90
   4   0   6  183.08    6.50
   4   0   6  178.28    7.90
   4   0   6  191.68    6.40
   4   0   6  180.38    8.10
  -4   0  -6  171.38    6.30
   6   0   6  457.45   14.00
   6   0   6  449.46   16.60
   6   0   6  449.76   14.10
  -6   0  -6  450.35   15.30
  -6   0  -6  451.05   14.00
   8   0   6  205.48    9.50
  -8   0  -6  194.28    8.20
 -10   0  -6  158.38    7.10
  10   0   6  123.69    7.60
  12   0   6  235.78   11.80
 -12   0  -6  266.07   10.80
 -14   0  -6   72.29    5.20
  14   0   6   72.59    6.10
 -16   0  -6   64.79    5.10
  16   0   6   64.79    5.40
 -25  -1   6   36.40    4.30
 -25   1   6   34.00    3.80
  25   1  -6   36.10    3.10
 -25   1   6   33.10    4.30
 -23  -1   6   47.50    4.50
 -23  -1   6   47.20    4.10
  23  -1  -6   52.69    3.30
 -23   1   6   53.39    4.30
  23   1  -6   53.19    3.50
 -23   1   6   44.30    4.50
 -21  -1   6   64.39    4.90
  21  -1  -6   71.89    3.70
  21  -1  -6   70.49    5.10
 -21  -1   6   74.89    4.90
 -21   1   6   69.89    5.10
  21   1  -6   66.59    3.80
 -21   1   6   75.89    5.00
 -19  -1   6   44.20    3.80
  19  -1  -6   45.50    3.90
  19  -1  -6   42.70    2.60
 -19  -1   6   43.60    3.60
  19   1  -6   37.30    2.60
 -19   1   6   37.30    3.60
  17  -1  -6   78.99    3.40
 -17  -1   6   76.09    4.60
  17  -1  -6   77.09    4.60
 -17  -1   6   71.29    4.50
  17   1  -6   67.09    4.30
 -17   1   6   72.49    4.70
  17   1  -6   72.79    3.50
  15  -1  -6  448.66   13.80
 -15  -1   6  429.56   15.60
  15  -1  -6  434.06   15.20
 -15  -1   6  452.05   14.20
 -15   1   6  450.85   15.90
  15   1  -6  453.35   14.10
  15   1  -6  435.56   15.20
  13  -1  -6  547.55   18.10
 -13  -1   6  564.14   17.20
 -13  -1   6  574.44   18.90
 -13   1   6  559.54   17.30
  13   1  -6  549.35   18.10
 -13   1   6  578.94   19.10
 -13   1   6  551.84   16.90
  11  -1  -6  251.47    8.80
 -11  -1   6  253.27    8.30
 -11  -1   6  244.08    8.10
 -11  -1   6  255.37    9.70
  11   1  -6  240.08    9.50
 -11   1   6  254.87    8.10
 -11   1   6  242.18    9.60
  11   1  -6  257.07    8.80
 -11   1   6  254.47    7.90
   9  -1  -6  604.74   18.40
  -9  -1   6  612.74   18.10
  -9  -1   6  600.14   18.10
  -9  -1   6  606.24   18.10
  -9   1   6  583.94   19.60
  -9   1   6  601.44   17.90
   9   1  -6  592.84   18.30
   9   1  -6  595.54   19.60
  -9   1   6  597.24   17.80
   9   1  -6  611.44   18.20
  -7  -1   6  930.41   26.70
   7  -1  -6  876.21   27.00
   7  -1  -6  917.51   26.60
  -7  -1   6  897.61   26.90
  -7   1   6  908.01   28.30
  -7   1   6  915.91   26.80
   7   1  -6  910.31   26.80
   7   1  -6  917.01   26.90
  -7   1   6  936.31   27.00
  -7   1   6  885.31   26.70
   7   1  -6  893.71   28.20
  -5  -1   6  537.65   16.10
  -5  -1   6  539.85   16.50
  -5  -1   6  534.45   17.30
   5  -1  -6  539.55   16.10
   5  -1  -6  531.75   16.30
  -5  -1   6  521.35   15.90
  -5   1   6  536.75   17.30
   5   1  -6  544.95   16.00
   5   1  -6  548.85   16.30
  -5   1   6  525.75   17.30
  -5   1   6  538.05   16.30
  -5   1   6  545.15   16.50
   5   1  -6  535.15   17.40
  -5   1   6  524.95   16.10
   3  -1  -6  968.40   28.30
  -3  -1   6  968.20   29.10
   3  -1  -6  938.11   28.00
   3  -1  -6  927.51   28.90
  -3  -1   6  947.21   28.70
   3  -1  -6  934.61   28.40
  -3  -1   6  945.31   28.00
   3   1  -6  943.61   27.80
   3   1  -6  939.91   28.00
  -3   1   6  953.50   28.90
  -3   1   6  936.61   29.00
   3   1  -6  938.01   29.10
  -3   1   6  977.00   28.20
   3   1  -6  956.40   28.40
  -3   1   6  949.51   28.90
  -3   1   6  980.30   28.80
   1  -1  -6  359.56   11.60
   1  -1  -6  371.96   12.10
   1  -1  -6  387.26   12.20
  -1  -1   6  361.66   12.40
   1  -1  -6  376.56   12.40
  -1  -1   6  375.76   11.70
  -1  -1   6  365.66   12.60
  -1   1   6  374.96   11.90
  -1   1   6  369.46   12.50
   1   1  -6  358.06   11.40
  -1   1   6  364.16   12.60
  -1   1   6  356.26   12.00
   1   1  -6  362.36   12.30
  -1  -1  -6   91.79    3.80
   1  -1   6   79.99    4.60
   1  -1   6   94.09    4.00
   1  -1   6   92.49    4.20
   1  -1   6   87.59    4.50
  -1  -1  -6   85.99    3.70
  -1   1  -6   91.39    4.00
  -1   1  -6   84.99    3.70
   1   1   6   86.19    3.70
   1   1   6   85.99    4.50
   1   1   6   85.69    4.60
  -3  -1  -6  559.34   17.10
   3  -1   6  542.55   18.90
   3  -1   6  550.24   18.70
   3  -1   6  586.34   17.70
  -3  -1  -6  554.54   17.70
   3  -1   6  566.24   17.50
  -3   1  -6  539.15   17.40
  -3   1  -6  558.44   17.60
   3   1   6  554.54   17.10
   3   1   6  545.35   18.90
   5  -1   6  233.78    7.90
  -5  -1  -6  230.38    8.60
   5  -1   6  231.58    9.80
   5  -1   6  225.08    8.10
   5  -1   6  220.18    9.50
  -5  -1  -6  225.98    7.40
  -5   1  -6  222.68    7.90
   5   1   6  225.18    7.40
   5   1   6  234.68    7.40
   5   1   6  220.28    9.70
  -5   1  -6  225.08    8.50
  -7  -1  -6  111.59    5.40
   7  -1   6  116.89    4.50
   7  -1   6  102.49    6.30
  -7   1  -6  117.19    4.60
  -7   1  -6  105.79    5.30
   7   1   6  109.39    6.40
   9  -1   6   69.89    5.20
  -9  -1  -6   60.29    4.10
  -9   1  -6   70.09    3.10
   9   1   6   66.49    5.00
  -9   1  -6   65.59    4.20
  11  -1   6   60.59    5.10
 -11  -1  -6   59.59    4.20
 -11   1  -6   59.49    4.20
  11   1   6   47.00    4.70
  13  -1   6   97.09    6.90
 -13  -1  -6  115.79    6.40
 -13   1  -6   97.09    6.00
  15  -1   6   51.49    5.40
 -15  -1  -6   58.39    4.70
 -15   1  -6   54.29    4.70
  15   1   6   61.39    4.90
 -17  -1  -6   25.20    3.70
  17  -1   6   32.00    4.10
  17   1   6   30.80    4.00
 -17   1  -6   31.00    3.90
 -26  -2   6   32.00    4.30
  26   2  -6   33.60    3.10
 -26   2   6   31.40    4.40
 -24  -2   6   25.80    3.70
 -24  -2   6   21.20    3.00
 -24   2   6   23.50    3.60
 -24   2   6   23.50    3.30
  24   2  -6   25.90    2.60
 -22  -2   6   22.60    2.90
 -22  -2   6   18.40    3.00
  22  -2  -6   20.10    2.00
  22  -2  -6   19.10    3.20
 -22   2   6   23.10    3.40
 -22   2   6   19.30    3.00
  22   2  -6   18.90    2.20
 -20  -2   6   82.99    5.40
  20  -2  -6   94.39    5.80
  20  -2  -6   96.59    4.20
 -20  -2   6   86.69    5.20
 -20   2   6   89.39    5.70
  20   2  -6   89.49    4.50
 -18  -2   6    8.90    2.00
  18  -2  -6    9.50    2.10
 -18  -2   6    9.80    2.00
  18  -2  -6   12.90    1.30
 -18   2   6   10.30    2.20
  18   2  -6   12.90    1.50
  16  -2  -6  127.29    4.60
 -16  -2   6  122.29    6.20
 -16  -2   6  129.99    6.00
  16  -2  -6  127.59    6.10
 -16  -2   6  127.79    5.20
  16   2  -6  113.99    5.80
  16   2  -6  125.39    5.00
 -16   2   6  131.29    5.60
 -16   2   6  120.29    6.40
  14  -2  -6   70.39    2.80
 -14  -2   6   69.39    4.20
 -14  -2   6   69.89    3.30
  14  -2  -6   73.39    4.00
  14   2  -6   66.29    4.20
 -14   2   6   68.39    2.80
  14   2  -6   76.19    4.00
 -14   2   6   74.59    3.60
 -14   2   6   73.39    4.50
 -12  -2   6  102.29    4.10
  12  -2  -6   98.89    4.60
  12   2  -6  106.29    5.30
 -12   2   6  103.19    3.80
 -12   2   6  101.99    5.40
 -12   2   6  101.99    3.50
 -10  -2   6  374.86   11.90
  10  -2  -6  372.56   12.20
 -10  -2   6  379.26   11.70
 -10   2   6  390.36   13.50
  10   2  -6  375.16   12.10
 -10   2   6  374.36   11.30
 -10   2   6  370.36   11.30
  10   2  -6  373.36   13.20
  -8  -2   6   32.20    1.50
  -8  -2   6   30.10    1.70
   8  -2  -6   30.70    1.30
  -8   2   6   27.50    1.40
   8   2  -6   29.20    1.60
   8   2  -6   24.90    2.40
   8   2  -6   32.10    1.80
  -8   2   6   29.90    2.50
   6  -2  -6  289.87    9.60
   6  -2  -6  301.97    9.10
  -6  -2   6  296.37    9.70
  -6  -2   6  294.07    9.00
  -6  -2   6  302.87    9.10
  -6   2   6  293.87   10.60
   6   2  -6  307.97    9.60
  -6   2   6  281.77    9.40
   6   2  -6  293.97   10.70
  -6   2   6  296.07    9.40
  -6   2   6  306.97    9.50
  -6   2   6  310.17    9.70
   6   2  -6  293.67    9.10
  -4  -2   6  299.67   10.30
  -4  -2   6  276.67    9.60
   4  -2  -6  282.37    9.10
   4  -2  -6  288.47    9.30
  -4  -2   6  291.97    8.80
   4  -2  -6  279.17    9.20
   4   2  -6  284.67    8.80
   4   2  -6  284.87    8.70
  -4   2   6  291.77   10.10
  -4   2   6  293.27    9.50
  -4   2   6  295.27   10.20
  -4   2   6  292.17    9.60
   4   2  -6  287.37   10.30
   4   2  -6  287.27    9.30
  -4   2   6  286.87    9.20
  -4   2   6  289.57    9.50
  -2  -2   6  191.48    7.30
   2  -2  -6  197.38    6.80
  -2  -2   6  185.58    6.20
   2  -2  -6  183.28    6.50
   2  -2  -6  192.78    6.90
   2  -2  -6  184.68    6.30
  -2  -2   6  179.68    6.90
  -2   2   6  179.38    6.80
  -2   2   6  180.18    7.00
  -2   2   6  183.18    6.90
   2   2  -6  187.08    5.90
  -2   2   6  173.08    6.80
   2   2  -6  181.28    7.10
   0  -2   6  243.78    9.10
   0  -2   6  251.77    9.00
   0  -2  -6  246.28    8.40
   0  -2   6  253.47    8.30
   0   2   6  252.07    8.50
   0   2  -6  248.58    8.90
   0   2   6  251.87    9.30
   0   2   6  249.97    8.50
   0   2  -6  229.88    8.00
   2  -2   6   41.30    2.50
   2  -2   6   33.60    2.80
   2  -2   6   38.40    2.70
   2  -2   6   41.50    2.60
  -2  -2  -6   37.10    2.40
   2  -2   6   35.60    3.00
  -2   2  -6   39.00    2.60
  -2   2  -6   37.90    2.30
   2   2   6   41.20    2.10
   2   2   6   37.80    2.10
   2   2   6   36.30    3.00
   4  -2   6  189.18    8.10
   4  -2   6  192.38    7.20
   4  -2   6  188.08    7.00
   4  -2   6  172.68    8.10
  -4  -2  -6  184.58    7.20
   4   2   6  185.18    6.10
  -4   2  -6  175.78    6.90
   4   2   6  175.38    8.10
   4   2   6  185.48    6.20
  -4   2  -6  179.88    7.00
  -6  -2  -6   71.29    4.00
   6  -2   6   67.69    4.60
   6  -2   6   74.19    3.60
   6  -2   6   73.19    4.90
   6  -2   6   71.09    3.80
   6   2   6   75.59    4.90
  -6   2  -6   74.19    3.70
  -6   2  -6   70.49    3.90
   8  -2   6   16.30    1.60
   8  -2   6   13.40    2.50
  -8  -2  -6   13.30    2.00
  -8   2  -6   13.30    1.60
   8   2   6   16.60    2.70
  -8   2  -6   12.60    2.00
  10  -2   6   55.29    4.80
 -10  -2  -6   53.39    3.90
 -10   2  -6   52.89    3.10
 -10   2  -6   54.39    3.90
  10   2   6   51.29    4.70
 -12  -2  -6   36.00    3.50
  12  -2   6   33.70    4.10
  12   2   6   31.00    3.50
 -12   2  -6   29.90    3.30
  14  -2   6   36.20    4.50
 -14  -2  -6   43.80    4.00
  14   2   6   41.60    4.20
 -14   2  -6   37.80    3.80
  16  -2   6   15.70    3.40
 -16  -2  -6   17.20    3.00
 -16   2  -6   18.00    3.00
  16   2   6   15.20    3.10
 -25  -3   6    6.00    2.30
 -25   3   6    9.60    2.70
  25   3  -6    6.60    1.70
 -25   3   6    8.20    2.50
  23  -3  -6   39.90    4.30
 -23  -3   6   26.50    3.60
 -23  -3   6   23.70    3.00
  23   3  -6   29.60    2.80
 -23   3   6   28.40    3.90
 -23   3   6   35.30    3.90
  21  -3  -6   -0.80    0.60
  21  -3  -6    0.10    1.30
 -21  -3   6    0.90    1.20
 -21  -3   6   -0.10    1.20
  21   3  -6    0.60    1.00
 -21   3   6   -2.30    1.20
  19  -3  -6   43.80    3.90
  19  -3  -6   41.90    2.40
 -19  -3   6   48.80    3.70
 -19  -3   6   44.90    3.60
 -19   3   6   44.80    4.10
  19   3  -6   44.80    2.90
  17  -3  -6   55.69    3.90
 -17  -3   6   59.89    3.30
 -17  -3   6   56.49    4.00
  17  -3  -6   57.69    2.60
 -17  -3   6   51.19    3.70
 -17   3   6   63.99    4.50
 -17   3   6   54.99    3.30
  17   3  -6   57.39    3.10
 -15  -3   6   31.70    3.00
  15  -3  -6   33.40    2.90
 -15  -3   6   29.80    2.60
  15  -3  -6   35.30    1.70
 -15  -3   6   31.00    2.20
 -15   3   6   37.20    2.40
  15   3  -6   39.90    3.20
  15   3  -6   38.60    2.30
 -15   3   6   31.60    3.30
  13  -3  -6    7.60    1.40
 -13  -3   6    7.80    1.10
 -13  -3   6    8.50    1.30
 -13   3   6    6.60    1.00
 -13   3   6    7.30    0.60
 -13   3   6    8.80    1.90
  13   3  -6    9.90    1.80
  13   3  -6    7.90    1.40
 -11  -3   6    2.50    0.70
 -11  -3   6    4.90    0.80
  11  -3  -6    5.80    1.10
 -11   3   6    4.00    0.40
  11   3  -6    4.40    1.30
 -11   3   6    2.50    1.10
  11   3  -6    4.70    1.00
   9  -3  -6   17.10    1.50
  -9  -3   6   22.20    1.50
  -9  -3   6   19.50    1.20
   9   3  -6   21.10    1.50
   9   3  -6   14.80    2.00
  -9   3   6   18.00    2.20
  -7  -3   6    0.40    0.50
   7  -3  -6    0.30    0.20
   7  -3  -6    0.80    0.50
  -7  -3   6    0.50    0.30
  -7   3   6   -0.30    0.40
   7   3  -6   -0.50    0.70
  -7   3   6    0.10    0.40
   7   3  -6   -0.20    0.40
  -7   3   6   -0.20    0.70
   5  -3  -6    0.20    0.40
   5  -3  -6   -0.20    0.40
  -5  -3   6    0.60    0.30
  -5  -3   6    0.70    0.60
   5  -3  -6    0.40    0.50
  -5   3   6   -0.30    0.70
   5   3  -6    0.80    0.90
  -5   3   6   -0.40    0.50
   3  -3  -6   20.30    1.90
  -3  -3   6   18.50    1.10
   3  -3  -6   17.80    1.40
   3  -3  -6   18.20    1.60
   3  -3  -6   18.90    1.60
  -3  -3   6   14.50    1.50
   3  -3  -6   13.10    1.20
   3   3  -6   14.30    1.80
  -3   3   6   15.70    1.70
  -3   3   6   18.50    1.70
   3   3  -6   19.10    0.90
   3   3  -6   18.90    0.90
  -3   3   6   17.90    1.80
   1  -3  -6    1.30    0.80
   1  -3  -6    1.70    1.00
  -1  -3   6    2.00    0.60
   1  -3  -6    2.10    0.70
  -1  -3   6    2.30    1.00
   1  -3  -6    2.60    0.70
  -1   3   6    2.40    0.80
   1   3  -6    2.90    1.10
  -1   3   6    3.50    1.10
   1   3  -6    3.50    0.60
  -1   3   6    2.80    0.90
   1  -3   6   74.09    4.10
   1  -3   6   71.79    4.20
  -1  -3  -6   67.59    3.40
   1  -3   6   77.89    3.40
   1   3   6   71.19    3.30
   1   3   6   77.09    4.30
  -1   3  -6   72.49    3.20
   1   3   6   73.99    3.30
  -1   3  -6   71.99    3.80
   3  -3   6   14.10    2.10
  -3  -3  -6   13.40    1.60
   3  -3   6   17.10    2.20
  -3   3  -6   16.00    1.60
   3   3   6   16.90    1.30
   3   3   6   16.90    2.20
   3   3   6   15.70    1.30
   5  -3   6    2.20    1.20
  -5  -3  -6    1.90    0.90
   5  -3   6    3.80    1.50
   5   3   6    2.40    1.30
  -5   3  -6    2.90    1.00
  -5   3  -6    5.50    1.30
   7  -3   6   22.00    2.90
   7  -3   6   32.90    3.50
  -7  -3  -6   29.10    2.60
  -7   3  -6   31.60    2.70
  -7   3  -6   31.00    2.50
   7   3   6   27.20    3.20
   9  -3   6   19.30    3.00
  -9  -3  -6   18.20    2.40
  -9   3  -6   16.70    2.30
  -9   3  -6   19.60    2.10
 -11  -3  -6    7.40    1.90
  11  -3   6    7.80    2.40
 -11   3  -6    8.40    2.00
  11   3   6    6.30    1.90
 -13  -3  -6    3.30    1.50
  13  -3   6    2.50    1.90
 -13   3  -6    3.10    1.60
  13   3   6    4.50    1.70
 -15  -3  -6    0.70    1.40
  15  -3   6    0.50    1.60
 -15   3  -6    2.70    1.70
  15   3   6    1.50    1.40
 -17  -3  -6    2.10    1.70
  17  -3   6    1.40    2.00
  17   3   6    1.20    1.70
 -17   3  -6   -0.50    1.50
 -24  -4   6   16.80    3.20
  24  -4  -6   20.50    3.50
 -24   4   6   16.60    3.20
 -24   4   6   17.30    3.30
  24   4  -6   19.60    2.50
 -22  -4   6   47.80    4.20
 -22  -4   6   44.30    3.80
  22  -4  -6   48.70    4.60
  22   4  -6   47.10    3.30
 -22   4   6   44.60    4.40
 -20  -4   6    8.50    2.10
 -20  -4   6    7.40    1.90
  20  -4  -6    6.10    1.90
  20  -4  -6   10.20    1.30
  20   4  -6    8.50    1.60
 -20   4   6    7.60    2.20
  18  -4  -6   20.80    1.50
 -18  -4   6   21.50    2.20
 -18  -4   6   18.90    2.40
  18  -4  -6   18.20    2.70
 -18  -4   6   19.50    2.50
  18   4  -6   19.20    2.00
 -18   4   6   17.20    2.90
  16  -4  -6   95.49    3.50
 -16  -4   6  103.89    4.60
 -16  -4   6   98.19    5.00
  16  -4  -6  100.89    5.30
 -16   4   6   85.39    4.00
 -16   4   6   92.19    5.70
 -16   4   6   99.19    4.30
  16   4  -6   94.59    5.30
  16   4  -6   97.09    4.40
  14  -4  -6  104.19    5.10
 -14  -4   6  100.09    4.40
 -14  -4   6  107.79    4.80
  14   4  -6  103.89    5.50
 -14   4   6   92.29    3.70
 -14   4   6   99.69    3.40
 -14   4   6  109.29    5.90
 -12  -4   6   38.00    2.40
 -12  -4   6   37.10    2.20
  12  -4  -6   38.00    2.60
 -12   4   6   29.20    3.00
  12   4  -6   31.00    2.90
  10  -4  -6   11.90    1.40
 -10  -4   6   13.10    1.00
 -10  -4   6   15.10    1.40
 -10  -4   6   10.90    1.20
 -10   4   6   12.10    2.00
  10   4  -6   12.10    1.90
  -8  -4   6    4.10    0.70
   8  -4  -6    2.40    0.80
  -8  -4   6    3.60    0.50
  -8  -4   6    3.40    0.80
  -8   4   6    2.90    1.20
   8   4  -6    2.80    1.10
   8   4  -6    3.20    0.60
   6  -4  -6  444.76   13.90
   6  -4  -6  445.56   13.20
  -6  -4   6  430.16   13.90
   6   4  -6  438.96   13.10
   6   4  -6  451.85   15.20
  -6   4   6  415.16   14.80
   4  -4  -6  178.68    6.10
  -4  -4   6  175.18    6.40
   4  -4  -6  175.28    6.20
   4  -4  -6  167.88    6.20
   4  -4  -6  169.88    6.00
  -4   4   6  174.48    7.00
  -4   4   6  166.08    6.10
   4   4  -6  157.28    7.10
  -2  -4   6   15.10    1.60
  -2  -4   6   16.20    1.00
   2  -4  -6   15.80    1.60
   2  -4  -6   14.20    1.30
   2  -4  -6   16.20    1.70
   2  -4  -6   16.00    1.50
   2  -4  -6   15.70    1.70
   2   4  -6   15.30    0.90
  -2   4   6   14.80    1.60
  -2   4   6   14.40    1.70
   2   4  -6   15.10    2.00
   0  -4   6   43.80    2.10
   0  -4  -6   35.60    2.20
   0  -4  -6   41.70    2.50
   0  -4   6   46.30    3.00
   0  -4  -6   37.60    2.40
   0   4  -6   41.80    2.00
   0   4   6   42.30    2.50
   0   4   6   36.80    2.80
   0   4  -6   43.70    2.10
   0   4   6   44.30    2.60
  -2  -4  -6    0.60    0.60
   2  -4   6    1.90    1.00
   2  -4   6    0.00    0.70
   2   4   6    1.40    0.60
  -2   4  -6   -0.50    0.80
  -2   4  -6    0.70    0.80
   2   4   6   -0.80    0.80
   2   4   6    0.80    0.60
  -2   4  -6   -0.10    0.60
  -4  -4  -6   76.29    3.90
   4  -4   6   77.69    4.80
   4  -4   6   63.19    4.30
   4   4   6   70.79    2.90
  -4   4  -6   77.29    3.70
   4   4   6   68.39    2.90
  -4   4  -6   76.69    4.30
   6  -4   6   59.19    4.20
  -6  -4  -6   50.89    3.30
   6  -4   6   50.69    4.20
   6   4   6   46.50    3.50
  -6   4  -6   61.19    3.50
  -6   4  -6   53.29    3.50
   8  -4   6   10.40    2.30
   8  -4   6   16.00    2.80
  -8  -4  -6   16.20    2.20
  -8   4  -6   18.70    2.20
   8   4   6   12.20    2.20
  -8   4  -6   14.50    2.00
  10  -4   6   36.20    4.00
 -10  -4  -6   39.90    3.40
 -10   4  -6   33.50    2.90
  10   4   6   32.20    3.40
 -10   4  -6   27.80    2.90
 -12  -4  -6   48.10    4.00
  12  -4   6   53.89    5.10
  12   4   6   50.99    4.40
 -12   4  -6   50.99    4.10
 -12   4  -6   65.59    4.00
  14  -4   6   25.30    3.90
 -14  -4  -6   21.70    3.00
 -14   4  -6   18.70    2.90
  14   4   6   20.00    3.20
  16  -4   6    0.50    1.80
 -16  -4  -6    1.30    1.50
  16   4   6    1.20    1.40
 -16   4  -6    1.80    1.60
 -25  -5   6   23.00    3.50
 -25  -5   6   21.20    2.80
  25  -5  -6   22.50    3.90
  25   5  -6   22.60    2.70
 -25   5   6   25.20    4.00
 -25   5   6   27.20    4.00
 -23  -5   6   65.19    5.00
  23  -5  -6   71.89    5.60
 -23  -5   6   72.29    4.60
 -23   5   6   70.69    5.60
  23   5  -6   70.49    4.40
 -21  -5   6   46.40    3.90
  21  -5  -6   41.60    4.30
 -21  -5   6   39.70    3.80
 -21  -5   6   47.20    3.50
  21   5  -6   42.10    3.20
 -21   5   6   50.49    4.70
 -19  -5   6   11.90    2.20
 -19  -5   6    8.20    1.60
  19  -5  -6    8.10    2.00
 -19  -5   6    7.80    1.90
 -19   5   6    9.70    2.50
  19   5  -6    5.90    1.40
  17  -5  -6   91.39    3.30
  17  -5  -6   81.69    5.00
 -17  -5   6   84.89    4.80
 -17  -5   6   93.19    4.50
 -17   5   6   87.69    5.70
  17   5  -6   84.69    4.30
  17   5  -6   78.29    5.00
 -15  -5   6  368.86   12.20
 -15  -5   6  359.66   12.40
  15  -5  -6  346.17   12.90
 -15   5   6  360.86   13.90
 -15   5   6  332.47   10.80
  15   5  -6  366.26   13.40
 -13  -5   6  323.87   11.20
  13  -5  -6  317.17   11.60
 -13  -5   6  336.57   11.20
  13   5  -6  325.37   12.50
 -13   5   6  331.77   12.80
 -11  -5   6  119.89    4.80
  11  -5  -6  110.59    5.00
 -11  -5   6  116.89    4.60
 -11  -5   6  118.49    4.40
  11   5  -6  119.19    5.90
 -11   5   6  112.69    6.00
  -9  -5   6  255.37    8.00
  -9  -5   6  257.47    8.30
  -9  -5   6  262.17    8.90
  -9   5   6  254.57   10.20
   9   5  -6  263.27   10.20
   7  -5  -6  630.44   19.90
  -7  -5   6  636.54   19.90
  -7   5   6  648.64   21.20
   7   5  -6  659.53   21.30
   5  -5  -6  396.56   11.90
   5  -5  -6  394.76   11.90
   5  -5  -6  362.36   12.20
  -5  -5   6  367.26   12.40
   5   5  -6  371.76   13.50
  -5   5   6  383.06   11.60
  -5   5   6  360.36   13.20
   3  -5  -6  332.07   10.80
  -3  -5   6  327.37   11.10
   3  -5  -6  319.37   10.80
   3  -5  -6  336.67   11.00
   3  -5  -6  323.77   10.50
   3   5  -6  319.67   11.90
  -3   5   6  328.47   10.50
  -3   5   6  308.57   11.40
   1  -5  -6  214.98    7.70
   1  -5  -6  193.78    7.10
   1  -5  -6  201.68    7.40
  -1  -5   6  201.58    7.80
   1   5  -6  206.78    6.40
   1   5  -6  190.38    8.30
  -1   5   6  202.68    7.30
   1   5  -6  206.48    6.40
  -1   5   6  192.38    7.60
  -1  -5  -6  119.69    4.90
  -1  -5  -6  105.09    4.90
  -1  -5  -6  114.99    4.90
   1  -5   6  111.99    5.50
  -1   5  -6  116.09    4.40
  -1   5  -6  114.59    5.80
  -1   5  -6  122.79    4.40
   1   5   6  124.69    5.00
   1   5   6  117.79    5.10
   3  -5   6   95.69    5.50
  -3  -5  -6   92.09    4.60
   3  -5   6   99.39    5.30
   3   5   6  110.59    4.30
   3   5   6  106.79    4.20
   3   5   6   97.89    4.90
  -3   5  -6  115.89    5.60
  -3   5  -6   97.39    4.30
   5  -5   6  172.78    8.50
   5  -5   6  177.28    8.30
  -5  -5  -6  188.98    7.50
  -5   5  -6  188.58    8.00
  -5   5  -6  190.28    7.30
   5   5   6  184.38    6.10
   5   5   6  181.68    7.80
   5   5   6  187.88    6.20
   7  -5   6   91.59    5.70
  -7  -5  -6   90.39    4.90
   7  -5   6   94.29    5.90
  -7   5  -6   86.39    4.70
   7   5   6   93.19    5.20
  -7   5  -6  100.69    5.30
   9  -5   6    7.90    2.30
   9  -5   6   16.00    2.80
  -9  -5  -6   11.20    2.00
  -9   5  -6   13.80    2.20
  -9   5  -6   14.50    2.20
   9   5   6    8.20    2.00
 -11  -5  -6   52.29    4.00
  11  -5   6   57.89    5.10
 -11   5  -6   59.89    4.10
 -11   5  -6   50.39    4.00
  11   5   6   59.59    4.50
 -13  -5  -6   59.99    4.60
  13  -5   6   66.69    5.70
  13   5   6   64.19    4.90
 -13   5  -6   58.49    4.50
  15  -5   6   39.20    4.90
 -15  -5  -6   47.60    4.30
 -15   5  -6   42.40    4.10
  15   5   6   40.30    4.30
 -24  -6   6   77.79    5.60
  24  -6  -6   78.49    6.30
 -24  -6   6   85.79    5.20
 -24   6   6   88.59    6.50
  24   6  -6   75.39    4.80
  22  -6  -6   77.39    5.80
 -22  -6   6   78.29    5.30
 -22  -6   6   97.09    5.20
 -22  -6   6   80.69    5.20
 -22   6   6   78.99    6.00
  22   6  -6   76.09    4.60
 -20  -6   6  145.49    6.60
 -20  -6   6  139.59    7.00
  20  -6  -6  136.09    7.50
 -20  -6   6  117.69    6.60
 -20   6   6  133.69    7.70
  20   6  -6  129.59    6.10
 -18  -6   6   32.60    2.80
  18  -6  -6   33.90    3.50
 -18  -6   6   36.50    3.20
 -18   6   6   37.50    4.10
  18   6  -6   44.50    3.80
  18   6  -6   37.50    2.80
  16  -6  -6  255.87   10.40
 -16  -6   6  261.27    9.60
 -16  -6   6  249.38    9.60
 -16   6   6  248.48   11.10
  16   6  -6  254.27   10.60
 -14  -6   6  255.07    9.50
 -14  -6   6  274.37    9.70
  14  -6  -6  262.27   10.20
 -14   6   6  269.17   11.30
  14   6  -6  276.97   10.90
 -12  -6   6  265.77    9.40
 -12  -6   6  260.27    8.80
 -12  -6   6  268.07    9.10
  12  -6  -6  260.97    9.70
 -12   6   6  253.67   10.80
  12   6  -6  269.97   10.70
 -10  -6   6  452.05   14.60
  10  -6  -6  447.86   14.80
 -10  -6   6  451.45   13.90
 -10  -6   6  446.86   13.70
 -10   6   6  446.86   16.10
  10   6  -6  445.36   16.00
   8  -6  -6  435.36   14.30
  -8  -6   6  432.16   12.90
  -8  -6   6  441.56   14.20
  -8   6   6  436.16   15.60
   8   6  -6  446.16   15.70
   6  -6  -6  399.96   12.80
  -6  -6   6  411.76   13.70
   6  -6  -6  443.96   12.90
   6  -6  -6  421.56   13.60
   6   6  -6  439.16   15.10
  -6   6   6  403.86   14.70
  -6   6   6  407.36   12.40
   4  -6  -6  490.55   14.80
  -4  -6   6  466.75   15.10
   4  -6  -6  456.55   14.50
   4  -6  -6  445.76   14.50
   4  -6  -6  447.76   14.80
  -4   6   6  463.75   14.10
  -4   6   6  442.16   15.60
   2  -6  -6  516.25   16.40
   2  -6  -6  522.95   16.80
  -2  -6   6  519.35   17.10
   2  -6  -6  559.64   17.20
   2   6  -6  503.75   18.20
  -2   6   6  528.45   17.40
  -2   6   6  518.65   16.40
   0  -6  -6  387.96   12.60
   0  -6  -6  381.26   12.90
   0  -6   6  382.56   13.40
   0   6   6  382.06   12.70
   0   6   6  377.16   13.00
   0   6  -6  371.76   14.00
   0   6  -6  386.86   11.60
   0   6  -6  381.06   11.80
  -2  -6  -6  197.68    7.40
  -2  -6  -6  194.18    7.30
   2  -6   6  203.28    8.30
  -2  -6  -6  189.08    7.60
  -2   6  -6  193.88    6.70
  -2   6  -6  199.68    8.60
   2   6   6  202.38    7.30
  -2   6  -6  197.38    7.00
   2   6   6  193.48    7.70
   4  -6   6  267.27   10.80
   4  -6   6  267.67   11.10
  -4  -6  -6  279.77    9.10
  -4  -6  -6  273.17   10.00
   4   6   6  273.17    9.10
  -4   6  -6  263.07    9.50
  -4   6  -6  266.27   10.80
   4   6   6  271.87   10.30
   6  -6   6  116.49    6.70
  -6  -6  -6  101.39    5.30
   6  -6   6  131.59    6.70
  -6   6  -6  120.69    5.40
  -6   6  -6  113.79    6.10
   6   6   6  116.99    5.90
   8  -6   6   48.50    4.50
   8  -6   6   52.29    4.40
  -8  -6  -6   44.90    3.50
   8   6   6   48.60    3.80
  -8   6  -6   53.69    3.60
  -8   6  -6   50.79    3.90
 -10  -6  -6   61.09    4.20
  10  -6   6   58.19    5.00
  10  -6   6   63.19    5.20
 -10   6  -6   71.59    4.70
 -10   6  -6   55.99    4.10
  10   6   6   61.69    4.50
  12  -6   6  103.09    7.20
 -12  -6  -6  115.69    6.30
 -12   6  -6  108.39    6.10
  12   6   6  101.49    6.30
 -12   6  -6  107.09    6.10
  14  -6   6  107.39    7.70
 -14  -6  -6  109.29    6.50
 -14   6  -6  116.99    6.70
  14   6   6  105.09    6.70
  16  -6   6   52.59    5.70
 -16  -6  -6   45.50    4.40
 -16   6  -6   38.50    4.20
  16   6   6   51.29    4.80
 -23  -7   6  136.19    6.90
  23  -7  -6  126.09    8.10
 -23  -7   6  147.59    7.60
  23   7  -6  136.59    6.80
 -23   7   6  144.89    8.50
 -21  -7   6   67.89    4.70
 -21  -7   6   73.29    4.50
  21  -7  -6   65.49    5.30
 -21  -7   6   70.79    4.80
  21   7  -6   59.69    4.10
 -21   7   6   63.29    5.50
  19  -7  -6  290.87   12.70
 -19  -7   6  313.77   11.90
 -19  -7   6  314.57   11.80
 -19   7   6  313.47   13.60
  19   7  -6  321.07   12.60
 -17  -7   6  264.07   10.20
 -17  -7   6  266.97   10.20
  17  -7  -6  259.47   11.00
 -17   7   6  288.67   12.20
  17   7  -6  269.57   11.20
  15  -7  -6   40.00    3.20
 -15  -7   6   43.10    2.90
 -15  -7   6   36.10    2.70
 -15   7   6   42.80    4.20
  15   7  -6   37.30    3.50
 -13  -7   6  137.49    5.40
  13  -7  -6  127.09    6.10
 -13  -7   6  130.89    5.70
 -13   7   6  137.89    7.20
  13   7  -6  130.19    6.80
 -11  -7   6  264.17    9.30
 -11  -7   6  258.07    8.50
 -11  -7   6  256.37    8.40
  11  -7  -6  250.17    9.50
 -11   7   6  255.37   10.80
  11   7  -6  256.27   10.60
  -9  -7   6  113.99    3.90
  -9  -7   6  120.69    4.00
   9  -7  -6  113.69    5.10
  -9  -7   6  120.49    5.10
  -9   7   6  114.79    6.20
   9   7  -6  118.39    6.20
   7  -7  -6  187.98    7.30
   7  -7  -6  209.28    6.10
   7  -7  -6  199.48    6.40
  -7  -7   6  190.48    7.40
   7   7  -6  185.88    8.60
  -7   7   6  205.08    8.70
   5  -7  -6  317.27   11.00
  -5  -7   6  325.77   11.30
   5  -7  -6  342.07   10.80
  -5   7   6  323.67   12.20
  -5   7   6  320.67   10.00
  -3  -7   6  260.67    9.60
   3  -7  -6  272.97    9.40
   3  -7  -6  272.77    9.60
   3  -7  -6  260.67    9.00
  -3   7   6  270.47    8.80
  -3   7   6  268.37   10.20
   3   7  -6  246.28   10.70
   1  -7  -6  171.98    6.90
  -1  -7   6  182.78    7.40
   1  -7  -6  180.68    6.70
  -1   7   6  180.38    6.70
  -1   7   6  185.28    7.40
   1   7  -6  176.48    8.20
   1  -7   6  206.98    8.70
  -1  -7  -6  223.18    8.00
  -1  -7  -6  222.28    8.30
  -1   7  -6  214.28    9.40
   1   7   6  209.88    8.10
  -1   7  -6  217.08    7.00
   1   7   6  210.78    8.10
  -1   7  -6  217.18    7.30
  -3  -7  -6  224.38    7.80
  -3  -7  -6  198.38    8.10
  -3  -7  -6  202.48    7.80
   3  -7   6  191.88    8.60
   3   7   6  196.88    8.00
  -3   7  -6  200.68    7.40
  -3   7  -6  204.08    9.10
   3   7   6  203.78    7.60
  -5  -7  -6  202.48    7.10
  -5  -7  -6  200.88    8.00
   5  -7   6  187.08    9.00
   5  -7   6  197.08    8.90
   5   7   6  198.58    7.20
  -5   7  -6  201.38    7.70
   5   7   6  198.68    8.30
  -5   7  -6  185.58    8.80
   5   7   6  196.08    7.00
   7  -7   6  182.78    8.70
  -7  -7  -6  177.68    7.60
   7  -7   6  179.28    9.00
  -7   7  -6  178.78    7.50
   7   7   6  167.18    7.90
  -7   7  -6  183.78    8.50
   9  -7   6  141.79    7.70
   9  -7   6  128.99    7.70
  -9  -7  -6  123.39    6.30
   9   7   6  129.49    6.70
  -9   7  -6  122.29    6.20
  -9   7  -6  129.59    7.00
  11  -7   6   91.79    6.50
 -11  -7  -6   84.39    5.20
  11  -7   6   83.29    6.00
  11   7   6   94.09    5.70
 -11   7  -6   76.59    5.00
 -11   7  -6   78.59    5.40
  13  -7   6  130.49    8.50
 -13  -7  -6  137.19    7.30
 -13   7  -6  147.39    7.60
  13   7   6  146.99    7.80
 -13   7  -6  140.59    7.40
  15  -7   6   44.10    5.20
 -15  -7  -6   53.99    4.60
  15   7   6   39.80    4.40
 -15   7  -6   40.50    4.10
 -22  -8   6   29.50    3.10
 -22  -8   6   23.40    3.10
  22  -8  -6   31.00    4.20
 -22   8   6   29.50    4.30
  20  -8  -6   41.00    4.20
 -20  -8   6   38.60    3.30
 -20  -8   6   34.00    3.30
  20   8  -6   35.30    3.80
 -20   8   6   37.80    4.60
  18  -8  -6   80.69    5.40
 -18  -8   6   88.19    4.90
 -18  -8   6   92.19    4.90
 -18   8   6   80.49    6.00
  18   8  -6   85.79    5.60
 -16  -8   6   19.90    2.10
 -16  -8   6   19.00    2.20
  16  -8  -6   22.50    2.80
  16   8  -6   18.50    2.80
 -16   8   6   22.00    3.50
 -14  -8   6   52.39    3.30
 -14  -8   6   48.00    2.90
  14  -8  -6   53.09    3.70
  14   8  -6   45.80    4.10
 -14   8   6   54.39    4.60
 -12  -8   6  140.39    5.20
 -12  -8   6  136.79    6.00
  12  -8  -6  134.79    6.20
 -12  -8   6  144.59    5.30
 -12   8   6  122.79    7.20
  12   8  -6  138.09    7.10
  10  -8  -6  159.48    6.60
 -10  -8   6  160.98    5.30
 -10  -8   6  158.48    5.40
 -10  -8   6  157.88    6.50
  10   8  -6  157.18    7.80
 -10   8   6  155.68    7.90
  -8  -8   6  148.69    6.10
   8  -8  -6  145.99    6.10
   8   8  -6  142.19    7.30
  -8   8   6  146.59    7.30
   6  -8  -6   44.20    2.80
  -6  -8   6   46.40    2.90
   6  -8  -6   47.50    2.00
   6  -8  -6   47.00    2.50
  -6   8   6   44.90    3.60
   4  -8  -6   83.69    3.80
   4  -8  -6   87.59    4.10
  -4  -8   6   82.99    4.30
   4  -8  -6   92.39    4.20
  -4   8   6   89.79    5.00
  -4   8   6   84.39    3.30
   4   8  -6   88.89    5.50
   2  -8  -6  126.29    5.10
   2  -8  -6  134.29    5.50
  -2  -8   6  120.99    5.70
  -2   8   6  126.49    6.10
   2   8  -6  127.29    6.80
  -2   8   6  128.09    5.00
   0  -8  -6  387.76   13.10
   0  -8  -6  393.36   13.60
   0  -8   6  403.46   14.20
   0   8   6  392.76   14.00
   0   8  -6  412.46   12.00
   0   8  -6  403.86   12.30
   0   8   6  399.46   13.20
   0   8  -6  389.36   15.10
   2  -8   6  228.48    9.50
  -2  -8  -6  228.88    8.90
  -2  -8  -6  230.18    8.60
  -2   8  -6  228.78    8.00
   2   8   6  227.18    8.70
  -2   8  -6  235.28   10.30
  -2   8  -6  236.78    7.50
   2   8   6  230.98    8.80
   4  -8   6   30.60    3.10
  -4  -8  -6   32.40    2.50
  -4  -8  -6   29.50    2.70
   4  -8   6   29.20    3.30
   4   8   6   37.90    2.50
   4   8   6   30.90    2.50
   4   8   6   31.10    2.80
  -4   8  -6   29.90    2.30
  -4   8  -6   33.50    3.60
  -6  -8  -6   79.09    4.50
   6  -8   6   86.19    5.50
   6  -8   6   81.59    5.60
   6   8   6   77.69    3.70
  -6   8  -6   80.99    4.30
   6   8   6   78.89    3.80
  -6   8  -6   84.09    5.50
   6   8   6   85.79    4.90
   8  -8   6   85.49    5.70
  -8  -8  -6   75.69    4.60
   8  -8   6   79.89    5.90
  -8   8  -6   87.79    5.70
  -8   8  -6   78.09    4.60
   8   8   6   79.79    5.00
 -10  -8  -6   35.00    3.30
  10  -8   6   35.30    4.20
  10  -8   6   33.30    4.00
 -10   8  -6   30.70    3.80
  10   8   6   33.70    3.50
 -10   8  -6   35.70    3.30
  12  -8   6   16.40    3.40
  12  -8   6   19.60    3.40
 -12  -8  -6   16.30    2.60
 -12   8  -6   15.50    2.90
 -12   8  -6   12.30    2.40
  12   8   6   13.90    2.60
 -14  -8  -6   12.30    2.50
  14  -8   6   12.70    3.30
 -14   8  -6   11.30    2.50
  14   8   6    9.70    2.40
 -23  -9   6    3.90    1.70
 -23  -9   6    2.10    1.70
  23  -9  -6    4.50    2.40
 -23   9   6   -1.90    2.00
 -21  -9   6   10.80    2.20
 -21  -9   6   10.40    2.10
  21  -9  -6   14.50    3.20
 -21   9   6   10.20    2.90
 -19  -9   6   31.80    3.10
  19  -9  -6   36.30    4.00
 -19  -9   6   36.30    3.10
  19   9  -6   33.30    3.70
 -19   9   6   40.40    4.70
  17  -9  -6   -0.10    1.20
 -17  -9   6    0.90    1.00
 -17  -9   6    1.60    1.10
  17   9  -6    1.40    1.50
 -17   9   6    0.60    1.80
 -15  -9   6    3.00    1.10
 -15  -9   6    0.40    0.90
  15  -9  -6    2.10    1.30
  15   9  -6    0.20    1.30
 -15   9   6    1.40    1.80
 -13  -9   6    8.60    1.60
  13  -9  -6    6.60    1.60
 -13  -9   6    7.70    1.10
  13   9  -6    7.60    2.10
 -13   9   6    8.40    2.20
 -11  -9   6    0.30    0.70
 -11  -9   6    1.20    0.80
  11  -9  -6    1.70    1.10
 -11  -9   6    1.20    0.60
  11   9  -6   -1.00    1.00
 -11   9   6    1.40    1.30
   9  -9  -6   49.40    3.20
  -9  -9   6   48.30    2.10
  -9  -9   6   49.99    1.90
  -9  -9   6   50.49    3.20
  -9  -9   6   50.79    2.00
   9   9  -6   58.69    4.40
  -9   9   6   58.69    4.40
   7  -9  -6    1.10    0.70
   7  -9  -6   -0.10    0.70
   7  -9  -6    0.50    0.30
  -7  -9   6    0.00    0.70
  -7   9   6    0.30    1.10
   5  -9  -6    3.10    1.00
  -5  -9   6    4.20    1.20
   5  -9  -6    4.10    0.70
   5  -9  -6    3.20    1.10
   5   9  -6    3.80    1.70
  -5   9   6    2.60    1.30
   3  -9  -6   10.90    1.50
   3  -9  -6    5.70    1.10
  -3  -9   6    8.30    1.60
   3   9  -6   10.40    2.30
  -3   9   6   11.60    2.10
  -3   9   6   10.10    1.10
   1  -9  -6   24.80    1.90
   1  -9  -6   24.80    2.20
  -1  -9   6   20.30    2.30
  -1   9   6   24.50    1.90
   1   9  -6   21.10    3.10
  -1   9   6   16.40    2.30
  -1  -9  -6   85.89    4.50
  -1  -9  -6   85.19    4.10
   1  -9   6   87.69    5.00
  -1   9  -6   90.69    3.20
   1   9   6   88.89    5.00
   1   9   6   91.39    4.80
  -1   9  -6   82.19    3.50
   1   9   6   85.19    4.20
  -1   9  -6   85.79    5.70
  -3  -9  -6   32.70    2.80
  -3  -9  -6   31.10    2.50
   3  -9   6   29.10    3.10
   3   9   6   34.50    3.00
  -3   9  -6   33.30    3.80
   3   9   6   36.80    2.80
   3   9   6   33.20    2.70
  -3   9  -6   33.60    2.30
  -5  -9  -6    0.00    0.80
  -5  -9  -6   -1.20    0.60
   5  -9   6    0.10    1.20
   5  -9   6    0.30    1.20
   5   9   6    1.80    0.90
   5   9   6   -0.30    0.90
  -5   9  -6    0.50    0.90
  -5   9  -6   -1.80    1.30
   5   9   6    0.10    1.00
   7  -9   6   22.50    3.20
  -7  -9  -6   22.60    2.50
   7  -9   6   21.80    3.30
  -7   9  -6   21.00    2.30
  -7   9  -6   19.50    3.20
   7   9   6   22.20    2.70
   9  -9   6   71.49    5.50
   9  -9   6   66.59    5.60
  -9  -9  -6   71.29    4.60
  -9   9  -6   72.29    5.50
   9   9   6   72.29    4.80
  -9   9  -6   75.89    4.60
  11  -9   6    8.70    2.80
 -11  -9  -6    8.00    2.00
  11  -9   6    5.70    2.40
  11   9   6    9.90    2.30
 -11   9  -6    8.40    2.00
 -11   9  -6    7.70    2.50
  13  -9   6    0.60    1.90
 -13  -9  -6    0.50    1.30
  13  -9   6    1.00    2.00
 -13   9  -6    1.10    1.50
 -13   9  -6    0.40    1.80
  13   9   6    1.10    1.50
 -22 -10   6    9.60    2.10
  22 -10  -6   10.30    2.90
 -22 -10   6    7.00    2.10
 -22  10   6   10.50    3.10
  20 -10  -6    0.20    1.70
 -20 -10   6   -0.80    1.20
 -20 -10   6    1.10    1.20
 -20  10   6    0.10    2.10
 -18 -10   6    0.90    1.30
  18 -10  -6   -0.10    1.40
 -18 -10   6    1.50    1.20
 -18  10   6   -1.70    1.70
  18  10  -6    0.50    1.70
  16 -10  -6    3.10    1.50
 -16 -10   6    3.20    1.30
 -16 -10   6    3.20    1.20
 -16  10   6    1.00    1.70
  16  10  -6    1.60    1.60
  14 -10  -6   50.09    3.80
 -14 -10   6   51.39    3.40
 -14 -10   6   48.40    2.70
  14  10  -6   46.80    4.40
 -14  10   6   41.60    4.60
  12 -10  -6   25.20    2.60
 -12 -10   6   31.80    2.60
 -12 -10   6   27.60    1.70
  12  10  -6   31.50    3.70
 -12  10   6   22.00    3.40
 -10 -10   6    2.30    0.50
  10 -10  -6    0.60    0.90
 -10 -10   6    2.30    0.50
 -10 -10   6    4.00    1.20
  10  10  -6    2.70    1.60
 -10  10   6    0.70    1.30
  -8 -10   6  155.28    6.70
   8 -10  -6  161.38    5.30
   8 -10  -6  149.69    6.60
  -8  10   6  151.78    8.00
   8  10  -6  173.08    8.40
   6 -10  -6    2.00    0.90
   6 -10  -6    0.50    0.40
  -6 -10   6    0.90    0.90
  -6  10   6    0.90    1.20
   6  10  -6   -0.50    1.30
  -4 -10   6   23.00    2.30
   4 -10  -6   25.50    1.60
   4 -10  -6   24.30    2.20
   4  10  -6   21.40    3.30
  -4  10   6   22.30    3.00
   2 -10  -6   63.39    3.40
   2 -10  -6   62.09    3.60
  -2 -10   6   65.89    4.00
  -2  10   6   70.89    4.60
   2  10  -6   60.69    5.00
  -2  10   6   65.99    3.10
   0 -10  -6   14.50    1.80
   0 -10   6   11.10    2.10
   0 -10  -6    8.70    1.30
   0  10   6    9.20    1.40
   0  10  -6    5.60    2.10
   0  10  -6    9.30    0.90
   0  10   6    9.60    2.00
   0  10   6    9.30    2.20
   2 -10   6   16.60    2.50
  -2 -10  -6   14.00    2.00
  -2 -10  -6   17.30    1.80
  -2  10  -6   14.40    1.50
   2  10   6   10.40    2.20
   2  10   6   17.20    1.90
   2  10   6   14.80    2.20
  -2  10  -6   15.70    3.00
   4 -10   6   -0.70    1.00
  -4 -10  -6   -0.80    0.70
  -4 -10  -6    0.60    0.80
   4  10   6    0.50    0.90
   4  10   6   -1.20    0.70
  -4  10  -6   -1.40    1.40
  -4  10  -6    0.00    0.80
   4  10   6    0.10    1.10
   6 -10   6   -1.70    1.10
  -6 -10  -6   -0.20    0.90
   6 -10   6   -1.70    1.00
  -6 -10  -6    1.10    1.00
  -6  10  -6   -0.20    0.90
   6  10   6   -1.00    0.90
  -6  10  -6    0.30    1.60
   8 -10   6    1.40    1.70
  -8 -10  -6    1.10    1.20
   8 -10   6    1.60    1.80
  -8  10  -6   -0.20    1.70
  -8  10  -6    1.90    1.30
   8  10   6    1.30    1.30
  10 -10   6   16.00    3.30
 -10 -10  -6   11.00    2.20
  10 -10   6   18.60    3.50
  10  10   6   20.50    2.90
 -10  10  -6   13.90    2.40
 -10  10  -6   14.90    3.20
 -12 -10  -6   13.10    2.50
  12 -10   6   14.10    3.30
  12 -10   6   11.50    3.20
 -12  10  -6   11.00    2.30
  12  10   6   11.00    2.40
 -12  10  -6   10.00    2.90
  21 -11  -6   35.10    4.50
 -21 -11   6   35.50    3.70
 -21  11   6   44.90    5.40
  19 -11  -6   80.49    6.00
 -19 -11   6   85.59    5.30
 -19  11   6   67.39    6.40
  17 -11  -6   89.69    5.80
 -17 -11   6   71.99    4.70
 -17  11   6   76.19    6.30
  17  11  -6   72.09    5.50
 -15 -11   6   31.40    3.00
 -15 -11   6   37.70    2.40
  15 -11  -6   34.20    3.60
 -15  11   6   27.10    4.20
  15  11  -6   35.00    4.00
  13 -11  -6   18.20    2.60
 -13 -11   6   27.70    1.70
 -13 -11   6   22.60    2.50
 -13  11   6   24.20    3.80
  13  11  -6   19.00    3.30
 -11 -11   6   46.10    2.00
 -11 -11   6   41.20    2.00
 -11 -11   6   44.80    3.30
  11 -11  -6   38.90    3.20
 -11  11   6   41.50    4.50
  11  11  -6   42.40    4.40
  -9 -11   6   42.50    3.10
  -9  11   6   39.10    4.30
   9  11  -6   48.10    4.50
   7 -11  -6   39.30    2.00
  -7 -11   6   34.90    2.90
   7 -11  -6   39.60    2.90
   7  11  -6   52.19    4.80
  -7  11   6   37.50    4.00
  -5 -11   6  152.18    6.90
   5 -11  -6  160.78    6.70
   5 -11  -6  157.28    5.60
   5  11  -6  149.39    8.50
  -5  11   6  160.28    8.10
   3 -11  -6   33.50    2.60
   3 -11  -6   35.80    2.10
  -3 -11   6   30.60    2.90
  -3  11   6   34.80    3.60
   3  11  -6   33.60    4.10
  -1 -11   6   22.70    2.60
   1 -11  -6   24.50    2.10
   1 -11  -6   26.80    2.40
   1  11  -6   27.10    3.80
  -1  11   6   27.50    3.50
  -1  11   6   28.40    3.10
  -1  11   6   26.60    2.00
  -1 -11  -6   65.69    3.60
   1 -11   6   64.99    4.50
  -1 -11  -6   64.89    3.90
  -1  11  -6   69.69    5.60
   1  11   6   61.19    4.30
   1  11   6   63.49    4.70
   1  11   6   71.39    3.70
   3 -11   6   27.30    3.30
  -3 -11  -6   26.00    2.30
  -3 -11  -6   22.10    2.50
   3  11   6   19.80    2.20
  -3  11  -6   29.80    4.10
   3  11   6   27.10    2.70
   3  11   6   28.20    3.10
  -5 -11  -6   73.69    4.50
  -5 -11  -6   68.59    4.10
   5 -11   6   68.99    5.10
  -5  11  -6   60.79    5.70
   5  11   6   75.89    4.40
  -7 -11  -6   38.80    3.50
  -7 -11  -6   38.30    3.20
   7 -11   6   39.80    4.40
   7 -11   6   47.40    4.50
  -7  11  -6   46.90    5.00
   7  11   6   39.80    3.50
   9 -11   6   29.30    4.00
  -9 -11  -6   23.90    2.80
  -9 -11  -6   25.70    3.10
   9 -11   6   23.60    3.90
  -9  11  -6   30.30    4.20
   9  11   6   20.80    2.90
  11 -11   6   21.60    4.00
  11 -11   6   21.90    3.80
 -11 -11  -6   23.00    2.90
  11  11   6   25.50    3.30
 -11  11  -6   26.70    4.20
  18 -12  -6   95.09    6.40
 -18 -12   6   95.49    5.70
  18  12  -6  100.09    6.80
 -18  12   6  110.99    7.80
  16 -12  -6   17.50    2.90
 -16 -12   6   14.30    2.40
  16  12  -6   12.20    2.80
 -16  12   6   20.00    3.90
  14 -12  -6   61.09    4.50
 -14 -12   6   55.19    3.90
  14  12  -6   59.79    5.20
 -14  12   6   53.39    5.40
 -12 -12   6  127.99    6.30
  12 -12  -6  129.59    6.60
 -12  12   6  138.19    8.10
  12  12  -6  126.09    7.70
 -10 -12   6  172.08    7.50
  10 -12  -6  162.88    7.40
 -10  12   6  169.68    9.10
  10  12  -6  176.48    9.20
  -8 -12   6   45.60    3.30
   8 -12  -6   48.90    3.40
  -8  12   6   46.40    4.60
   6 -12  -6  120.79    4.70
  -6 -12   6  126.29    6.10
   6  12  -6  126.99    7.90
  -6  12   6  127.09    7.30
   4 -12  -6   91.49    4.80
  -4 -12   6   93.99    5.20
   4 -12  -6  101.59    4.10
  -4  12   6  102.89    6.20
   4  12  -6   97.89    6.70
  -4  12   6   88.79    6.30
   2 -12  -6   78.99    4.30
  -2 -12   6   85.79    5.00
   2 -12  -6   82.79    4.20
   2 -12  -6   84.49    3.90
  -2  12   6   79.59    5.80
  -2  12   6   79.89    5.40
   2  12  -6   81.59    6.20
   0 -12   6  178.78    8.70
   0 -12  -6  194.38    8.10
   0 -12  -6  200.08    7.80
   0 -12  -6  212.38    7.80
   0  12  -6  207.38   10.60
   0  12   6  204.88    9.60
   0  12   6  206.48    9.30
   0  12   6  205.18    7.60
  -2 -12  -6  107.69    5.60
  -2 -12  -6  122.29    5.40
   2 -12   6  110.39    6.40
   2  12   6   99.39    6.30
   2  12   6  115.19    5.30
   2  12   6  114.29    6.10
  -2  12  -6  114.99    7.60
   4 -12   6   95.69    6.20
  -4 -12  -6   98.69    4.90
  -4 -12  -6   93.09    5.20
   4  12   6   98.19    5.40
   4  12   6   95.69    5.00
  -4  12  -6   91.09    7.00
   4  12   6  100.49    5.70
   6 -12   6   49.90    5.00
  -6 -12  -6   63.79    4.30
  -6 -12  -6   55.59    3.80
   6 -12   6   50.29    4.80
   6  12   6   59.89    4.10
  -6  12  -6   63.29    5.90
   8 -12   6   45.60    4.80
  -8 -12  -6   56.69    4.30
  -8 -12  -6   57.69    4.00
   8 -12   6   58.29    5.50
   8  12   6   57.09    4.20
  -8  12  -6   47.10    5.40
 -10 -12  -6   64.39    4.40
  10 -12   6   57.09    5.80
 -10 -12  -6   52.59    4.40
  10 -12   6   51.69    5.40
  10  12   6   49.60    4.30
 -10  12  -6   52.29    5.60
  17 -13  -6   20.80    3.40
 -17 -13   6   24.00    3.00
  17  13  -6   24.30    3.90
 -17  13   6   24.50    4.30
  15 -13  -6   25.80    3.40
 -15 -13   6   27.60    3.10
  15  13  -6   27.70    4.00
 -15  13   6   32.90    4.70
  13 -13  -6   70.99    4.80
 -13 -13   6   71.29    4.60
 -13  13   6   77.29    6.20
  13  13  -6   70.49    5.70
 -11 -13   6   82.29    4.90
  11 -13  -6   90.19    5.20
  11  13  -6   91.99    6.50
 -11  13   6   86.99    6.50
  -9 -13   6  130.99    6.50
   9 -13  -6  143.89    6.60
  -9  13   6  131.79    8.00
   9  13  -6  123.39    7.90
  -7 -13   6   55.29    3.90
   7 -13  -6   51.79    3.60
  -7  13   6   61.89    5.60
  -7  13   6   54.39    5.00
   7  13  -6   51.29    5.30
   5 -13  -6   46.70    3.30
  -5 -13   6   43.60    3.50
  -5  13   6   46.00    5.00
   5  13  -6   45.10    5.10
  -5  13   6   53.69    4.80
  -3 -13   6   72.99    4.60
   3 -13  -6   71.69    3.50
   3 -13  -6   65.19    4.00
  -3  13   6   70.29    5.60
  -3  13   6   78.39    5.60
   3  13  -6   71.89    5.90
   1 -13  -6  138.89    6.20
   1 -13  -6  127.29    5.60
  -1 -13   6  120.19    6.70
   1 -13  -6  132.99    5.80
  -1  13   6  140.79    7.90
   1  13  -6  124.39    8.20
  -1  13   6  146.19    7.60
   1 -13   6  157.68    8.10
  -1 -13  -6  173.98    7.10
  -1 -13  -6  162.58    7.30
  -1 -13  -6  169.18    7.00
   1  13   6  170.48    8.30
   1  13   6  176.18    6.90
   1  13   6  166.38    8.70
  -1  13  -6  159.58    9.60
  -3 -13  -6  104.09    5.20
   3 -13   6  101.29    6.40
  -3 -13  -6  106.09    5.60
   3  13   6  108.09    6.10
   3  13   6  114.19    5.40
  -3  13  -6  103.99    7.60
   3  13   6  104.09    6.30
  -5 -13  -6   35.60    2.90
  -5 -13  -6   22.80    2.80
   5 -13   6   36.00    4.10
  -5  13  -6   38.00    5.00
   5  13   6   34.00    3.00
   7 -13   6   55.59    5.60
   7 -13   6   64.69    5.50
  -7 -13  -6   69.09    4.40
  -7 -13  -6   70.19    4.70
  -7  13  -6   74.29    6.60
   7  13   6   74.49    4.70
   9 -13   6  116.29    8.20
   9 -13   6  121.99    8.00
  -9 -13  -6  127.19    6.40
  -9 -13  -6  130.09    6.90
   9  13   6  110.99    6.40
  -9  13  -6  116.49    8.40
 -16 -14   6   35.30    3.60
  16 -14  -6   36.80    4.10
 -16  14   6   38.20    5.30
 -16  14   6   48.80    6.20
  16  14  -6   41.40    4.80
 -14 -14   6    8.60    2.00
  14 -14  -6   11.60    2.50
  14  14  -6   10.50    2.90
 -14  14   6    8.80    3.00
 -14  14   6   11.40    3.60
  12 -14  -6    9.90    2.30
 -12 -14   6   12.60    2.30
  12  14  -6   14.50    3.30
 -12  14   6   16.80    4.00
 -12  14   6   14.80    3.40
 -10 -14   6   22.60    2.70
  10 -14  -6   18.00    2.50
  10  14  -6   20.30    3.80
 -10  14   6   21.10    3.70
 -10  14   6   14.00    3.80
  -8 -14   6   16.60    2.40
  -8  14   6   10.90    3.10
  -8  14   6   15.10    3.30
  -6 -14   6   29.60    3.10
   6 -14  -6   33.80    3.00
  -6  14   6   37.20    4.70
  -6  14   6   31.70    4.20
   6  14  -6   34.10    4.70
   4 -14  -6   24.80    2.60
  -4 -14   6   30.00    3.10
  -4  14   6   21.00    3.70
   4  14  -6   25.50    4.20
  -4  14   6   25.10    3.70
   2 -14  -6   27.20    2.60
  -2 -14   6   28.20    3.20
   2 -14  -6   25.00    2.10
  -2  14   6   28.70    4.00
   2  14  -6   25.00    4.20
  -2  14   6   34.50    4.00
   0 -14   6   18.70    2.90
   0 -14  -6   17.90    2.30
   0 -14  -6   19.00    2.10
   0 -14  -6   24.70    2.20
   0  14   6   27.00    3.80
   0  14  -6   31.20    4.60
   0  14   6   19.00    3.10
  -2 -14  -6   72.99    4.40
  -2 -14  -6   67.99    4.00
   2 -14   6   55.39    4.70
  -2 -14  -6   63.09    3.80
   2  14   6   74.09    5.20
   2  14   6   70.39    4.00
   2  14   6   60.49    5.10
  -2  14  -6   73.29    6.60
  -4 -14  -6   43.00    3.50
   4 -14   6   39.60    4.30
  -4 -14  -6   41.20    3.30
  -4 -14  -6   38.70    3.00
  -4  14  -6   38.00    5.20
   4  14   6   40.10    3.20
   6 -14   6   59.29    5.40
  -6 -14  -6   70.69    4.20
   6 -14   6   61.39    5.90
  -6 -14  -6   59.39    4.40
   6  14   6   68.39    4.40
  -6  14  -6   60.79    6.40
  13 -15  -6    4.40    1.90
 -13 -15   6    6.70    1.80
 -13  15   6    3.30    2.40
  13  15  -6    5.60    2.60
 -13  15   6    7.50    3.30
  11 -15  -6   27.50    3.10
 -11 -15   6   26.20    3.10
 -11  15   6   18.60    4.20
  11  15  -6   24.10    4.20
 -11  15   6   23.90    4.30
  -9 -15   6    9.70    2.20
   9 -15  -6   12.20    2.30
  -9  15   6   12.10    3.30
  -9  15   6    9.10    2.70
  -7 -15   6    8.80    2.10
   7 -15  -6   13.10    2.20
   7  15  -6   13.70    3.40
  -7  15   6   13.50    3.40
  -7  15   6    9.70    2.70
   5 -15  -6    0.80    1.00
  -5 -15   6   -0.70    1.00
  -5  15   6    0.20    1.60
   5  15  -6    0.00    1.90
  -5  15   6    0.20    2.20
  -3 -15   6   25.30    3.10
   3 -15  -6   22.40    2.50
  -3  15   6   34.00    4.20
  -3  15   6   15.50    3.40
   3  15  -6   25.10    4.30
  -1 -15   6   34.90    3.70
   1 -15  -6   31.20    2.90
  -1  15   6   29.10    3.90
  -1  15   6   25.70    4.00
   1  15  -6   34.50    5.00
   1 -15   6    5.90    2.20
  -1 -15  -6    6.10    1.50
  -1 -15  -6    7.70    1.80
  -1 -15  -6   10.50    1.80
   1  15   6    9.20    2.50
  -1  15  -6   10.70    3.30
   1  15   6    8.00    2.70
  -3 -15  -6   18.90    2.20
  -3 -15  -6   17.00    2.30
  -3 -15  -6   21.20    2.60
   3 -15   6   18.10    3.30
  -3  15  -6   19.40    4.20
   5 -15   6    6.10    2.40
  -5 -15  -6    5.00    1.60
  -5 -15  -6    7.10    1.90
  -5 -15  -6    4.40    1.60
   5  15   6    6.70    1.80
  -5  15  -6    4.90    2.80
 -10 -16   6    2.90    1.50
  10 -16  -6    0.70    1.50
 -10  16   6    1.40    2.60
 -10  16   6    1.20    2.20
  10  16  -6    1.00    2.10
   8 -16  -6   -0.40    1.30
  -8 -16   6   -0.60    1.10
  -8  16   6   -1.00    2.20
  -8  16   6   -0.30    1.90
  -6 -16   6    0.60    1.40
   6 -16  -6    0.20    1.20
  -6  16   6    2.30    2.00
   6  16  -6    1.90    2.30
  -6  16   6    3.00    2.50
  -4 -16   6   -0.10    1.30
   4 -16  -6    0.10    1.00
  -4  16   6    1.10    2.40
  -4  16   6    1.20    1.90
   4  16  -6    0.20    2.10
   2 -16  -6    2.70    1.30
  -2 -16   6   -0.30    1.40
  -2  16   6   -0.80    1.70
  -2  16   6   -0.90    2.10
   2  16  -6    3.90    2.70
   0 -16  -6    1.10    1.20
   0 -16   6    1.50    1.70
   0  16   6    2.60    2.00
   0  16   6    4.70    2.40
   0  16  -6    2.10    2.60
  -2 -16  -6    2.50    1.40
   2 -16   6    4.40    2.20
  -2  16  -6    6.30    3.20
 -26   0   7    2.30    2.00
 -26   0   7   -1.60    1.50
  24   0  -7   -0.60    0.80
 -24   0   7   -2.90    1.20
 -24   0   7    0.80    1.80
  22   0  -7    0.40    0.80
 -22   0   7   -0.10    1.30
 -22   0   7   -0.90    1.40
  20   0  -7    0.00    0.70
 -20   0   7    0.50    1.20
 -20   0   7   -0.10    1.30
  20   0  -7   -1.10    1.10
  18   0  -7   -0.10    1.20
 -18   0   7   -1.20    0.70
 -18   0   7    1.00    1.20
  18   0  -7    0.50    0.60
  16   0  -7   -0.70    0.70
 -16   0   7    1.40    0.60
 -16   0   7    0.30    1.10
  14   0  -7    0.60    0.80
 -14   0   7   -0.20    0.80
 -14   0   7   -0.10    0.40
 -12   0   7    0.30    0.50
  12   0  -7   -0.80    0.50
 -12   0   7   -0.50    0.80
 -12   0   7   -0.10    0.40
  10   0  -7    0.70    0.60
 -10   0   7    0.40    0.40
  10   0  -7   -0.10    0.40
 -10   0   7   -0.40    0.30
 -10   0   7   -1.40    0.60
   8   0  -7   -0.40    0.70
   8   0  -7    0.10    0.40
  -8   0   7    0.30    0.40
  -8   0   7   -0.20    0.40
  -8   0   7    0.00    0.80
  -8   0   7    0.50    0.40
   6   0  -7   -0.80    0.30
  -6   0   7   -0.70    0.40
  -6   0   7   -0.50    0.40
   6   0  -7   -1.30    0.60
  -6   0   7   -0.40    0.60
   6   0  -7   -0.70    0.30
  -4   0   7    0.30    0.40
   4   0  -7   -0.20    0.60
   4   0  -7    0.50    0.50
  -4   0   7   -0.10    0.60
   4   0  -7   -0.60    0.20
   4   0  -7    0.10    0.30
  -2   0   7   -0.10    0.50
  -2   0   7    0.20    0.70
   2   0  -7    0.60    0.40
   2   0  -7   -0.40    0.40
  -2   0   7   -0.40    0.80
  -2   0   7   -0.80    0.60
   2   0  -7    0.80    0.70
   0   0   7    1.30    1.00
   0   0  -7    1.50    0.80
   0   0   7    1.70    0.80
   0   0  -7    0.00    0.50
   0   0   7    0.60    0.80
   2   0   7   -0.60    0.80
  -2   0  -7   -0.80    0.60
   2   0   7   -0.30    0.60
   2   0   7    0.60    1.00
  -2   0  -7    0.70    0.70
   4   0   7   -0.20    0.60
  -4   0  -7    0.80    0.60
   4   0   7   -0.40    0.90
  -4   0  -7   -0.30    0.60
   4   0   7   -0.40    1.00
   4   0   7    1.50    0.70
   6   0   7   -0.30    1.10
   6   0   7   -0.60    0.60
   6   0   7   -0.20    0.50
  -6   0  -7    0.90    0.60
  -6   0  -7   -0.30    0.70
  -8   0  -7   -0.40    0.80
   8   0   7   -0.90    1.10
  10   0   7   -0.80    1.30
 -10   0  -7   -0.10    1.00
 -12   0  -7    0.40    1.20
  12   0   7   -2.00    1.30
 -14   0  -7    0.80    1.30
  14   0   7    0.30    1.60
  16   0   7    1.20    1.60
 -16   0  -7    0.00    1.40
 -25  -1   7   17.00    3.30
 -25  -1   7   12.20    2.70
 -25   1   7   14.50    3.10
  25   1  -7   11.80    1.90
 -25   1   7   17.70    3.10
  23  -1  -7   28.20    3.70
 -23  -1   7   24.70    3.20
 -23  -1   7   24.80    3.40
  23  -1  -7   26.40    2.20
 -23   1   7   28.10    3.50
 -23   1   7   32.60    3.80
  23   1  -7   24.40    2.30
  21  -1  -7    1.80    1.60
 -21  -1   7    4.40    1.80
  21  -1  -7    1.50    0.80
 -21  -1   7    0.90    1.30
  21   1  -7    3.70    1.10
 -21   1   7    2.40    1.60
  19  -1  -7  105.19    5.80
 -19  -1   7  101.09    4.50
 -19  -1   7   97.09    5.70
 -19  -1   7   93.69    5.50
  19  -1  -7  107.39    4.20
  19   1  -7   96.79    4.30
  19   1  -7   96.39    5.50
 -19   1   7   90.19    5.80
 -17  -1   7    9.40    1.20
  17  -1  -7    6.70    0.90
 -17  -1   7    7.00    1.80
  17  -1  -7    7.20    1.70
 -17   1   7    7.10    1.00
 -17   1   7    3.20    1.60
  17   1  -7    6.40    1.60
  15  -1  -7  186.48    7.60
 -15  -1   7  180.68    6.50
 -15  -1   7  181.78    8.20
 -15   1   7  180.08    6.20
 -15   1   7  191.88    8.40
 -15   1   7  178.88    6.60
  15   1  -7  192.48    7.60
  13  -1  -7   90.99    4.40
 -13  -1   7   88.19    5.10
 -13  -1   7   97.69    3.80
 -13   1   7   90.09    5.20
 -13   1   7   99.79    3.50
  13   1  -7   98.89    4.50
 -13   1   7   95.39    3.80
  11  -1  -7    1.20    0.70
 -11  -1   7    1.50    0.50
 -11  -1   7    0.40    0.90
 -11  -1   7    1.70    0.60
 -11   1   7    1.40    0.50
 -11   1   7    2.10    1.10
  11   1  -7    1.40    0.70
 -11   1   7    1.00    0.40
  11   1  -7    1.80    1.00
   9  -1  -7   52.09    2.20
   9  -1  -7   52.79    2.60
  -9  -1   7   54.49    2.30
  -9  -1   7   54.99    2.50
   9   1  -7   53.89    2.50
  -9   1   7   50.69    2.30
   9   1  -7   51.79    2.40
  -9   1   7   51.39    3.50
   9   1  -7   53.19    3.50
  -7  -1   7  105.29    3.70
  -7  -1   7  110.09    3.90
   7  -1  -7  107.29    3.80
  -7  -1   7  105.69    4.20
   7  -1  -7  106.29    4.10
  -7   1   7  105.29    3.90
  -7   1   7  104.39    5.10
  -7   1   7  110.49    4.10
   7   1  -7  108.39    3.90
   7   1  -7  108.89    4.00
  -7   1   7  109.39    4.10
   7   1  -7  104.49    5.10
   5  -1  -7  376.46   11.90
  -5  -1   7  382.26   12.50
   5  -1  -7  382.16   13.20
  -5  -1   7  387.46   11.80
   5  -1  -7  370.56   12.10
   5  -1  -7  382.46   12.10
  -5   1   7  394.16   12.30
   5   1  -7  386.26   12.20
   5   1  -7  397.26   13.40
  -5   1   7  392.56   12.50
   5   1  -7  387.16   11.70
  -5   1   7  389.16   12.00
  -5   1   7  371.76   12.60
  -5   1   7  401.96   13.30
   5   1  -7  378.56   11.80
   3  -1  -7   24.60    1.90
   3  -1  -7   26.90    1.60
  -3  -1   7   26.30    1.70
   3  -1  -7   26.20    2.20
   3  -1  -7   23.20    1.60
  -3  -1   7   29.60    2.20
  -3   1   7   25.90    2.20
  -3   1   7   26.30    2.20
  -3   1   7   30.80    2.40
   3   1  -7   27.90    2.30
  -3   1   7   28.90    2.20
   3   1  -7   26.90    1.40
   3   1  -7   25.20    1.50
  -3   1   7   24.90    1.80
   1  -1  -7  116.79    4.70
   1  -1  -7  129.19    5.30
  -1  -1   7  126.29    5.90
  -1  -1   7  128.59    5.70
  -1  -1   7  136.99    5.00
   1   1  -7  124.99    4.70
  -1   1   7  129.59    5.90
  -1   1   7  135.19    5.80
   1   1  -7  118.89    5.40
  -1   1   7  130.49    5.30
   1  -1   7   37.20    2.70
  -1  -1  -7   45.50    2.60
  -1  -1  -7   42.80    2.50
   1  -1   7   37.40    3.10
   1  -1   7   40.30    3.30
  -1   1  -7   42.30    2.40
  -1   1  -7   42.90    2.70
   1   1   7   45.30    3.40
   1   1   7   43.00    2.50
   1   1   7   47.30    3.30
   3  -1   7    2.80    1.30
  -3  -1  -7    2.10    0.80
   3  -1   7    1.10    1.10
  -3  -1  -7    2.50    0.80
   3  -1   7    3.40    1.00
   3  -1   7    1.70    0.80
   3   1   7    1.30    1.20
   3   1   7    2.40    0.80
  -3   1  -7    3.20    0.90
  -3   1  -7    2.00    0.80
  -5  -1  -7  253.17    9.30
   5  -1   7  253.47    8.90
   5  -1   7  242.58   10.40
   5  -1   7  247.38    8.60
   5  -1   7  231.48   10.50
  -5   1  -7  244.08    8.70
  -5   1  -7  241.48    9.20
   5   1   7  253.17    8.10
   5   1   7  244.18    8.20
   5   1   7  234.68   10.50
   5   1   7  244.48    8.10
   7  -1   7   38.50    4.00
   7  -1   7   43.00    2.50
  -7   1  -7   39.50    3.10
   7   1   7   36.10    3.90
  -7   1  -7   43.20    2.50
   9  -1   7   40.00    4.30
  -9  -1  -7   40.90    3.40
  -9   1  -7   40.70    3.40
  -9   1  -7   44.70    2.40
   9   1   7   37.90    4.10
 -11  -1  -7  142.49    7.30
  11  -1   7  141.29    8.50
 -11   1  -7  149.99    7.30
  11   1   7  147.19    8.70
 -13  -1  -7    3.30    1.70
  13  -1   7    4.90    2.30
 -13   1  -7    4.80    1.80
 -15  -1  -7    0.90    1.40
  15  -1   7   -0.30    1.50
  15   1   7   -0.70    1.20
 -15   1  -7   -0.20    1.20
 -26  -2   7   22.60    3.70
 -26   2   7   24.00    3.60
  26   2  -7   23.60    2.60
 -26   2   7   23.60    3.90
 -24  -2   7   40.20    4.20
 -24  -2   7   29.60    3.50
  24  -2  -7   38.10    4.30
 -24   2   7   30.50    4.00
 -24   2   7   37.40    4.10
  24   2  -7   26.20    2.60
 -22  -2   7   64.89    3.70
  22  -2  -7   60.19    3.20
  22  -2  -7   62.39    4.80
 -22  -2   7   58.89    4.70
 -22  -2   7   56.59    4.50
 -22   2   7   50.79    4.70
  22   2  -7   60.19    3.50
  20  -2  -7    3.20    1.60
 -20  -2   7    3.60    1.60
 -20  -2   7    6.30    1.80
  20  -2  -7    4.70    1.00
 -20  -2   7    3.30    1.10
  20   2  -7    4.30    1.20
 -20   2   7    6.40    2.00
  18  -2  -7   57.79    2.60
 -18  -2   7   55.49    4.10
 -18  -2   7   58.09    3.90
 -18  -2   7   54.79    3.10
  18  -2  -7   50.69    3.90
 -18   2   7   56.29    2.70
  18   2  -7   56.19    4.00
  18   2  -7   53.69    3.00
 -18   2   7   52.19    4.30
 -16  -2   7  276.87    9.50
  16  -2  -7  271.37   10.50
 -16  -2   7  273.87   11.00
 -16   2   7  283.27   11.40
 -16   2   7  281.77    9.80
 -16   2   7  273.07    8.80
  16   2  -7  269.27   10.40
  14  -2  -7  162.78    6.90
 -14  -2   7  165.58    7.60
 -14  -2   7  173.48    6.20
 -14   2   7  166.88    5.90
 -14   2   7  169.98    7.90
  14   2  -7  175.28    7.70
 -14   2   7  170.28    5.60
  14   2  -7  178.68    6.90
  12  -2  -7  158.98    6.20
 -12  -2   7  153.58    5.60
  12   2  -7  153.78    6.00
 -12   2   7  156.48    5.00
  12   2  -7  158.28    7.10
 -12   2   7  155.38    7.20
 -12   2   7  143.39    5.10
 -10  -2   7  540.85   16.00
  10  -2  -7  534.15   16.50
 -10  -2   7  536.65   16.30
 -10   2   7  520.05   17.90
 -10   2   7  524.65   15.70
 -10   2   7  512.05   15.60
  10   2  -7  510.05   16.20
   8  -2  -7  409.16   11.90
  -8  -2   7  399.66   12.00
  -8  -2   7  388.16   12.50
  -8  -2   7  398.16   11.90
   8  -2  -7  392.66   12.50
  -8   2   7  383.36   13.80
   8   2  -7  387.66   13.80
   8   2  -7  382.86   12.10
  -8   2   7  385.86   12.10
   6  -2  -7  121.99    4.70
  -6  -2   7  128.29    4.40
   6  -2  -7  121.69    4.40
  -6  -2   7  122.69    4.20
  -6  -2   7  137.09    5.10
   6   2  -7  127.99    4.30
  -6   2   7  129.59    5.00
  -6   2   7  128.59    4.90
  -6   2   7  133.59    5.80
   6   2  -7  132.39    5.90
  -4  -2   7  504.45   15.10
   4  -2  -7  482.55   15.60
  -4  -2   7  500.25   16.00
   4  -2  -7  495.65   15.30
   4  -2  -7  502.55   15.60
   4   2  -7  503.35   16.70
  -4   2   7  498.75   16.10
   4   2  -7  499.75   14.90
   4   2  -7  505.55   15.00
  -4   2   7  497.45   16.00
  -4   2   7  517.35   16.50
   2  -2  -7  432.56   13.70
  -2  -2   7  432.36   14.60
   2  -2  -7  435.46   14.00
  -2  -2   7  438.66   13.60
   2   2  -7  434.86   13.30
  -2   2   7  447.16   14.70
   2   2  -7  432.66   14.70
  -2   2   7  438.66   14.40
  -2   2   7  431.56   14.70
  -2   2   7  450.25   14.50
   0  -2   7   86.49    4.70
   0  -2   7   86.29    3.80
   0  -2   7   88.99    4.60
   0  -2  -7   88.99    3.80
   0   2   7   82.29    3.90
   0   2  -7   83.99    4.20
   0   2  -7   83.79    3.50
   0   2   7   78.89    3.80
   0   2   7   78.19    4.50
  -2  -2  -7  490.45   16.20
   2  -2   7  505.75   17.70
   2  -2   7  534.05   17.60
   2   2   7  507.35   15.90
  -2   2  -7  509.55   16.10
   2   2   7  495.75   15.80
  -2   2  -7  514.25   16.60
   2   2   7  485.05   17.50
   4  -2   7   30.60    3.20
  -4  -2  -7   32.00    2.50
   4  -2   7   30.10    3.10
  -4   2  -7   29.90    2.40
   4   2   7   34.10    1.90
   4   2   7   35.30    2.00
   4   2   7   25.60    3.00
  -4   2  -7   36.00    2.50
   6  -2   7    7.10    2.10
   6  -2   7   14.60    1.70
   6  -2   7   11.10    2.30
   6  -2   7    9.20    1.50
  -6  -2  -7    8.80    1.70
  -6   2  -7   11.90    1.60
   6   2   7    9.30    2.20
  -6   2  -7   11.80    1.80
   8  -2   7    1.20    1.40
  -8  -2  -7    2.80    1.20
   8   2   7    0.90    1.40
  -8   2  -7    2.30    1.20
  -8   2  -7    0.70    0.90
 -10  -2  -7  143.19    7.20
  10  -2   7  145.29    8.50
 -10   2  -7  159.18    6.10
  10   2   7  161.48    8.80
 -10   2  -7  146.39    7.20
 -12  -2  -7   66.89    4.80
  12  -2   7   69.19    5.90
 -12   2  -7   63.19    4.60
  14  -2   7   51.79    5.40
 -14  -2  -7   51.89    4.50
  14   2   7   47.20    4.60
 -14   2  -7   42.70    4.10
  16  -2   7   18.60    3.90
 -16  -2  -7   19.50    3.20
 -16   2  -7   25.00    3.50
  16   2   7   17.60    3.30
 -25  -3   7   50.49    4.80
  25  -3  -7   62.49    5.50
 -25  -3   7   53.39    3.90
  25   3  -7   57.79    3.80
 -25   3   7   58.29    5.40
 -25   3   7   47.90    4.80
  23  -3  -7   65.79    5.20
 -23  -3   7   65.29    4.00
 -23  -3   7   72.19    5.00
 -23  -3   7   60.19    4.80
  23   3  -7   69.19    4.00
 -23   3   7   72.29    5.50
 -21  -3   7   31.10    2.50
  21  -3  -7   29.10    3.50
 -21  -3   7   22.70    3.00
 -21  -3   7   21.00    2.90
  21   3  -7   32.10    2.50
 -21   3   7   25.00    3.40
 -19  -3   7   29.90    3.10
 -19  -3   7   34.70    2.50
  19  -3  -7   29.70    1.80
 -19  -3   7   33.80    3.40
  19  -3  -7   25.80    3.10
  19   3  -7   34.40    2.40
 -19   3   7   29.50    3.50
 -17  -3   7  313.07   10.80
 -17  -3   7  302.77   11.60
 -17  -3   7  307.57   12.20
  17  -3  -7  310.47   12.00
 -17   3   7  334.07   10.90
 -17   3   7  304.97    9.90
 -17   3   7  324.37   12.80
  15  -3  -7  327.47   11.80
 -15  -3   7  316.37   11.40
 -15  -3   7  311.67   10.80
 -15   3   7  329.07   12.80
  15   3  -7  321.67   11.50
  15   3  -7  308.07   12.30
 -15   3   7  332.77   10.70
 -15   3   7  329.77    9.90
  13  -3  -7  121.59    5.50
 -13  -3   7  124.59    5.00
  13   3  -7  122.09    6.20
 -13   3   7  131.69    4.60
 -13   3   7  128.69    6.60
 -13   3   7  129.29    4.10
  13   3  -7  132.19    5.40
 -11  -3   7   93.79    3.90
  11  -3  -7   95.69    4.20
  11   3  -7   92.59    3.90
 -11   3   7   94.99    5.20
 -11   3   7   90.49    3.10
  -9  -3   7  224.08    7.70
   9  -3  -7  228.78    6.80
   9  -3  -7  228.88    7.90
  -9  -3   7  230.08    7.10
   9   3  -7  219.98    9.00
  -9   3   7  224.58    7.20
  -9   3   7  222.18    9.10
   9   3  -7  226.88    7.40
  -9   3   7  209.28    7.00
   7  -3  -7  747.93   21.20
  -7  -3   7  713.63   22.00
  -7  -3   7  737.23   21.20
   7  -3  -7  694.53   21.90
  -7  -3   7  721.83   21.00
   7   3  -7  706.13   23.20
  -7   3   7  724.73   21.70
  -7   3   7  705.93   23.20
   7   3  -7  716.33   21.20
  -7   3   7  696.93   21.50
  -5  -3   7  147.29    5.70
  -5  -3   7  147.99    4.80
   5  -3  -7  151.38    5.30
   5  -3  -7  149.39    5.50
   5  -3  -7  148.19    5.20
  -5   3   7  143.89    5.60
  -5   3   7  148.29    6.30
  -5   3   7  128.89    5.40
   5   3  -7  141.09    6.40
   5   3  -7  148.39    4.70
   3  -3  -7  227.28    7.80
  -3  -3   7  240.58    7.50
   3  -3  -7  237.68    8.40
  -3  -3   7  231.98    8.50
   3  -3  -7  231.28    8.10
   3  -3  -7  242.38    8.30
  -3   3   7  224.98    8.50
   3   3  -7  228.48    7.30
  -3   3   7  227.78    8.60
   3   3  -7  233.08    7.20
   3   3  -7  229.58    9.00
  -1  -3   7   27.70    2.50
   1  -3  -7   28.70    1.90
   1  -3  -7   26.60    2.00
  -1  -3   7   26.70    1.80
   1   3  -7   26.60    2.40
  -1   3   7   26.90    2.10
  -1   3   7   25.10    2.40
   1   3  -7   24.70    1.50
  -1   3   7   24.20    2.00
   1  -3   7   16.00    2.10
   1  -3   7   17.70    2.30
   1  -3   7   18.90    1.70
  -1  -3  -7   22.00    1.80
   1   3   7   19.70    1.70
   1   3   7   19.60    2.30
  -1   3  -7   21.00    2.20
  -1   3  -7   19.70    1.60
   1   3   7   21.20    1.70
  -3  -3  -7  289.87   10.40
   3  -3   7  275.17   11.60
   3  -3   7  299.87   11.50
  -3   3  -7  287.47   10.60
   3   3   7  295.57   11.60
   3   3   7  291.37    9.60
  -3   3  -7  289.67   10.10
   3   3   7  308.07    9.70
   5  -3   7  171.38    8.50
  -5  -3  -7  175.68    7.30
   5  -3   7  182.18    8.40
  -5   3  -7  168.78    7.00
   5   3   7  170.68    8.40
  -5   3  -7  182.88    7.30
  -7  -3  -7  158.38    7.10
   7  -3   7  166.68    8.30
   7  -3   7  146.69    8.20
  -7   3  -7  162.28    7.00
   7   3   7  154.98    8.30
  -7   3  -7  166.48    6.80
  -9  -3  -7  115.09    6.00
   9  -3   7  104.39    6.90
  -9   3  -7  119.19    5.40
  -9   3  -7  115.09    5.90
 -11  -3  -7  108.69    6.10
  11  -3   7  105.89    7.30
 -11   3  -7  116.49    6.30
  11   3   7  110.09    6.50
  13  -3   7   83.09    6.70
 -13  -3  -7   85.69    5.60
  13   3   7   96.49    6.20
 -13   3  -7   82.19    5.50
 -15  -3  -7    7.80    2.20
  15  -3   7   10.20    3.00
 -15   3  -7    5.50    2.10
  15   3   7    5.90    2.10
 -26  -4   7   24.60    2.90
  26  -4  -7   18.60    3.80
 -26  -4   7   26.00    3.80
 -26   4   7   24.40    4.00
  26   4  -7   27.60    2.90
 -26   4   7   33.80    4.30
  24  -4  -7   33.20    4.30
 -24  -4   7   35.00    3.90
 -24  -4   7   32.20    3.60
 -24  -4   7   40.40    3.30
  24   4  -7   38.60    3.10
 -24   4   7   36.50    4.30
  22  -4  -7   51.79    4.80
 -22  -4   7   57.99    4.50
 -22  -4   7   63.89    3.90
 -22  -4   7   55.19    4.40
 -22   4   7   56.89    4.80
  22   4  -7   59.09    3.70
 -20  -4   7   61.29    4.40
 -20  -4   7   58.89    3.50
 -20  -4   7   54.09    4.10
  20  -4  -7   56.29    4.40
 -20   4   7   53.29    4.60
  20   4  -7   53.89    3.30
 -18  -4   7  106.99    6.00
 -18  -4   7  106.19    5.50
 -18  -4   7  113.39    5.00
  18  -4  -7  103.19    3.80
  18  -4  -7  101.49    5.80
  18   4  -7  108.39    6.10
 -18   4   7  109.59    3.90
 -18   4   7  102.99    6.30
 -16  -4   7  153.68    6.10
 -16  -4   7  146.59    6.50
  16  -4  -7  164.38    7.10
  16   4  -7  141.99    7.30
 -16   4   7  157.68    4.90
 -16   4   7  139.99    7.50
 -16   4   7  149.39    5.40
  14  -4  -7   94.19    4.60
 -14  -4   7   83.79    3.90
 -14  -4   7   83.79    4.10
 -14   4   7   76.89    5.10
  14   4  -7   77.89    4.90
  12  -4  -7  182.08    7.10
 -12  -4   7  182.38    6.20
 -12  -4   7  187.28    6.70
 -12  -4   7  190.38    6.70
 -12   4   7  181.78    8.20
  12   4  -7  156.58    6.50
 -10  -4   7   76.89    3.60
 -10  -4   7   85.19    3.10
  10  -4  -7   81.89    3.80
 -10   4   7   78.39    4.70
  10   4  -7   84.99    4.80
  10   4  -7   80.69    3.40
  -8  -4   7   99.29    3.10
   8  -4  -7   87.49    4.00
  -8  -4   7   97.69    3.20
   8  -4  -7   95.59    3.10
  -8  -4   7   96.79    4.10
   8   4  -7   90.89    3.40
   8   4  -7   87.49    5.00
  -8   4   7   97.99    5.10
   6  -4  -7  423.16   13.50
  -6  -4   7  454.65   14.40
   6  -4  -7  436.16   14.10
  -6   4   7  451.95   13.90
   6   4  -7  450.95   13.20
  -6   4   7  441.96   15.30
   6   4  -7  436.36   15.40
   4  -4  -7   31.70    2.10
  -4  -4   7   31.70    2.30
  -4  -4   7   28.70    1.40
   4  -4  -7   30.30    1.80
   4  -4  -7   28.10    1.90
   4  -4  -7   29.30    2.10
   4   4  -7   31.20    2.80
  -4   4   7   26.50    2.10
   4   4  -7   29.10    1.20
  -4   4   7   28.20    2.40
  -2  -4   7   73.69    3.90
   2  -4  -7   71.09    3.50
   2  -4  -7   74.59    3.30
  -2  -4   7   74.69    2.90
   2  -4  -7   75.39    3.80
  -2   4   7   71.49    3.80
   2   4  -7   69.39    2.70
   2   4  -7   71.09    4.20
  -2   4   7   74.79    3.90
   0  -4  -7  217.88    8.20
   0  -4  -7  216.98    7.90
   0  -4   7  230.88    8.90
   0  -4   7  227.08    7.60
   0   4   7  228.88    8.90
   0   4  -7  222.68    7.40
   0   4   7  218.78    8.10
   0   4  -7  208.38    8.70
   0   4   7  226.38    8.10
   2  -4   7   34.20    3.20
  -2  -4  -7   37.00    2.50
   2  -4   7   41.40    3.20
   2   4   7   36.30    2.30
   2   4   7   33.70    3.10
  -2   4  -7   34.40    2.90
   2   4   7   38.40    2.30
  -2   4  -7   37.60    2.30
   4  -4   7  266.77   11.50
  -4  -4  -7  287.37   10.20
   4  -4   7  277.57   11.30
   4   4   7  277.07    9.00
   4   4   7  275.57    9.00
   4   4   7  277.77   11.40
  -4   4  -7  280.47    9.90
   6  -4   7  113.29    6.60
  -6  -4  -7  124.89    5.90
   6  -4   7  126.89    7.10
  -6   4  -7  121.69    5.70
   8  -4   7   36.60    4.00
   8  -4   7   41.80    4.30
  -8  -4  -7   36.20    3.20
  -8   4  -7   38.10    3.20
   8   4   7   41.70    3.70
 -10  -4  -7  102.19    5.60
  10  -4   7   84.59    6.30
  10   4   7   89.09    5.70
 -10   4  -7   88.09    5.30
  12  -4   7   62.49    5.80
 -12  -4  -7   68.49    4.80
 -12   4  -7   66.79    4.70
  12   4   7   71.69    5.20
  14  -4   7   25.40    4.20
 -14  -4  -7   33.30    3.70
  14   4   7   29.40    3.80
 -14   4  -7   30.20    3.50
 -16  -4  -7    7.50    2.20
  16  -4   7    8.50    2.90
 -16   4  -7    9.70    2.60
  16   4   7    8.20    2.60
  25  -5  -7   28.90    4.30
 -25  -5   7   30.20    3.20
 -25  -5   7   34.70    4.00
 -25   5   7   27.40    4.20
  25   5  -7   34.60    3.20
 -25   5   7   28.30    4.20
  23  -5  -7    4.70    2.10
 -23  -5   7    6.50    2.10
 -23  -5   7    4.20    1.50
 -23  -5   7    5.10    2.00
 -23   5   7    7.30    2.40
  23   5  -7    3.10    1.40
  21  -5  -7   65.69    5.00
 -21  -5   7   52.39    4.30
 -21  -5   7   56.69    4.20
 -21  -5   7   58.29    3.70
 -21   5   7   48.30    4.80
 -19  -5   7   35.10    3.60
 -19  -5   7   37.60    3.30
 -19  -5   7   39.90    2.90
  19  -5  -7   37.30    3.70
 -19   5   7   45.30    4.40
  19   5  -7   40.70    3.80
 -17  -5   7   11.50    1.90
  17  -5  -7   11.50    2.20
 -17  -5   7   12.20    1.70
 -17   5   7   13.50    0.90
 -17   5   7   14.50    2.80
  17   5  -7    9.90    2.20
 -15  -5   7   19.90    2.00
 -15  -5   7   18.70    1.80
  15  -5  -7   16.70    2.20
 -15   5   7   20.10    3.00
  15   5  -7   16.50    2.50
 -13  -5   7   81.79    3.80
  13  -5  -7   76.29    4.20
 -13  -5   7   82.29    3.90
 -13   5   7   91.89    5.40
  13   5  -7   86.89    5.20
 -11  -5   7  109.39    4.70
 -11  -5   7  105.19    4.20
  11  -5  -7  108.09    4.80
 -11  -5   7  111.19    3.90
  11   5  -7  107.59    5.80
 -11   5   7  105.19    5.80
   9  -5  -7  222.58    8.20
  -9  -5   7  228.18    8.10
  -9  -5   7  215.58    7.20
  -9  -5   7  234.98    7.00
  -9   5   7  240.38    9.60
   9   5  -7  216.58    9.30
   7  -5  -7    2.90    0.50
   7  -5  -7    3.20    0.80
  -7  -5   7    5.10    1.00
   7   5  -7    4.90    1.50
  -7   5   7    4.00    0.50
  -7   5   7    4.20    1.30
   5  -5  -7   33.70    2.00
   5  -5  -7   34.40    2.00
   5  -5  -7   33.00    2.10
  -5  -5   7   35.10    2.40
   5  -5  -7   34.70    2.10
  -5   5   7   32.70    1.80
   5   5  -7   31.60    3.00
  -5   5   7   30.90    2.70
   3  -5  -7  143.69    5.80
  -3  -5   7  141.39    6.00
   3  -5  -7  133.49    5.30
   3  -5  -7  142.99    5.70
   3  -5  -7  140.19    5.60
   3   5  -7  142.49    4.50
   3   5  -7  138.29    6.60
  -3   5   7  141.39    5.40
  -3   5   7  132.79    6.00
  -1  -5   7  228.98    8.80
   1  -5  -7  217.08    7.80
   1  -5  -7  224.78    8.20
   1   5  -7  229.08    9.20
   1   5  -7  225.48    7.30
  -1   5   7  210.08    8.10
   1   5  -7  220.58    7.10
  -1   5   7  218.18    8.30
  -1  -5  -7  167.88    6.80
  -1  -5  -7  175.98    7.10
   1  -5   7  180.68    7.80
  -1   5  -7  181.58    6.40
   1   5   7  182.58    7.30
   1   5   7  183.88    6.90
  -1   5  -7  178.38    6.50
   1   5   7  195.68    7.00
   3  -5   7   84.29    5.60
  -3  -5  -7  107.59    4.90
   3  -5   7  104.49    5.70
  -3   5  -7  105.89    5.70
   3   5   7  105.59    4.30
  -3   5  -7  102.29    4.50
   3   5   7  112.69    5.40
   3   5   7  108.19    4.40
   5  -5   7    1.00    1.20
  -5  -5  -7    0.90    0.80
   5  -5   7   -0.70    1.00
   5   5   7    0.20    0.50
   5   5   7   -1.40    0.70
  -5   5  -7    0.50    0.90
  -5   5  -7   -0.60    1.00
   7  -5   7   16.90    2.90
   7  -5   7   15.80    2.90
  -7  -5  -7   14.60    2.10
   7   5   7   13.30    2.30
  -7   5  -7   15.90    2.40
  -7   5  -7   15.90    2.10
   9  -5   7    1.20    1.70
  -9  -5  -7    2.20    1.30
   9  -5   7    1.30    1.70
  -9   5  -7   -0.50    1.20
   9   5   7    3.20    1.50
  -9   5  -7    0.70    1.00
  11  -5   7    0.90    1.70
 -11  -5  -7    1.10    1.20
 -11   5  -7    0.50    1.40
  11   5   7    2.00    1.60
 -11   5  -7   -1.60    1.00
  13  -5   7   25.60    4.10
 -13  -5  -7   29.70    3.40
 -13   5  -7   29.30    3.40
  13   5   7   32.10    3.80
  15  -5   7   46.20    5.50
 -15  -5  -7   51.09    4.60
 -15   5  -7   46.90    4.40
  15   5   7   44.10    4.60
  24  -6  -7    3.60    2.20
 -24  -6   7    3.10    2.00
 -24  -6   7    3.30    1.60
 -24   6   7    2.20    2.20
 -22  -6   7    3.20    1.60
  22  -6  -7    3.80    2.00
 -22  -6   7    5.20    2.00
 -22  -6   7    2.60    1.40
 -22   6   7    6.60    2.40
  20  -6  -7   28.20    3.50
 -20  -6   7   31.50    3.40
 -20  -6   7   32.90    3.20
 -20  -6   7   28.50    2.80
  20   6  -7   25.20    3.30
 -20   6   7   33.70    4.20
 -18  -6   7    5.80    1.30
  18  -6  -7    6.50    1.80
 -18  -6   7    4.40    1.50
  18   6  -7    6.50    2.00
 -18   6   7    8.50    2.50
  16  -6  -7   -0.10    1.00
 -16  -6   7    0.00    0.80
 -16  -6   7   -1.40    0.80
  16   6  -7    0.40    1.30
 -16   6   7    0.50    1.40
 -14  -6   7    1.20    0.80
 -14  -6   7    1.30    0.90
  14  -6  -7    1.10    0.90
 -14   6   7    0.20    1.30
  14   6  -7    1.70    1.40
 -12  -6   7   -0.20    0.60
 -12  -6   7   -0.40    0.60
  12  -6  -7    0.30    0.70
 -12  -6   7    0.60    0.50
 -12   6   7   -0.40    1.10
  12   6  -7   -0.10    1.00
 -10  -6   7    3.30    0.70
 -10  -6   7    4.00    1.00
  10   6  -7    6.50    1.70
 -10   6   7    4.10    1.50
   8  -6  -7    2.40    0.80
  -8  -6   7    0.70    0.60
  -8   6   7    2.80    1.20
   8   6  -7    2.60    1.30
   6  -6  -7   18.20    1.50
   6  -6  -7   17.00    1.40
  -6  -6   7   19.50    1.90
   6  -6  -7   17.90    1.70
   6   6  -7   18.30    2.50
  -6   6   7   17.50    2.30
  -6   6   7   17.70    1.10
   4  -6  -7   16.40    1.70
   4  -6  -7   17.70    1.70
  -4  -6   7   17.90    1.90
   4  -6  -7   17.40    1.70
   4  -6  -7   19.10    1.50
  -4   6   7   18.90    1.50
   4   6  -7   20.40    2.50
  -4   6   7   18.10    2.20
  -2  -6   7    0.80    0.80
   2  -6  -7    0.00    0.50
   2  -6  -7    0.00    0.40
   2   6  -7    0.60    0.30
  -2   6   7    0.30    0.70
  -2   6   7    0.70    0.90
   0  -6  -7   21.00    2.10
   0  -6  -7   22.10    1.90
   0  -6   7   25.00    2.60
   0   6  -7   25.40    2.90
   0   6  -7   23.30    1.50
   0   6   7   24.50    2.20
   0   6   7   23.20    2.10
   0   6  -7   19.50    1.40
   2  -6   7   11.60    2.10
  -2  -6  -7   10.80    1.40
  -2  -6  -7   11.60    1.50
   2  -6   7   14.00    2.40
  -2  -6  -7   13.50    1.80
   2   6   7    8.30    1.60
  -2   6  -7   12.50    1.40
  -2   6  -7   14.10    1.40
   2   6   7   11.50    1.50
   2   6   7   10.10    1.50
  -2   6  -7   13.50    2.30
  -4  -6  -7   14.30    1.80
   4  -6   7   14.50    2.50
   4  -6   7   15.90    2.50
   4   6   7   13.70    1.40
   4   6   7   15.90    1.50
  -4   6  -7   20.50    2.70
  -4   6  -7   11.50    1.60
   4   6   7   15.40    2.20
   6  -6   7  198.98    9.30
  -6  -6  -7  176.78    7.90
   6  -6   7  198.48    9.60
  -6   6  -7  201.38    7.90
  -6   6  -7  194.58    8.80
   6   6   7  188.08    8.50
  -8  -6  -7   68.99    4.40
   8  -6   7   78.19    5.60
   8  -6   7   74.89    5.70
   8   6   7   82.49    5.10
  -8   6  -7   74.49    4.50
  -8   6  -7   73.69    4.90
 -10  -6  -7   11.80    2.20
  10  -6   7   12.50    2.90
  10  -6   7   11.20    2.80
 -10   6  -7   10.10    2.30
  10   6   7   10.00    2.40
 -10   6  -7    8.90    2.00
  12  -6   7    2.60    1.90
 -12  -6  -7    1.20    1.30
 -12   6  -7    0.30    1.30
  12   6   7   -1.90    1.10
 -12   6  -7   -0.50    1.40
 -14  -6  -7    0.30    1.40
  14  -6   7    0.50    2.00
 -14   6  -7    0.20    1.40
  14   6   7    0.60    1.50
 -23  -7   7   -0.40    1.40
  23  -7  -7   -1.80    1.50
 -23  -7   7    2.10    1.70
 -23  -7   7   -0.90    1.20
 -23   7   7   -1.50    1.90
 -21  -7   7    0.50    1.10
 -21  -7   7    1.10    1.50
  21  -7  -7   -0.20    1.40
 -21  -7   7   -0.20    1.30
 -21   7   7    0.80    2.00
  21   7  -7    1.00    1.60
 -19  -7   7   28.70    2.90
 -19  -7   7   25.30    2.70
  19  -7  -7   27.30    3.40
  19   7  -7   29.20    3.50
 -19   7   7   26.50    3.90
 -17  -7   7   87.69    4.70
  17  -7  -7   89.99    5.40
 -17  -7   7   92.59    4.70
  17   7  -7   89.99    5.70
 -17   7   7   90.69    6.20
 -15  -7   7   38.40    2.80
 -15  -7   7   47.00    3.00
  15  -7  -7   39.90    3.20
 -15   7   7   49.30    4.50
  15   7  -7   38.30    3.80
 -13  -7   7    0.10    0.60
 -13  -7   7    0.00    0.70
 -13  -7   7    0.10    0.70
  13  -7  -7    0.90    1.00
 -13   7   7    1.90    1.40
  13   7  -7   -0.60    1.10
 -11  -7   7    0.20    0.70
 -11  -7   7   -0.10    0.50
  11  -7  -7   -0.40    0.70
 -11  -7   7    0.30    0.40
  11   7  -7   -0.80    0.90
 -11   7   7   -0.70    1.00
  -9  -7   7    9.00    1.40
   9  -7  -7   10.10    1.50
  -9   7   7    9.70    2.10
   9   7  -7   11.60    2.20
   7  -7  -7   53.59    3.00
   7  -7  -7   49.50    2.20
  -7  -7   7   55.19    3.10
   7  -7  -7   47.60    1.90
  -7   7   7   49.40    1.90
  -7   7   7   55.19    4.00
   7   7  -7   52.99    4.00
   5  -7  -7    0.80    0.50
   5  -7  -7    0.30    0.50
  -5  -7   7    2.00    0.80
   5  -7  -7    0.20    0.70
   5  -7  -7    0.40    0.80
  -5   7   7    1.40    1.00
  -5   7   7    0.60    0.50
   5   7  -7    1.80    1.20
  -3  -7   7    0.60    0.70
   3  -7  -7    1.40    0.60
   3  -7  -7    2.30    0.80
  -3   7   7    0.80    0.80
  -3   7   7    0.80    0.70
  -1  -7   7    4.00    1.30
   1  -7  -7    3.70    1.00
   1  -7  -7    3.30    0.90
  -1   7   7    5.10    1.20
  -1   7   7    4.90    1.40
   1   7  -7    5.00    1.80
   1   7  -7    4.00    0.50
   1   7  -7    4.30    0.60
   1  -7   7   38.30    3.20
  -1  -7  -7   32.10    2.40
  -1  -7  -7   34.90    2.70
  -1   7  -7   37.60    1.90
   1   7   7   36.00    2.70
  -1   7  -7   38.40    2.10
  -1   7  -7   35.70    3.60
   1   7   7   38.90    2.80
   3  -7   7   46.80    3.70
   3  -7   7   39.30    3.80
  -3  -7  -7   42.00    3.10
  -3  -7  -7   44.30    2.80
  -3  -7  -7   38.30    2.80
  -3   7  -7   42.50    3.80
  -3   7  -7   40.90    2.60
   3   7   7   38.60    2.60
   3   7   7   38.70    3.10
   5  -7   7    5.30    2.00
  -5  -7  -7    8.80    1.60
   5  -7   7    6.50    2.00
   5   7   7    7.20    1.10
   5   7   7    3.90    1.50
  -5   7  -7    4.70    1.30
   5   7   7    6.10    1.10
  -5   7  -7    6.60    2.00
  -7  -7  -7   -0.70    0.80
   7  -7   7   -0.40    1.30
   7  -7   7   -1.00    1.20
  -7   7  -7    0.60    1.40
  -7   7  -7   -0.10    0.90
   7   7   7   -0.80    1.10
   9  -7   7    0.70    1.50
  -9  -7  -7    0.50    1.20
   9  -7   7    1.60    1.70
   9   7   7    0.40    1.20
  -9   7  -7   -0.10    1.40
  -9   7  -7    0.10    1.00
 -11  -7  -7   14.00    2.40
  11  -7   7   11.80    2.90
  11  -7   7   12.30    3.20
 -11   7  -7    6.10    1.90
 -11   7  -7   14.70    2.70
  11   7   7   10.30    2.40
  13  -7   7    3.40    2.40
 -13  -7  -7    3.80    1.70
  13   7   7    2.70    1.80
 -13   7  -7    4.10    1.90
  24  -8  -7   32.00    4.60
 -24  -8   7   27.30    3.50
 -24  -8   7   37.00    3.50
 -24   8   7   32.90    4.70
 -22  -8   7    2.80    1.60
 -22  -8   7    2.40    1.90
 -22  -8   7    5.40    1.80
  22  -8  -7    1.50    2.00
 -22   8   7    2.60    2.10
  20  -8  -7   13.40    2.70
 -20  -8   7   10.40    2.10
 -20  -8   7   12.20    2.10
  20   8  -7    8.70    2.50
 -20   8   7   10.80    3.10
  18  -8  -7   30.30    3.50
 -18  -8   7   29.70    2.70
 -18  -8   7   26.40    2.70
 -18   8   7   32.20    4.20
  18   8  -7   35.70    3.80
  16  -8  -7   77.49    4.80
 -16  -8   7   73.19    4.00
 -16  -8   7   73.19    4.20
 -16   8   7   78.09    5.80
  16   8  -7   74.69    5.30
 -14  -8   7   26.80    2.00
  14  -8  -7   25.90    2.70
 -14  -8   7   24.30    2.30
  14   8  -7   18.10    2.90
 -14   8   7   18.00    3.10
 -12  -8   7    5.50    0.80
 -12  -8   7    5.50    1.30
 -12  -8   7    7.00    1.00
  12  -8  -7   10.90    1.80
 -12   8   7    7.10    2.10
  12   8  -7    7.10    1.90
  10  -8  -7    4.30    1.20
 -10  -8   7    4.60    0.50
 -10  -8   7    4.10    1.10
  10   8  -7    2.50    1.50
 -10   8   7    3.70    1.70
   8  -8  -7   75.39    3.90
  -8  -8   7   72.19    3.90
  -8   8   7   73.39    4.90
   8   8  -7   67.49    4.80
   6  -8  -7   34.70    2.40
  -6  -8   7   34.50    2.50
   6  -8  -7   31.40    2.10
   6  -8  -7   35.30    2.30
   6   8  -7   26.80    3.20
  -6   8   7   33.10    3.30
  -6   8   7   30.50    1.60
   4  -8  -7    4.50    1.10
   4  -8  -7    4.60    1.00
  -4  -8   7    1.60    0.90
   4  -8  -7    2.40    1.10
  -4   8   7    2.50    0.70
  -4   8   7    2.00    1.20
   2  -8  -7    3.20    0.90
   2  -8  -7    2.60    1.00
  -2  -8   7    3.80    1.20
  -2   8   7    2.60    1.10
   2   8  -7    4.00    1.70
  -2   8   7    4.50    1.00
   0  -8  -7   23.30    2.30
   0  -8  -7   22.00    2.00
   0  -8   7   28.30    2.80
   0   8   7   28.90    2.60
   0   8  -7   23.60    3.20
   0   8  -7   24.90    1.50
   0   8   7   25.00    2.20
   0   8  -7   25.40    1.30
  -2  -8  -7    4.40    1.20
  -2  -8  -7    2.10    1.00
   2  -8   7    2.60    1.40
   2   8   7    1.70    1.00
   2   8   7    2.70    1.20
  -2   8  -7    2.70    1.60
  -2   8  -7    2.30    0.90
  -4  -8  -7   45.10    3.30
  -4  -8  -7   41.00    3.00
   4  -8   7   38.10    3.80
   4  -8   7   43.10    4.20
   4   8   7   49.10    3.50
  -4   8  -7   46.20    4.20
  -4   8  -7   42.20    2.80
   4   8   7   46.90    3.00
   4   8   7   43.00    2.80
   6  -8   7   88.09    6.20
   6  -8   7   89.69    5.90
  -6  -8  -7   84.89    4.90
  -6   8  -7   99.19    4.80
   6   8   7   92.99    5.30
  -6   8  -7   90.19    5.90
  -8  -8  -7   11.60    2.10
   8  -8   7   14.90    2.90
   8  -8   7   16.20    3.00
  -8   8  -7    9.50    2.50
  -8   8  -7   14.20    2.10
   8   8   7   11.70    2.40
 -10  -8  -7   -0.80    0.90
  10  -8   7   -0.40    1.60
  10  -8   7    1.80    1.80
 -10   8  -7    0.80    1.20
  10   8   7    0.40    1.20
 -10   8  -7   -0.30    1.60
  12  -8   7   79.19    6.70
  12  -8   7   75.49    6.30
 -12  -8  -7   76.19    5.20
  12   8   7   79.79    5.60
 -12   8  -7   82.69    5.70
 -12   8  -7   77.69    5.10
  23  -9  -7   10.80    3.00
 -23  -9   7    8.80    2.30
 -23  -9   7   12.50    2.30
 -23   9   7   12.90    3.40
  21  -9  -7   25.80    3.80
 -21  -9   7   24.30    2.90
 -21  -9   7   22.60    2.70
 -21   9   7   15.40    3.50
  21   9  -7   20.20    3.40
 -19  -9   7   79.99    4.80
  19  -9  -7   77.09    5.50
 -19  -9   7   74.89    4.50
 -19   9   7   84.19    6.30
  19   9  -7   82.59    5.80
  17  -9  -7    4.40    1.70
 -17  -9   7    5.70    1.50
 -17  -9   7    4.70    1.30
 -17   9   7    6.90    2.40
  17   9  -7    6.00    2.00
 -15  -9   7   39.90    3.00
 -15  -9   7   39.30    2.50
  15  -9  -7   35.20    3.30
  15   9  -7   39.30    4.10
 -15   9   7   44.00    4.70
 -13  -9   7   68.29    4.00
  13  -9  -7   74.39    4.40
 -13  -9   7   74.69    3.20
  13   9  -7   75.19    5.20
 -13   9   7   64.69    5.20
 -11  -9   7   67.29    2.50
 -11  -9   7   64.19    3.80
  11  -9  -7   76.39    4.20
  11   9  -7   70.39    5.10
 -11   9   7   74.19    5.30
   9  -9  -7  135.49    6.20
  -9  -9   7  152.78    6.40
  -9   9   7  133.39    7.40
   9   9  -7  154.18    7.90
  -7  -9   7    0.40    0.80
   7  -9  -7    0.20    0.30
   7  -9  -7    0.10    0.70
   7  -9  -7    0.40    0.70
  -7   9   7   -1.50    0.90
   7   9  -7    1.10    1.20
   5  -9  -7   90.79    4.40
   5  -9  -7   87.99    4.30
  -5  -9   7   79.79    4.50
  -5   9   7   82.99    3.30
  -5   9   7   89.79    5.30
  -3  -9   7   36.20    2.90
   3  -9  -7   40.00    2.50
   3  -9  -7   32.50    2.50
   3   9  -7   33.10    3.80
  -3   9   7   36.40    2.20
  -3   9   7   33.10    3.20
   1  -9  -7   86.29    4.50
  -1  -9   7   95.39    5.20
   1  -9  -7   89.39    4.20
   1   9  -7   76.89    5.60
  -1   9   7   95.59    5.20
  -1   9   7   86.19    4.10
  -1  -9  -7  180.68    7.20
  -1  -9  -7  185.18    7.70
   1  -9   7  181.98    8.40
   1   9   7  188.28    7.40
  -1   9  -7  192.18    6.40
  -1   9  -7  174.28    9.00
   1   9   7  178.08    7.70
   3  -9   7   38.40    3.80
  -3  -9  -7   37.40    2.80
  -3  -9  -7   37.90    3.00
  -3   9  -7   40.10    2.50
  -3   9  -7   41.20    4.20
   3   9   7   46.30    3.10
   3   9   7   40.00    3.10
   3   9   7   41.60    3.20
  -5  -9  -7   10.60    2.00
   5  -9   7   11.30    2.50
   5  -9   7    8.90    2.50
  -5  -9  -7    9.20    1.70
  -5   9  -7   11.10    2.60
  -5   9  -7    9.50    1.50
   5   9   7    9.20    1.90
  -7  -9  -7    1.50    1.20
   7  -9   7    2.70    1.80
   7  -9   7    2.80    1.80
   7   9   7   -0.20    1.10
  -7   9  -7    1.10    1.60
  -7   9  -7    2.40    1.20
   9  -9   7    1.40    1.80
  -9  -9  -7   -0.40    1.00
   9  -9   7   -0.70    1.30
  -9   9  -7    0.40    1.70
   9   9   7   -1.60    0.90
  -9   9  -7    0.00    1.20
  11  -9   7    7.00    2.80
 -11  -9  -7    9.20    2.10
  11  -9   7    9.30    2.70
 -11   9  -7   13.60    3.00
  11   9   7   10.30    2.40
 -11   9  -7    7.30    2.00
 -13  -9  -7   18.20    2.90
  13  -9   7   19.00    3.90
  13  -9   7   24.10    4.20
 -13   9  -7   22.80    3.10
  13   9   7   16.20    3.10
 -22 -10   7   32.90    3.50
  22 -10  -7   25.80    4.10
 -22  10   7   33.60    4.90
  20 -10  -7   77.79    5.80
 -20 -10   7   80.99    5.00
 -20  10   7   73.49    6.30
  20  10  -7   83.89    6.10
  18 -10  -7   43.30    4.20
 -18 -10   7   50.99    3.70
 -18 -10   7   48.30    3.20
 -18  10   7   48.70    5.30
  18  10  -7   54.69    4.90
 -16 -10   7   12.30    1.60
  16 -10  -7    7.50    2.10
 -16 -10   7    9.20    1.90
  16  10  -7   11.10    2.70
 -16  10   7   13.90    3.20
  14 -10  -7   40.50    3.50
 -14 -10   7   38.30    3.00
 -14 -10   7   40.40    2.20
  14  10  -7   39.40    4.20
 -14  10   7   34.30    4.20
 -12 -10   7   49.99    3.30
  12 -10  -7   48.90    3.50
 -12 -10   7   47.80    2.10
 -12  10   7   42.50    4.50
  12  10  -7   53.89    4.70
 -10 -10   7   27.90    2.50
 -10  10   7   21.70    3.30
  10  10  -7   28.20    3.70
  -8 -10   7   25.00    2.50
   8 -10  -7   24.10    2.40
   8 -10  -7   31.60    1.50
  -8  10   7   34.70    3.80
   8  10  -7   28.00    3.60
  -6 -10   7   90.29    4.90
   6 -10  -7   95.39    4.70
   6 -10  -7   96.19    3.70
  -6  10   7  109.19    6.20
  -4 -10   7   35.00    2.90
   4 -10  -7   37.30    2.70
  -4  10   7   39.30    3.70
  -4  10   7   40.00    2.10
   4  10  -7   35.10    4.10
   2 -10  -7   26.50    2.40
   2 -10  -7   29.10    2.20
  -2 -10   7   22.60    2.60
  -2  10   7   26.30    3.00
  -2  10   7   27.80    2.00
   2  10  -7   24.60    3.60
   0 -10  -7   43.60    2.90
   0 -10  -7   49.00    3.30
   0 -10   7   44.50    3.70
   0  10  -7   35.40    4.20
   0  10   7   43.30    2.80
   0  10   7   41.30    3.40
  -2 -10  -7   36.10    3.00
   2 -10   7   39.00    3.70
  -2 -10  -7   37.90    2.70
  -2  10  -7   32.50    4.10
   2  10   7   39.00    3.10
   2  10   7   43.00    3.00
   2  10   7   34.60    3.30
   4 -10   7   81.99    5.50
  -4 -10  -7   74.29    4.30
   4 -10   7   80.29    5.80
  -4 -10  -7   83.89    4.80
   4  10   7   79.49    4.30
  -4  10  -7   76.89    5.80
   4  10   7   76.59    4.50
   4  10   7   78.29    4.60
   6 -10   7  131.09    7.60
  -6 -10  -7  128.39    6.50
  -6 -10  -7  125.39    6.10
   6 -10   7  110.69    7.40
   6  10   7  127.19    6.40
  -6  10  -7  123.89    7.60
  -8 -10  -7  121.39    6.10
   8 -10   7  119.99    7.90
   8 -10   7  113.59    7.40
  -8  10  -7  103.39    7.10
   8  10   7  112.49    6.30
  10 -10   7   17.60    3.60
 -10 -10  -7   19.70    2.70
  10 -10   7   23.40    4.10
 -10  10  -7   26.70    3.90
  10  10   7   24.40    3.20
  12 -10   7    2.60    2.20
 -12 -10  -7    4.20    1.70
  12 -10   7    2.30    2.30
 -12  10  -7    2.20    2.20
  12  10   7    3.20    1.70
  21 -11  -7   63.59    5.70
 -21 -11   7   59.09    4.40
 -21  11   7   64.29    6.50
 -19 -11   7   59.69    4.30
  19 -11  -7   46.30    4.70
 -19  11   7   65.29    6.30
  19  11  -7   54.89    5.30
 -17 -11   7    8.60    2.00
  17 -11  -7   16.30    2.90
  17  11  -7   15.30    3.10
 -17  11   7    7.80    2.80
 -15 -11   7    3.00    1.30
  15 -11  -7    4.60    1.80
  15  11  -7    3.40    1.80
 -15  11   7   -0.30    1.70
 -13 -11   7   49.70    3.60
  13 -11  -7   43.60    3.60
  13  11  -7   46.70    4.70
  11 -11  -7  101.59    5.30
 -11 -11   7   92.69    5.00
  11  11  -7  100.09    6.60
 -11  11   7   94.19    6.50
  -9 -11   7    5.80    1.50
   9 -11  -7    7.30    1.60
   9  11  -7    1.90    1.80
  -9  11   7    5.10    2.00
   7 -11  -7   99.79    5.10
  -7 -11   7  111.99    5.60
  -7  11   7  108.59    6.60
   5 -11  -7   17.40    2.10
  -5 -11   7   16.80    2.30
   5 -11  -7   18.40    1.40
   5  11  -7   14.20    3.10
  -5  11   7   17.80    3.00
   3 -11  -7   68.49    3.70
  -3 -11   7   67.99    4.40
   3 -11  -7   65.79    3.80
   3 -11  -7   66.19    3.30
  -3  11   7   65.29    4.70
  -3  11   7   62.49    3.10
   3  11  -7   68.29    5.50
   1 -11  -7  144.29    6.50
  -1 -11   7  139.19    7.10
   1 -11  -7  153.38    6.20
  -1  11   7  149.99    7.40
  -1  11   7  136.29    7.50
   1  11  -7  148.99    8.50
  -1  11   7  147.29    5.90
  -1 -11  -7   64.79    4.00
  -1 -11  -7   71.29    3.80
   1 -11   7   59.19    4.50
   1  11   7   65.39    3.70
   1  11   7   61.89    4.30
   1  11   7   60.79    4.60
  -1  11  -7   56.79    5.40
   3 -11   7   25.20    3.30
  -3 -11  -7   20.70    2.50
  -3 -11  -7   19.90    2.20
   3  11   7   27.10    2.60
   3  11   7   26.50    2.90
   3  11   7   25.20    2.60
  -3  11  -7   22.60    3.70
  -5 -11  -7   28.30    2.70
  -5 -11  -7   28.30    3.00
   5 -11   7   24.30    3.70
   5 -11   7   27.80    3.70
  -5  11  -7   35.30    4.30
   5  11   7   29.90    3.00
  -7 -11  -7   90.59    5.60
   7 -11   7   97.19    7.10
  -7 -11  -7  107.69    5.60
   7 -11   7   92.69    6.60
   7  11   7  101.89    5.80
  -7  11  -7   91.49    6.80
   9 -11   7   62.99    6.00
   9 -11   7   57.79    5.60
  -9 -11  -7   73.99    4.60
  -9 -11  -7   53.49    4.40
   9  11   7   66.29    4.80
  -9  11  -7   64.89    5.90
  11 -11   7    1.30    2.00
 -11 -11  -7    1.50    1.40
  11 -11   7    8.10    3.00
  11  11   7    1.10    1.60
 -11  11  -7    5.30    2.50
  18 -12  -7    7.20    2.40
 -18 -12   7    6.60    1.90
 -18  12   7    6.10    2.80
  18  12  -7    6.50    2.60
 -16 -12   7    7.10    1.80
  16 -12  -7    6.40    2.10
  16  12  -7    8.20    2.50
 -16  12   7    8.30    2.80
  14 -12  -7   12.90    2.40
 -14 -12   7    8.00    1.80
  14  12  -7    4.60    2.20
 -14  12   7    9.90    2.90
  12 -12  -7   49.90    3.80
 -12 -12   7   53.19    3.70
  12  12  -7   58.99    5.30
 -12  12   7   45.00    5.00
 -10 -12   7   73.39    4.50
 -10  12   7   70.99    5.70
  10  12  -7   81.89    6.00
   8 -12  -7    7.40    1.70
  -8 -12   7    7.60    1.80
   8  12  -7    3.90    2.10
  -8  12   7   10.40    2.60
  -6 -12   7   58.39    4.00
   6 -12  -7   54.29    3.60
   6  12  -7   61.49    5.60
  -6  12   7   45.00    4.60
   4 -12  -7  104.89    4.40
  -4 -12   7  110.89    5.90
   4 -12  -7   98.39    5.10
  -4  12   7  104.69    6.50
   4  12  -7   99.49    7.10
  -2 -12   7  102.29    5.80
   2 -12  -7   93.19    4.40
   2 -12  -7   96.39    5.00
   2 -12  -7  103.49    4.80
   2  12  -7   90.49    6.80
  -2  12   7   95.09    4.30
  -2  12   7   92.39    5.90
  -2  12   7   89.19    6.20
   0 -12  -7   58.99    3.60
   0 -12   7   59.29    4.60
   0 -12  -7   56.19    3.80
   0  12   7   58.89    4.50
   0  12   7   62.79    4.90
   0  12  -7   53.29    5.40
   0  12   7   64.99    3.60
  -2 -12  -7   36.90    3.00
  -2 -12  -7   52.29    3.70
   2 -12   7   48.00    4.40
  -2  12  -7   44.10    5.00
   2  12   7   57.49    4.10
   2  12   7   54.29    4.40
   2  12   7   50.79    3.30
   4 -12   7   10.60    2.70
  -4 -12  -7   11.50    2.10
  -4 -12  -7   13.20    2.00
  -4  12  -7   11.40    3.00
   4  12   7   10.70    2.00
  -6 -12  -7    2.20    1.40
  -6 -12  -7    1.00    1.20
   6 -12   7    1.10    1.90
   6 -12   7    2.20    1.80
   6  12   7   -1.60    1.10
  -6  12  -7   -2.20    1.70
   8 -12   7   19.40    3.80
  -8 -12  -7   16.30    2.40
   8 -12   7   14.70    3.40
  -8 -12  -7   17.90    2.80
  -8  12  -7   23.90    4.20
   8  12   7   14.60    2.60
 -17 -13   7   -0.50    1.20
  17 -13  -7    0.70    1.50
  17  13  -7   -0.80    1.90
 -17  13   7   -0.40    2.10
  15 -13  -7   15.70    2.90
 -15 -13   7   15.30    2.50
  15  13  -7   13.70    3.10
 -15  13   7   18.30    3.70
 -13 -13   7   10.00    2.10
  13 -13  -7    9.90    2.20
 -13  13   7   11.70    3.00
  13  13  -7    9.90    2.80
  11 -13  -7    1.30    1.40
 -11 -13   7   -0.90    0.90
  11  13  -7    3.10    1.80
 -11  13   7   -0.50    1.50
   9 -13  -7   26.00    2.80
  -9 -13   7   23.20    2.70
  -9  13   7   27.20    4.00
   9  13  -7   29.40    4.20
   7 -13  -7    0.80    1.00
  -7 -13   7    0.00    1.10
  -7  13   7    2.30    1.80
   5 -13  -7   31.50    2.80
  -5 -13   7   22.30    2.80
  -5  13   7   29.30    3.80
  -5  13   7   36.00    4.50
   5  13  -7   30.70    4.50
   3 -13  -7   44.00    2.70
  -3 -13   7   37.70    3.70
   3 -13  -7   47.00    3.30
   3  13  -7   44.50    5.20
  -3  13   7   42.00    4.70
  -3  13   7   50.89    4.70
  -1 -13   7    0.80    1.30
   1 -13  -7    1.80    1.10
   1 -13  -7    0.90    0.90
   1 -13  -7    1.20    1.10
  -1  13   7    3.30    1.90
  -1  13   7    0.70    0.90
  -1  13   7    2.50    1.90
   1  13  -7    0.80    1.90
  -1 -13  -7    4.50    1.30
  -1 -13  -7    4.20    1.40
   1 -13   7    6.90    2.10
   1  13   7    4.90    1.30
   1  13   7    3.60    1.80
  -1  13  -7    2.00    2.30
   1  13   7    5.40    2.20
  -3 -13  -7    2.80    1.40
  -3 -13  -7    5.20    1.50
   3 -13   7    6.00    2.10
   3  13   7    2.40    1.30
  -3  13  -7    2.80    2.40
  -5 -13  -7   37.60    3.10
   5 -13   7   26.50    3.90
  -5 -13  -7   34.70    3.40
   5 -13   7   29.80    4.20
   5  13   7   32.00    3.10
  -5  13  -7   28.50    4.50
   7 -13   7   36.10    4.70
  -7 -13  -7   35.50    3.60
   7 -13   7   23.80    4.00
  -7 -13  -7   42.30    3.50
  -7  13  -7   40.30    5.20
   7  13   7   34.80    3.50
  16 -14  -7    8.50    2.50
 -16 -14   7    6.90    2.00
 -16  14   7    9.80    3.30
  16  14  -7   10.80    3.10
 -14 -14   7    2.00    1.40
  14 -14  -7    1.10    1.50
  14  14  -7   -0.30    1.90
 -14  14   7    1.20    2.10
 -12 -14   7    1.00    1.10
  12 -14  -7    3.10    1.60
 -12  14   7    2.00    2.10
  12  14  -7    2.60    2.10
 -10 -14   7   -0.30    0.90
  10 -14  -7   -0.30    1.10
 -10  14   7   -0.30    1.70
 -10  14   7    0.40    2.00
  10  14  -7   -0.60    1.60
   8 -14  -7    5.50    1.60
  -8 -14   7    7.70    1.80
  -8  14   7    2.90    2.20
  -8  14   7    5.20    2.80
  -6 -14   7    0.10    1.00
   6 -14  -7   -0.20    0.90
  -6  14   7   -1.00    1.90
  -6  14   7    0.70    1.70
   6  14  -7   -1.30    1.70
   4 -14  -7   -1.10    0.80
  -4 -14   7    0.20    1.20
  -4  14   7   -0.10    1.90
  -4  14   7   -2.00    1.20
   4  14  -7   -0.60    1.60
   2 -14  -7   11.70    2.00
  -2 -14   7    6.10    2.00
   2  14  -7    8.50    2.80
  -2  14   7    7.80    2.80
  -2  14   7    9.60    2.60
   0 -14  -7    4.00    1.20
   0 -14  -7    5.00    1.60
   0 -14   7    2.20    1.70
   0 -14  -7    4.60    1.30
   0  14   7    4.90    2.00
   0  14  -7    5.20    2.80
   0  14   7    3.10    2.20
   2 -14   7   -0.20    1.40
  -2 -14  -7    0.10    0.90
  -2 -14  -7   -0.90    0.90
  -2 -14  -7   -0.30    0.90
  -2  14  -7    1.20    2.20
   2  14   7   -0.20    1.00
  -4 -14  -7    0.10    1.10
  -4 -14  -7    2.20    1.50
   4 -14   7    2.70    2.00
   4  14   7    2.70    1.30
  -4  14  -7   -0.30    1.90
   6 -14   7    0.00    1.70
  -6 -14  -7    0.40    1.20
  -6 -14  -7   -0.60    1.20
   6 -14   7    1.30    2.40
   6  14   7    1.40    1.50
  -6  14  -7    0.10    2.20
  13 -15  -7    9.80    2.30
 -13 -15   7    6.80    2.00
 -13  15   7    5.80    2.70
  13  15  -7    9.60    3.20
 -13  15   7    6.10    3.20
 -11 -15   7   17.10    2.70
  11 -15  -7   19.20    2.80
 -11  15   7   19.20    4.00
 -11  15   7   17.00    4.20
  11  15  -7   14.60    3.60
  -9 -15   7    1.00    1.20
   9 -15  -7   -1.40    1.20
  -9  15   7   -0.90    1.80
  -9  15   7   -0.10    2.20
   9  15  -7   -0.20    2.00
   7 -15  -7    8.50    2.00
  -7 -15   7   10.60    2.20
  -7  15   7   12.70    3.20
  -7  15   7    8.90    3.20
   5 -15  -7   12.10    2.00
  -5 -15   7   10.90    2.30
  -5  15   7   14.20    3.40
   5  15  -7    9.70    3.00
  -5  15   7   13.60    3.00
  -3 -15   7    6.00    2.00
   3 -15  -7    5.00    1.50
   3  15  -7    6.10    2.70
  -3  15   7    6.40    2.70
  -3  15   7    6.10    2.30
   1 -15  -7   14.40    2.20
  -1 -15   7   10.10    2.50
  -1  15   7   13.60    3.30
  -1  15   7   13.00    3.00
   1  15  -7   12.70    3.70
   1 -15   7   19.10    3.30
  -1 -15  -7    9.30    2.00
  -1 -15  -7   16.00    2.10
   1  15   7   16.50    3.30
   1  15   7   22.90    3.40
  -1  15  -7   21.70    4.30
  -3 -15  -7   -1.40    0.90
   3 -15   7    0.10    1.70
  -3 -15  -7   -0.70    1.10
  -3 -15  -7   -1.00    1.00
  -3  15  -7   -1.10    2.00
   3  15   7   -1.60    1.00
  -8 -16   7   34.10    3.60
  -8  16   7   39.60    5.10
   8  16  -7   35.30    5.20
  -8  16   7   49.50    5.90
  -6 -16   7   20.20    3.00
   6 -16  -7   16.50    2.50
  -6  16   7   25.60    4.50
   6  16  -7   16.20    3.90
  -6  16   7   10.30    3.10
   4 -16  -7   71.79    4.70
  -4 -16   7   86.29    5.70
  -4  16   7   80.09    6.80
   4  16  -7   76.39    7.40
  -4  16   7   79.79    6.30
   2 -16  -7  103.59    5.60
  -2 -16   7   96.49    6.40
  -2  16   7   91.49    6.80
  -2  16   7   93.09    7.30
   2  16  -7  102.49    8.20
 -26   0   8   69.09    5.70
 -26   0   8   64.89    5.30
 -24   0   8  203.28   10.00
 -24   0   8  206.38   10.00
 -24   0   8  209.68    8.10
  24   0  -8  211.98    8.00
 -22   0   8  153.28    8.10
  22   0  -8  145.49    7.80
 -22   0   8  149.59    7.80
 -22   0   8  152.78    6.10
  20   0  -8    4.80    1.70
 -20   0   8    5.80    1.10
 -20   0   8    7.10    2.00
 -18   0   8 1184.88   37.80
  18   0  -8 1165.88   36.80
 -18   0   8 1176.68   35.00
 -16   0   8   60.39    2.70
 -16   0   8   55.19    4.20
  16   0  -8   50.19    3.40
 -14   0   8  424.76   15.50
 -14   0   8  421.16   13.20
  14   0  -8  419.06   14.10
 -12   0   8  568.44   17.20
  12   0  -8  554.54   17.80
 -12   0   8  557.54   19.40
 -12   0   8  572.14   17.20
  10   0  -8  495.55   14.60
  10   0  -8  448.56   16.30
  10   0  -8  461.95   14.80
 -10   0   8  497.45   16.60
 -10   0   8  462.35   14.60
  -8   0   8  223.48    8.70
   8   0  -8  209.68    7.00
  -8   0   8  201.78    7.20
  -8   0   8  209.68    7.10
   8   0  -8  212.88    7.00
  -8   0   8  193.88    6.80
   8   0  -8  202.88    8.40
   6   0  -8  256.67    8.30
  -6   0   8  249.48    8.10
  -6   0   8  252.47    8.40
   6   0  -8  248.68    8.20
   6   0  -8  240.38    9.50
  -6   0   8  242.18    8.70
   4   0  -8  483.35   16.20
  -4   0   8  487.15   15.90
   4   0  -8  482.55   15.10
  -4   0   8  493.15   15.10
  -4   0   8  479.25   16.10
   4   0  -8  479.45   14.80
   2   0  -8  498.65   15.40
   2   0  -8  494.25   15.60
   2   0  -8  496.75   16.40
  -2   0   8  514.15   16.80
  -2   0   8  478.95   16.80
   0   0   8  426.16   14.80
   0   0  -8  411.16   13.30
   0   0   8  394.46   14.80
   0   0  -8  417.86   13.80
   2   0   8 1309.17   39.20
  -2   0  -8 1214.88   37.40
   2   0   8 1185.78   39.10
   2   0   8 1255.27   37.40
  -2   0  -8 1233.68   37.40
   4   0   8  232.88   10.50
  -4   0  -8  221.08    8.80
   4   0   8  246.28    8.40
   4   0   8  243.08    8.60
  -4   0  -8  235.38    8.40
  -6   0  -8  348.97   12.40
  -6   0  -8  351.26   11.20
   6   0   8  314.37   13.80
  -8   0  -8  279.97   11.00
   8   0   8  276.67   12.60
  10   0   8  207.88   10.80
 -10   0  -8  208.48    9.20
  12   0   8  115.79    8.00
 -12   0  -8  116.89    6.60
 -14   0  -8   10.40    2.40
  14   0   8   10.90    3.10
 -27  -1   8  122.79    5.90
 -27  -1   8  115.79    7.60
 -27   1   8  116.99    7.70
 -27   1   8  109.29    7.20
 -25  -1   8   56.69    5.20
 -25  -1   8   64.69    5.00
 -25  -1   8   65.19    3.90
 -25   1   8   64.49    5.50
 -25   1   8   62.99    5.20
  25   1  -8   64.19    3.80
  23  -1  -8   75.79    3.70
 -23  -1   8   77.99    4.00
  23  -1  -8   66.89    5.30
 -23  -1   8   72.39    5.30
 -23  -1   8   72.49    5.30
 -23   1   8   76.09    3.80
 -23   1   8   85.09    5.80
 -23   1   8   79.09    5.70
  21  -1  -8  110.99    6.40
 -21  -1   8  103.39    6.20
 -21  -1   8  110.69    4.90
 -21  -1   8  114.19    6.60
 -21   1   8  121.09    6.90
 -21   1   8  118.89    4.70
  21   1  -8   98.59    6.00
 -19  -1   8  250.77    8.60
  19  -1  -8  240.08   10.10
 -19  -1   8  238.18   10.60
  19   1  -8  260.87   10.30
 -19   1   8  237.48    8.20
 -19   1   8  233.48   10.70
 -17  -1   8  245.98    8.50
 -17  -1   8  257.47   10.70
  17  -1  -8  254.17    9.90
  17   1  -8  232.38    9.60
 -17   1   8  243.58   10.60
 -17   1   8  250.87    8.20
  15  -1  -8  376.76   13.30
 -15  -1   8  378.66   12.20
 -15  -1   8  395.96   14.50
 -15   1   8  373.56   12.20
 -15   1   8  386.36   11.90
  15   1  -8  382.96   13.20
  13  -1  -8  155.58    6.30
 -13  -1   8  162.18    7.50
 -13  -1   8  162.98    5.80
  13   1  -8  152.28    7.30
 -13   1   8  160.28    5.60
 -13   1   8  164.88    5.50
 -13   1   8  151.68    7.40
  13   1  -8  165.78    6.30
  11  -1  -8  187.78    7.10
 -11  -1   8  197.68    6.80
 -11   1   8  204.18    6.60
  11   1  -8  206.08    8.60
 -11   1   8  195.88    6.50
  11   1  -8  204.98    7.10
 -11   1   8  191.18    8.40
   9  -1  -8  835.02   24.00
  -9  -1   8  824.62   24.00
  -9  -1   8  801.12   24.40
  -9  -1   8  814.32   24.10
   9  -1  -8  804.92   24.50
   9   1  -8  808.22   24.20
  -9   1   8  779.22   24.30
  -9   1   8  804.72   26.10
   9   1  -8  805.82   26.20
  -7  -1   8  223.58    7.20
  -7  -1   8  225.58    7.90
  -7  -1   8  237.88    7.40
   7  -1  -8  215.38    7.50
   7  -1  -8  229.38    7.40
  -7   1   8  215.58    7.70
   7   1  -8  205.58    8.70
   7   1  -8  223.88    7.30
  -7   1   8  218.88    8.80
  -5  -1   8  807.42   24.90
   5  -1  -8  797.52   25.40
   5  -1  -8  838.02   24.40
   5  -1  -8  805.02   24.00
   5  -1  -8  791.42   24.20
  -5  -1   8  817.02   24.00
   5   1  -8  796.22   25.60
  -5   1   8  790.42   24.80
   5   1  -8  789.12   23.80
  -5   1   8  816.12   25.50
   5   1  -8  800.92   23.90
  -5   1   8  802.72   25.10
  -3  -1   8  591.34   17.80
   3  -1  -8  592.34   18.80
   3  -1  -8  578.24   17.70
  -3  -1   8  577.44   18.80
  -3  -1   8  582.04   19.10
   3  -1  -8  576.94   17.90
   3   1  -8  580.04   17.50
  -3   1   8  552.24   18.90
  -3   1   8  584.54   18.80
   3   1  -8  573.14   19.00
  -3   1   8  560.84   18.70
   3   1  -8  583.34   17.70
   1  -1  -8  438.26   14.40
  -1  -1   8  411.86   15.20
   1  -1  -8  430.16   13.80
  -1  -1   8  436.76   15.10
   1   1  -8  428.76   14.60
  -1   1   8  429.86   15.20
   1   1  -8  427.56   13.60
  -1   1   8  439.56   14.40
  -1   1   8  453.15   15.20
  -1   1   8  431.96   14.40
   1  -1   8  329.87   12.80
  -1  -1  -8  327.87   11.30
  -1  -1  -8  337.67   11.40
   1  -1   8  346.67   12.70
   1   1   8  336.07   11.40
  -1   1  -8  336.27   11.20
   1   1   8  339.97   11.40
   1   1   8  341.37   12.70
  -1   1  -8  330.07   11.70
   1   1   8  335.87   12.90
  -3  -1  -8  508.35   17.00
   3  -1   8  507.45   18.70
  -3  -1  -8  521.35   16.50
   3  -1   8  554.44   18.80
   3   1   8  548.95   16.70
  -3   1  -8  515.15   16.90
   3   1   8  489.05   18.60
   3   1   8  526.05   16.50
  -3   1  -8  516.55   16.90
   5  -1   8   25.00    2.10
   5  -1   8   21.90    3.10
   5  -1   8   25.10    3.20
  -5  -1  -8   25.40    2.40
   5  -1   8   22.80    2.20
   5   1   8   23.10    1.70
   5   1   8   17.30    2.90
  -5   1  -8   22.30    2.30
  -5   1  -8   22.50    2.00
   5   1   8   21.30    1.70
   7  -1   8   41.00    4.20
  -7  -1  -8   37.90    3.20
   7   1   8   36.00    4.10
  -7   1  -8   36.90    3.00
  -7   1  -8   40.00    2.50
   9  -1   8  112.09    7.40
  -9  -1  -8  115.79    6.10
  -9   1  -8  104.99    5.90
   9   1   8  119.39    7.50
 -11  -1  -8  142.09    7.30
  11  -1   8  148.19    8.90
  11   1   8  136.99    8.70
 -11   1  -8  145.09    7.40
 -13  -1  -8   46.60    4.20
  13  -1   8   47.70    5.20
 -13   1  -8   43.30    4.10
  15  -1   8   64.69    6.30
 -15  -1  -8   61.09    5.00
 -15   1  -8   63.99    5.10
  15   1   8   67.99    5.80
 -26  -2   8   32.50    3.90
 -26  -2   8   40.30    4.40
 -26  -2   8   37.70    3.10
 -26   2   8   36.50    4.50
  26   2  -8   37.60    3.00
 -26   2   8   26.20    3.90
 -24  -2   8   15.10    2.90
 -24  -2   8   15.10    2.90
  24  -2  -8   12.70    3.00
 -24  -2   8   15.20    2.00
 -24   2   8   11.40    2.80
 -24   2   8   16.00    3.20
 -22  -2   8   31.60    2.50
 -22  -2   8   32.10    3.60
 -22  -2   8   30.30    3.40
  22  -2  -8   35.10    3.80
 -22   2   8   31.10    3.80
 -22   2   8   34.70    2.20
  20  -2  -8  113.29    6.40
 -20  -2   8  123.09    6.40
 -20  -2   8  117.39    5.20
 -20  -2   8  120.89    6.70
  20   2  -8  118.99    6.40
 -20   2   8  123.99    4.70
 -20   2   8  117.29    6.90
 -18  -2   8    2.40    1.40
 -18  -2   8    2.10    0.80
  18  -2  -8    1.70    1.20
 -18   2   8    2.50    1.60
  18   2  -8    3.90    1.50
 -18   2   8    3.50    0.70
 -16  -2   8  221.98    7.90
 -16  -2   8  234.18    9.90
  16  -2  -8  220.88    8.90
 -16   2   8  223.38    7.30
 -16   2   8  212.48    9.80
  16   2  -8  228.98    8.80
 -14  -2   8   57.39    2.80
  14  -2  -8   52.89    3.20
 -14  -2   8   52.89    4.00
 -14   2   8   57.89    4.10
  14   2  -8   47.80    3.80
 -14   2   8   54.89    2.30
  14   2  -8   54.49    3.20
 -14   2   8   51.39    2.40
  12  -2  -8   96.99    4.40
 -12  -2   8   97.49    4.00
  12   2  -8   95.69    5.40
 -12   2   8   99.69    3.50
 -12   2   8   99.69    5.50
 -12   2   8   95.79    3.50
  12   2  -8  103.79    4.30
 -10  -2   8  157.08    5.80
  10  -2  -8  162.78    5.20
 -10  -2   8  165.08    5.40
  10   2  -8  156.28    5.60
 -10   2   8  156.28    5.40
  10   2  -8  146.29    7.00
 -10   2   8  142.19    7.00
   8  -2  -8   81.49    3.50
  -8  -2   8   82.39    3.00
   8  -2  -8   85.79    3.10
  -8  -2   8   76.99    3.60
  -8  -2   8   82.09    3.20
  -8   2   8   72.29    4.40
   8   2  -8   76.59    4.50
  -8   2   8   85.39    3.60
  -8   2   8   76.49    3.40
   8   2  -8   81.69    3.10
  -6  -2   8  333.77   11.30
   6  -2  -8  327.97   10.60
  -6  -2   8  337.47   10.30
   6  -2  -8  342.27   10.90
   6  -2  -8  335.67   10.60
   6   2  -8  332.97   12.20
  -6   2   8  332.37   12.10
  -6   2   8  333.07   11.30
  -6   2   8  314.67   11.00
   6   2  -8  337.07   10.30
  -4  -2   8   61.19    2.70
   4  -2  -8   58.09    2.90
  -4  -2   8   62.79    3.50
   4  -2  -8   62.79    3.10
   4  -2  -8   58.39    2.70
  -4   2   8   59.09    3.60
   4   2  -8   65.19    3.80
   4   2  -8   63.09    2.60
  -4   2   8   60.09    3.40
  -4   2   8   64.99    3.60
   4   2  -8   56.69    2.40
   2  -2  -8  114.89    5.00
  -2  -2   8  129.89    4.90
  -2  -2   8  123.69    5.70
  -2  -2   8  121.09    5.90
   2  -2  -8  128.89    4.90
  -2   2   8  124.19    5.40
  -2   2   8  123.39    5.70
   2   2  -8  121.39    4.50
   2   2  -8  122.59    5.70
  -2   2   8  128.89    5.90
   0  -2   8  231.58    9.20
   0  -2   8  222.48    9.30
   0  -2  -8  223.58    7.90
   0   2  -8  207.38    8.50
   0   2   8  221.38    9.20
   0   2  -8  221.48    7.60
   0   2   8  207.68    8.00
   0   2   8  230.48    8.20
   2  -2   8   23.30    2.80
  -2  -2  -8   23.60    2.00
   2  -2   8   29.00    3.10
   2   2   8   22.70    1.80
  -2   2  -8   22.70    2.20
  -2   2  -8   24.90    2.00
   2   2   8   21.90    1.80
   2   2   8   23.10    2.80
   4  -2   8  192.08    9.40
  -4  -2  -8  202.08    8.00
   4  -2   8  207.88    9.30
   4   2   8  203.68    9.50
   4   2   8  213.88    7.20
   4   2   8  208.38    7.10
  -4   2  -8  199.48    7.90
  -4   2  -8  191.28    7.80
   6  -2   8   10.50    2.50
  -6  -2  -8   10.50    1.80
   6  -2   8   10.30    2.50
  -6   2  -8   10.20    1.60
  -6   2  -8    9.10    1.70
   6   2   8   11.30    2.50
   8  -2   8   45.90    4.60
  -8  -2  -8   49.90    3.60
  -8   2  -8   42.80    2.90
   8   2   8   47.10    4.60
  -8   2  -8   38.20    3.30
 -10  -2  -8   71.69    4.80
  10  -2   8   67.69    5.90
  10   2   8   73.39    6.00
 -10   2  -8   86.99    5.10
  12  -2   8    9.80    2.90
 -12  -2  -8    5.20    1.80
 -12   2  -8    7.50    2.00
 -14  -2  -8   35.50    3.90
  14  -2   8   27.40    4.40
  14   2   8   37.30    4.30
 -14   2  -8   37.00    3.90
 -25  -3   8   14.10    2.90
  25  -3  -8   17.50    3.40
 -25  -3   8   17.00    3.10
 -25  -3   8   12.00    2.00
 -25   3   8   19.50    3.60
 -25   3   8   12.60    3.00
 -23  -3   8   -2.20    1.20
 -23  -3   8   -0.10    1.30
 -23  -3   8    1.90    1.10
  23  -3  -8   -1.30    1.40
 -23   3   8    3.60    1.90
 -21  -3   8   -0.20    1.20
 -21  -3   8   -1.00    1.20
 -21  -3   8    0.10    0.80
  21  -3  -8   -0.80    1.10
 -21   3   8    1.00    0.60
 -21   3   8    1.40    1.50
 -19  -3   8    4.20    1.70
  19  -3  -8    3.80    1.50
 -19  -3   8    3.60    1.40
 -19  -3   8    4.00    1.10
 -19   3   8    2.70    1.70
 -19   3   8    3.50    0.70
 -17  -3   8    0.10    1.00
 -17  -3   8    0.10    0.70
  17  -3  -8    0.00    1.00
 -17  -3   8    0.30    1.10
 -17   3   8   -0.10    1.20
 -17   3   8   -0.10    0.90
  17   3  -8    0.30    0.90
  17   3  -8   -0.90    1.00
 -17   3   8    0.10    0.40
 -15  -3   8    9.80    1.30
  15  -3  -8    8.10    1.60
 -15   3   8   12.10    1.20
  15   3  -8   11.50    1.60
 -15   3   8    9.70    0.80
  15   3  -8   12.30    2.30
 -15   3   8   14.00    2.50
  13  -3  -8   16.30    1.80
 -13  -3   8   13.30    1.40
 -13   3   8   12.50    2.20
 -13   3   8   12.30    0.90
  13   3  -8   16.70    2.40
 -13   3   8   11.30    0.90
  13   3  -8   15.20    1.60
 -11  -3   8   35.20    1.80
  11  -3  -8   35.10    2.30
 -11  -3   8   38.20    2.20
  11   3  -8   32.50    3.10
 -11   3   8   32.50    3.20
 -11   3   8   34.10    1.40
 -11   3   8   32.90    1.60
  11   3  -8   33.60    2.00
   9  -3  -8   32.00    1.40
   9  -3  -8   24.30    1.90
  -9  -3   8   30.90    1.40
  -9  -3   8   30.20    2.00
  -9  -3   8   31.00    1.50
  -9   3   8   27.80    2.80
   9   3  -8   31.00    3.00
  -9   3   8   26.20    1.70
  -9   3   8   28.40    1.70
   9   3  -8   27.80    1.60
   7  -3  -8   23.20    1.40
  -7  -3   8   22.10    1.30
  -7  -3   8   22.50    1.90
   7  -3  -8   23.60    1.70
  -7  -3   8   23.40    1.20
  -7   3   8   21.10    1.70
   7   3  -8   22.30    2.50
   7   3  -8   23.00    1.20
  -7   3   8   20.00    2.40
  -7   3   8   24.80    1.80
   5  -3  -8   40.70    2.30
   5  -3  -8   38.30    2.30
  -5  -3   8   37.00    2.60
  -5  -3   8   38.90    1.90
   5  -3  -8   39.90    2.10
   5   3  -8   40.80    3.10
   5   3  -8   41.30    1.70
  -5   3   8   35.00    2.50
  -5   3   8   36.90    2.80
  -5   3   8   38.80    2.50
  -3  -3   8   23.60    1.60
  -3  -3   8   21.70    2.10
   3  -3  -8   18.90    1.50
   3  -3  -8   21.90    1.80
   3   3  -8   25.10    1.40
  -3   3   8   24.90    2.20
  -3   3   8   20.00    2.10
   3   3  -8   24.60    2.50
   3   3  -8   23.00    1.20
   1  -3  -8   23.20    1.80
  -1  -3   8   22.30    2.50
  -1  -3   8   19.40    2.30
  -1  -3   8   28.20    2.00
   1  -3  -8   25.20    2.00
   1   3  -8   26.20    2.50
  -1   3   8   24.10    2.10
  -1   3   8   23.60    2.50
   1   3  -8   23.40    1.50
  -1   3   8   26.70    2.10
  -1  -3  -8   28.50    2.10
   1  -3   8   30.40    3.00
   1  -3   8   25.20    2.90
   1   3   8   31.80    2.20
   1   3   8   26.90    2.10
   1   3   8   28.20    2.90
  -1   3  -8   27.90    1.90
  -1   3  -8   28.50    2.60
  -3  -3  -8   94.89    4.60
   3  -3   8   93.39    5.60
   3  -3   8   92.39    5.70
   3   3   8   98.49    5.80
   3   3   8   90.19    4.00
  -3   3  -8   99.09    4.90
   3   3   8   92.89    4.00
  -3   3  -8   90.89    4.40
   5  -3   8  213.78    9.80
   5  -3   8  205.68    9.90
  -5  -3  -8  193.88    8.30
  -5   3  -8  216.18    8.30
  -5   3  -8  224.08    8.50
   5   3   8  193.18    9.60
   7  -3   8   84.19    6.20
   7  -3   8   90.09    6.00
  -7  -3  -8   98.29    5.20
  -7   3  -8   89.19    4.70
   7   3   8   92.49    6.30
  -7   3  -8   86.39    4.80
  -9  -3  -8    0.10    1.10
   9  -3   8    0.00    1.50
  -9   3  -8    0.00    1.00
  -9   3  -8    2.30    1.30
  11  -3   8    1.60    1.70
 -11  -3  -8    2.30    1.40
  11   3   8    0.10    1.30
 -11   3  -8    0.40    1.20
 -13  -3  -8    4.10    1.60
  13  -3   8    1.40    2.10
  13   3   8    3.20    1.80
 -13   3  -8    2.70    1.60
 -15  -3  -8    2.30    1.70
  15  -3   8    6.40    2.70
 -15   3  -8    2.60    1.80
  15   3   8    2.50    1.90
  26  -4  -8   32.30    4.50
 -26  -4   8   36.60    3.20
 -26  -4   8   32.70    4.00
 -26   4   8   35.30    4.60
 -26   4   8   32.50    4.40
 -24  -4   8   30.00    2.80
 -24  -4   8   23.50    3.30
  24  -4  -8   31.90    4.10
 -24  -4   8   23.10    3.30
 -24   4   8   30.30    4.10
 -22  -4   8   15.00    2.60
 -22  -4   8   12.30    2.50
  22  -4  -8   15.10    2.90
 -22  -4   8   14.20    2.00
 -22   4   8   16.40    3.20
 -20  -4   8    9.60    1.60
  20  -4  -8    9.00    2.30
 -20  -4   8    8.30    1.90
 -20  -4   8   10.30    2.40
 -20   4   8   10.60    2.50
 -18  -4   8  153.38    7.00
  18  -4  -8  154.98    7.40
 -18  -4   8  157.18    7.90
 -18  -4   8  156.58    6.40
 -18   4   8  156.08    5.10
 -18   4   8  151.68    8.10
  18   4  -8  148.69    7.70
  16  -4  -8   34.00    2.90
 -16  -4   8   28.60    2.20
 -16  -4   8   26.90    2.40
 -16   4   8   28.40    3.40
 -16   4   8   27.40    1.50
 -16   4   8   27.70    1.20
  16   4  -8   25.30    3.10
 -14  -4   8   83.09    4.00
 -14  -4   8   91.19    4.00
  14  -4  -8   89.29    4.50
  14   4  -8   88.69    5.30
 -14   4   8   86.79    5.40
  14   4  -8   75.99    4.00
 -12  -4   8   65.09    3.20
 -12  -4   8   61.59    2.60
  12  -4  -8   58.19    3.30
 -12   4   8   63.19    4.40
  12   4  -8   58.59    4.20
  12   4  -8   59.99    3.00
  10  -4  -8  157.38    6.30
 -10  -4   8  157.38    6.10
 -10  -4   8  163.58    5.30
  10   4  -8  163.48    7.50
  10   4  -8  151.58    5.60
 -10   4   8  172.18    7.70
   8  -4  -8   40.20    1.70
  -8  -4   8   42.50    1.70
  -8  -4   8   37.60    2.50
  -8  -4   8   41.50    1.60
   8   4  -8   40.90    1.80
   8   4  -8   46.10    3.50
  -8   4   8   46.30    3.40
  -8   4   8   41.60    2.20
   6  -4  -8  184.68    6.40
   6  -4  -8  170.68    6.10
  -6  -4   8  176.98    6.90
   6  -4  -8  180.78    6.60
  -6  -4   8  180.68    5.60
  -6   4   8  179.98    6.60
   6   4  -8  173.38    7.80
  -6   4   8  167.08    7.50
   4  -4  -8   40.50    2.60
  -4  -4   8   36.40    2.60
   4  -4  -8   37.90    2.20
  -4  -4   8   39.90    1.80
   4  -4  -8   36.80    2.30
   4  -4  -8   37.60    2.40
  -4   4   8   33.80    2.70
  -4   4   8   38.80    2.70
   4   4  -8   37.70    1.50
   4   4  -8   37.40    1.60
   4   4  -8   34.70    3.10
  -2  -4   8   12.90    1.90
  -2  -4   8   10.00    1.10
   2  -4  -8    9.70    1.20
   2  -4  -8    9.90    1.40
   2   4  -8   11.50    0.90
   2   4  -8   10.70    1.90
  -2   4   8    9.40    1.60
  -2   4   8    9.30    1.50
   0  -4   8  176.38    6.30
   0  -4  -8  176.38    6.60
   0  -4   8  175.08    7.60
   0  -4   8  165.18    7.70
   0  -4  -8  161.78    6.80
   0   4  -8  158.48    7.40
   0   4   8  163.38    7.50
   0   4  -8  168.98    6.00
   0   4   8  172.28    6.70
   0   4   8  168.08    6.60
   2  -4   8  224.38    9.80
  -2  -4  -8  228.58    8.60
   2  -4   8  228.48   10.10
   2   4   8  232.98    8.20
  -2   4  -8  236.48    8.30
   2   4   8  231.68    9.90
  -2   4  -8  227.68    9.30
   2   4   8  228.98    8.20
  -4  -4  -8   97.79    4.90
   4  -4   8   93.79    6.10
   4  -4   8   96.49    5.90
  -4   4  -8   98.89    4.70
   4   4   8   95.59    6.00
   4   4   8  101.39    4.00
  -4   4  -8  103.89    5.30
   4   4   8  104.89    4.10
  -6  -4  -8   21.60    2.40
   6  -4   8   29.40    3.60
   6  -4   8   25.20    3.50
  -6   4  -8   33.50    3.00
  -6   4  -8   31.70    2.70
   8  -4   8   67.09    5.70
   8  -4   8   75.89    5.70
  -8  -4  -8   78.69    4.70
  -8   4  -8   72.09    4.40
   8   4   8   76.49    5.10
  -8   4  -8   71.19    4.40
 -10  -4  -8  106.79    6.00
  10  -4   8   92.69    7.00
  10   4   8  110.79    6.60
 -10   4  -8  103.59    5.50
 -10   4  -8  114.59    6.10
  12  -4   8    2.30    2.00
 -12  -4  -8    0.20    1.10
 -12   4  -8    1.30    1.40
  12   4   8    1.80    1.60
 -14  -4  -8   -0.10    1.30
  14  -4   8   -1.00    1.80
  14   4   8   -0.40    1.20
 -14   4  -8   -0.60    1.30
  25  -5  -8   76.99    6.10
 -25  -5   8   75.29    5.50
 -25  -5   8   75.99    4.70
 -25  -5   8   68.89    5.30
 -25   5   8   74.29    6.10
  23  -5  -8   43.80    4.50
 -23  -5   8   43.70    4.00
 -23  -5   8   48.50    3.50
 -23  -5   8   39.40    4.10
 -23   5   8   52.59    5.10
 -21  -5   8   36.40    3.90
 -21  -5   8   35.70    2.90
  21  -5  -8   36.60    3.90
 -21  -5   8   39.10    3.50
 -21   5   8   31.70    4.10
 -19  -5   8  162.18    7.20
  19  -5  -8  160.98    7.80
 -19  -5   8  151.48    6.60
 -19  -5   8  154.48    8.00
 -19   5   8  147.39    8.20
  19   5  -8  154.98    8.00
 -17  -5   8  302.47   10.90
  17  -5  -8  302.77   11.80
 -17  -5   8  316.77   11.20
  17   5  -8  304.47   12.60
 -17   5   8  302.77   12.90
 -15  -5   8  161.08    6.40
 -15  -5   8  150.88    6.30
  15  -5  -8  153.68    6.90
  15   5  -8  160.38    7.90
 -15   5   8  160.28    8.10
  13  -5  -8   78.19    4.30
 -13  -5   8   85.19    3.90
 -13  -5   8   87.69    4.10
 -13  -5   8   87.39    3.40
  13   5  -8   87.09    5.40
 -13   5   8   89.99    5.50
 -11  -5   8  188.58    7.00
 -11  -5   8  183.18    6.30
 -11  -5   8  189.18    6.00
 -11   5   8  173.38    8.30
  11   5  -8  177.08    8.30
   9  -5  -8  415.56   14.00
  -9  -5   8  403.76   14.00
  -9  -5   8  441.86   12.60
  -9  -5   8  418.46   12.90
  -9  -5   8  448.76   12.80
  -9   5   8  427.76   15.60
   9   5  -8  430.16   15.70
   7  -5  -8  136.89    4.70
  -7  -5   8  125.29    5.60
   7  -5  -8  134.69    5.50
   7   5  -8  134.49    6.70
  -7   5   8  143.69    4.80
  -7   5   8  134.59    6.50
   5  -5  -8  329.27   10.80
   5  -5  -8  322.57   10.70
   5  -5  -8  311.87   11.00
  -5  -5   8  331.37   11.50
   5  -5  -8  336.77   11.00
  -5   5   8  314.87   12.00
   5   5  -8  321.47   12.40
   3  -5  -8  335.17   11.00
  -3  -5   8  323.77   10.10
   3  -5  -8  317.07   11.20
  -3  -5   8  323.07   11.80
   3   5  -8  336.17    9.90
  -3   5   8  328.67   11.80
   3   5  -8  313.07   12.40
   3   5  -8  334.87    9.80
   1  -5  -8  192.58    7.60
   1  -5  -8  198.78    7.30
  -1  -5   8  198.48    8.40
  -1   5   8  190.48    7.70
   1   5  -8  204.68    8.70
   1   5  -8  197.28    6.50
   1   5  -8  205.58    6.90
   1  -5   8  363.56   13.90
  -1  -5  -8  376.86   13.10
   1  -5   8  368.46   14.30
  -1  -5  -8  361.26   12.60
   1   5   8  374.46   12.60
  -1   5  -8  378.96   13.80
   1   5   8  374.86   12.60
  -1   5  -8  386.36   12.10
   3  -5   8  127.19    6.80
  -3  -5  -8  117.79    5.50
   3  -5   8  120.59    6.90
   3   5   8  127.59    6.20
   3   5   8  121.49    4.90
   3   5   8  123.09    5.00
  -3   5  -8  122.69    6.20
  -3   5  -8  120.19    5.20
   5  -5   8  159.98    8.50
  -5  -5  -8  165.08    7.20
   5  -5   8  170.78    8.60
  -5   5  -8  156.48    6.80
  -5   5  -8  165.68    7.60
   5   5   8  172.38    7.80
   7  -5   8   33.10    3.90
  -7  -5  -8   25.80    2.70
   7  -5   8   24.00    3.50
   7   5   8   28.40    3.20
  -7   5  -8   27.50    2.70
   9  -5   8   52.49    5.00
  -9  -5  -8   50.69    4.00
   9  -5   8   59.29    5.50
  -9   5  -8   48.40    3.80
   9   5   8   57.99    4.60
  -9   5  -8   58.89    4.10
 -11  -5  -8  128.89    6.90
  11  -5   8  115.89    8.10
 -11   5  -8  133.69    6.80
  11   5   8  114.09    7.00
  13  -5   8   15.00    3.60
 -13  -5  -8   14.30    2.70
  13   5   8   15.20    3.00
 -13   5  -8   16.60    2.80
 -24  -6   8   61.69    4.20
 -24  -6   8   66.89    5.20
  24  -6  -8   65.69    5.70
 -24  -6   8   56.89    4.70
 -24   6   8   66.19    5.90
 -22  -6   8   87.59    5.80
  22  -6  -8   87.99    6.00
 -22  -6   8   77.29    4.60
 -22  -6   8   73.99    5.00
 -22   6   8   76.39    6.10
 -20  -6   8  184.38    8.20
  20  -6  -8  191.18    9.10
 -20  -6   8  189.28    7.90
  20   6  -8  187.38    9.20
 -20   6   8  179.88    9.60
 -18  -6   8   72.59    4.00
 -18  -6   8   69.49    4.20
  18  -6  -8   69.59    4.70
 -18   6   8   65.99    5.30
  18   6  -8   75.09    5.30
 -16  -6   8  371.76   12.80
 -16  -6   8  361.56   12.80
  16  -6  -8  377.26   13.70
  16   6  -8  371.76   14.60
 -16   6   8  375.16   15.00
 -14  -6   8  119.19    4.80
  14  -6  -8  113.49    5.50
 -14  -6   8  104.79    5.00
 -14   6   8  103.99    6.40
  14   6  -8  109.29    6.30
 -12  -6   8  270.77    9.60
 -12  -6   8  277.27    8.90
  12  -6  -8  244.78    9.70
 -12   6   8  273.67   11.40
  12   6  -8  263.27   11.20
 -10  -6   8  259.87    9.40
 -10  -6   8  254.37    8.10
  10  -6  -8  260.77    9.50
 -10  -6   8  269.17    7.90
  10   6  -8  258.77   10.90
 -10   6   8  255.17   10.80
   8  -6  -8  638.54   18.60
   8  -6  -8  636.94   19.90
  -8  -6   8  595.14   19.90
  -8   6   8  622.44   21.40
  -8   6   8  628.14   18.50
   8   6  -8  637.34   21.70
  -6  -6   8  165.58    6.70
   6  -6  -8  170.48    6.10
   6  -6  -8  164.88    5.90
   6  -6  -8  158.08    6.30
  -6   6   8  152.58    7.30
   6   6  -8  159.28    7.70
  -6   6   8  160.58    5.70
  -4  -6   8  287.87   10.60
   4  -6  -8  286.37    9.70
   4  -6  -8  281.87   10.00
   4  -6  -8  288.47   10.20
  -4   6   8  292.17    9.70
  -4   6   8  269.67   10.70
   4   6  -8  278.77   11.40
   2  -6  -8  365.96   12.30
  -2  -6   8  372.26   13.40
   2  -6  -8  360.46   12.70
   2   6  -8  376.76   11.10
  -2   6   8  358.26   12.50
   2   6  -8  360.46   13.90
   2   6  -8  382.76   11.30
  -2   6   8  373.16   13.20
   0  -6   8  332.17   12.60
   0  -6  -8  332.27   11.90
   0  -6  -8  334.67   11.50
   0   6  -8  343.77   10.70
   0   6   8  325.57   11.80
   0   6  -8  321.67   12.80
   0   6   8  333.77   11.80
   0   6  -8  332.77   10.60
  -2  -6  -8  178.58    7.50
  -2  -6  -8  180.28    7.20
   2  -6   8  166.78    8.50
   2  -6   8  174.38    8.30
   2   6   8  173.68    6.90
  -2   6  -8  183.48    6.60
   2   6   8  185.98    7.00
   2   6   8  173.38    7.60
   4  -6   8  263.57   11.80
   4  -6   8  273.47   11.60
  -4  -6  -8  258.97   10.00
  -4   6  -8  255.57    9.50
   4   6   8  274.07    9.00
   4   6   8  268.67   10.70
   6  -6   8   74.89    5.70
   6  -6   8   72.19    5.40
  -6  -6  -8   69.99    4.30
  -6   6  -8   73.19    4.20
   6   6   8   65.79    4.70
   8  -6   8   76.89    6.20
  -8  -6  -8   83.19    5.00
   8  -6   8   96.09    6.60
   8   6   8   85.19    5.50
  -8   6  -8   92.19    5.10
 -10  -6  -8  113.39    6.20
  10  -6   8  113.29    7.90
  10  -6   8  123.89    7.80
  10   6   8  101.29    6.50
 -10   6  -8  104.39    6.00
  12  -6   8   55.69    5.80
 -12  -6  -8   64.99    4.80
  12   6   8   58.79    5.10
 -12   6  -8   64.39    4.70
 -23  -7   8   35.80    4.10
 -23  -7   8   37.10    3.70
  23  -7  -8   38.90    4.50
 -23  -7   8   42.10    3.50
 -23   7   8   32.90    4.60
 -21  -7   8   84.09    4.90
  21  -7  -8   85.59    5.90
 -21  -7   8   92.09    5.30
  21   7  -8   92.09    6.10
 -21   7   8   87.99    6.50
 -19  -7   8   70.29    4.20
 -19  -7   8   74.89    4.40
  19  -7  -8   75.39    5.20
 -19   7   8   71.69    5.70
  19   7  -8   76.09    5.40
 -17  -7   8   66.99    4.00
 -17  -7   8   80.49    4.20
  17  -7  -8   72.99    4.70
  17   7  -8   78.99    5.40
 -17   7   8   73.29    5.60
 -15  -7   8  118.19    5.10
  15  -7  -8  119.19    6.00
 -15  -7   8  119.29    5.50
 -15   7   8  117.79    7.10
  15   7  -8  121.29    6.90
 -13  -7   8  246.08    8.10
 -13  -7   8  236.28    7.70
 -13  -7   8  229.68    8.90
  13  -7  -8  230.48    9.20
 -13   7   8  247.48   10.80
  13   7  -8  231.58   10.50
 -11  -7   8  279.17    8.90
 -11  -7   8  291.27    8.70
 -11  -7   8  286.27   10.30
 -11   7   8  278.87   11.90
  11   7  -8  287.67   11.90
  -9  -7   8   61.79    3.50
   9  -7  -8   62.79    3.50
  -9   7   8   63.99    4.60
   9   7  -8   69.19    4.70
   7  -7  -8  478.65   14.30
  -7  -7   8  451.65   15.30
   7  -7  -8  450.75   14.10
   7  -7  -8  452.15   15.10
  -7   7   8  461.05   13.70
   7   7  -8  437.26   16.70
  -7   7   8  444.06   16.40
   5  -7  -8  114.29    5.10
   5  -7  -8  117.79    4.80
   5  -7  -8  104.09    4.80
   5  -7  -8  124.79    5.10
  -5  -7   8  103.79    5.20
   5   7  -8  108.79    6.20
  -5   7   8  116.99    4.40
  -5   7   8  110.89    5.90
   3  -7  -8   57.89    3.10
  -3  -7   8   56.49    3.70
   3   7  -8   54.29    4.20
  -3   7   8   55.49    3.00
  -3   7   8   56.59    3.80
  -1  -7   8  103.99    5.50
   1  -7  -8   98.79    4.80
   1  -7  -8   88.29    4.30
   1   7  -8   96.39    3.40
   1   7  -8   98.99    3.40
  -1   7   8   95.69    4.60
  -1   7   8  100.89    5.10
  -1  -7  -8  196.78    7.80
   1  -7   8  197.68    8.90
  -1  -7  -8  210.78    8.30
   1   7   8  199.78    8.20
  -1   7  -8  199.18    7.00
  -1   7  -8  211.38    9.50
   1   7   8  191.78    7.80
   3  -7   8  118.09    6.90
  -3  -7  -8  114.39    5.70
   3  -7   8  122.69    6.70
  -3  -7  -8  111.89    5.40
   3   7   8  103.89    5.70
  -3   7  -8  116.69    5.00
   3   7   8  115.19    5.00
  -3   7  -8  114.99    6.60
   5  -7   8  318.67   13.90
   5  -7   8  324.77   13.60
  -5  -7  -8  330.27   12.10
  -5   7  -8  319.87   11.50
  -5   7  -8  327.67   13.30
   5   7   8  323.87   12.60
   7  -7   8  372.96   15.80
   7  -7   8  396.06   15.80
  -7  -7  -8  369.36   13.80
  -7   7  -8  377.56   13.40
  -7   7  -8  368.06   14.80
   7   7   8  360.06   14.30
  -9  -7  -8  117.09    6.20
   9  -7   8  114.69    7.50
   9  -7   8  113.89    7.80
  -9   7  -8  114.59    6.70
   9   7   8  104.89    6.50
  -9   7  -8  112.19    5.90
  11  -7   8   11.60    3.20
  11  -7   8   14.50    3.50
 -11  -7  -8   16.70    2.60
  11   7   8   18.60    3.10
 -11   7  -8   19.50    3.10
 -11   7  -8   14.30    2.50
  13  -7   8   79.09    7.10
 -13  -7  -8   94.49    5.90
  13   7   8   88.39    6.20
 -13   7  -8   90.19    5.80
 -24  -8   8   17.50    2.90
 -24  -8   8   22.60    2.90
  24  -8  -8   16.20    3.50
 -24   8   8   17.80    3.80
  22  -8  -8   45.00    4.70
 -22  -8   8   54.49    4.10
 -22  -8   8   56.79    4.00
  22   8  -8   52.89    4.90
 -22   8   8   54.99    5.70
 -20  -8   8   20.90    2.50
 -20  -8   8   23.00    2.60
  20  -8  -8   33.30    3.80
  20   8  -8   31.40    3.90
 -20   8   8   29.40    4.30
 -18  -8   8   48.10    3.40
 -18  -8   8   43.60    3.20
  18  -8  -8   51.29    4.10
 -18   8   8   47.70    5.00
  18   8  -8   57.39    4.70
 -16  -8   8   15.00    2.00
  16  -8  -8   13.30    2.30
 -16  -8   8   16.90    1.80
 -16   8   8   15.20    3.10
  16   8  -8   18.60    3.10
  14  -8  -8   55.99    3.80
 -14  -8   8   56.19    3.50
 -14  -8   8   56.89    2.80
  14   8  -8   57.09    4.60
 -14   8   8   52.89    4.90
 -12  -8   8  105.49    3.80
 -12  -8   8  102.89    5.00
  12  -8  -8  102.99    5.20
  12   8  -8  113.09    6.50
 -12   8   8  107.39    6.50
 -10  -8   8   17.20    1.90
  10  -8  -8   17.10    2.00
 -10   8   8   18.10    2.80
  10   8  -8   16.00    2.80
  -8  -8   8  306.07   11.20
   8  -8  -8  315.47    9.70
   8  -8  -8  306.57   11.10
   8  -8  -8  310.07    9.40
  -8   8   8  321.37   12.70
   8   8  -8  302.97   12.80
  -6  -8   8   75.09    4.20
   6  -8  -8   80.09    3.70
   6  -8  -8   76.49    3.60
   6  -8  -8   70.49    3.80
  -6   8   8   68.49    4.70
   6   8  -8   64.09    4.90
  -6   8   8   75.09    3.00
  -4  -8   8   78.39    4.60
   4  -8  -8   91.29    4.10
   4  -8  -8   85.29    4.30
   4   8  -8   90.19    5.70
  -4   8   8   90.39    3.80
  -4   8   8   80.89    5.00
   2  -8  -8  199.78    7.60
  -2  -8   8  200.88    8.60
   2  -8  -8  200.68    8.00
  -2   8   8  208.58    7.70
  -2   8   8  194.48    8.50
   0  -8   8   18.70    2.70
   0  -8  -8   17.60    2.10
   0  -8  -8   15.40    1.80
   0   8  -8   23.90    3.30
   0   8   8   19.70    2.30
   0   8   8   17.80    2.00
   0   8  -8   18.00    1.30
   2  -8   8   28.90    3.40
  -2  -8  -8   24.90    2.30
  -2  -8  -8   27.00    2.70
  -2   8  -8   32.60    2.10
  -2   8  -8   24.40    3.40
   2   8   8   28.10    2.50
   2   8   8   25.70    2.60
   4  -8   8   12.40    2.70
  -4  -8  -8   10.50    2.00
   4  -8   8   15.40    2.80
  -4  -8  -8   13.40    1.90
  -4   8  -8   12.10    1.60
  -4   8  -8    9.80    2.40
   4   8   8   11.30    2.10
   6  -8   8   73.89    5.60
  -6  -8  -8   63.59    4.20
   6  -8   8   70.59    5.70
   6   8   8   65.39    4.60
  -6   8  -8   63.09    3.90
  -6   8  -8   72.39    5.40
   8  -8   8   22.60    3.70
  -8  -8  -8   20.40    2.60
   8  -8   8   19.10    3.60
  -8   8  -8   21.70    3.30
   8   8   8   18.90    2.90
  -8   8  -8   15.00    2.30
 -10  -8  -8   -1.10    1.00
  10  -8   8    0.60    1.80
  10  -8   8   -0.20    1.60
 -10   8  -8   -1.00    1.10
 -10   8  -8    1.30    1.60
  10   8   8    0.20    1.30
 -12  -8  -8   65.89    4.90
  12  -8   8   70.59    6.40
  12  -8   8   62.69    6.30
  12   8   8   64.39    5.20
 -12   8  -8   55.89    4.50
 -23  -9   8    7.90    2.50
  23  -9  -8    3.00    2.20
 -23  -9   8    5.20    1.80
 -23   9   8    2.60    2.50
  21  -9  -8   16.10    3.20
 -21  -9   8   17.30    2.50
 -21   9   8   16.60    3.50
  21   9  -8   14.60    3.10
 -19  -9   8    1.30    1.20
 -19  -9   8   -0.40    0.90
  19  -9  -8    1.60    1.60
  19   9  -8   -0.80    1.40
 -19   9   8   -0.60    1.90
 -17  -9   8   15.20    1.80
  17  -9  -8   11.50    2.30
 -17  -9   8   13.50    2.10
  17   9  -8   14.20    2.80
 -17   9   8   13.30    3.10
 -15  -9   8   21.10    1.70
 -15  -9   8   18.80    2.20
  15  -9  -8   19.60    2.60
 -15   9   8   20.30    3.50
  15   9  -8   22.60    3.40
  13  -9  -8    5.00    1.50
 -13  -9   8    3.70    1.20
 -13  -9   8    6.30    0.80
 -13   9   8    5.00    2.00
  13   9  -8    7.80    2.20
 -11  -9   8    5.00    1.40
  11   9  -8    6.70    2.10
 -11   9   8    7.50    2.10
   9  -9  -8   36.00    2.80
  -9  -9   8   42.80    3.00
  -9   9   8   37.30    3.90
   9   9  -8   29.90    3.80
   7  -9  -8    5.40    1.20
   7  -9  -8    6.10    0.70
  -7  -9   8    7.60    1.60
   7   9  -8    4.70    1.90
  -7   9   8    7.80    2.10
  -5  -9   8   30.90    2.80
   5  -9  -8   22.70    2.20
  -5   9   8   23.30    3.00
  -5   9   8   26.00    1.70
   5   9  -8   31.20    3.70
  -3  -9   8    7.20    1.80
   3  -9  -8    7.40    1.50
   3  -9  -8    7.80    1.30
  -3   9   8    7.70    1.20
  -3   9   8   10.90    2.10
   1  -9  -8    9.80    1.50
  -1  -9   8    9.80    2.10
   1  -9  -8   10.40    1.80
  -1   9   8   11.30    1.60
   1   9  -8   10.20    2.50
  -1   9   8   10.50    2.00
  -1  -9  -8    2.80    1.00
   1  -9   8    2.40    1.40
  -1  -9  -8    2.80    1.10
  -1   9  -8    1.50    1.60
   1   9   8    2.50    1.20
   1   9   8    1.60    1.20
   3  -9   8    1.20    1.50
  -3  -9  -8    1.20    1.00
   3  -9   8    1.80    1.50
  -3  -9  -8    0.80    0.90
   3   9   8    2.50    1.30
   3   9   8    1.60    1.10
  -3   9  -8    1.80    1.90
   3   9   8    1.70    1.10
  -5  -9  -8   -0.80    0.90
   5  -9   8    0.80    1.50
  -5  -9  -8   -1.00    0.80
   5  -9   8    0.00    1.50
   5   9   8   -0.20    1.00
  -5   9  -8    0.10    1.60
  -7  -9  -8   15.40    2.30
   7  -9   8   15.20    3.30
   7  -9   8   17.70    3.30
   7   9   8   12.50    2.40
  -7   9  -8   15.20    3.10
   9  -9   8    0.30    1.70
  -9  -9  -8    0.80    1.20
   9  -9   8   -0.50    1.80
   9   9   8   -0.40    1.20
  -9   9  -8    3.40    2.00
  11  -9   8    1.40    2.00
 -11  -9  -8    6.40    2.00
  11  -9   8    3.30    2.60
 -11   9  -8    7.70    2.50
  11   9   8    4.50    1.90
 -22 -10   8    4.00    1.70
  22 -10  -8    0.70    2.00
 -22  10   8    1.20    2.20
 -20 -10   8    7.80    1.90
  20 -10  -8    6.70    2.50
 -20  10   8    3.40    2.60
  20  10  -8   12.70    2.90
  18 -10  -8    7.40    2.20
 -18 -10   8    6.40    1.70
  18  10  -8   10.30    2.70
 -18  10   8    3.80    2.20
  16 -10  -8   18.70    2.80
 -16 -10   8   16.70    2.30
  16  10  -8   21.10    3.50
 -16  10   8   26.70    4.10
 -14 -10   8   -0.20    0.90
  14 -10  -8    0.40    1.10
  14  10  -8   -0.70    1.40
 -14  10   8   -0.10    1.50
  12 -10  -8   10.60    1.90
 -12 -10   8   10.40    1.80
 -12  10   8   11.70    2.60
  12  10  -8    9.30    2.60
  10 -10  -8    1.90    1.10
 -10 -10   8    5.10    1.40
  10  10  -8    2.00    1.60
 -10  10   8    3.80    1.80
  -8 -10   8  222.98    8.80
   8 -10  -8  211.58    8.50
  -8  10   8  210.18    9.90
   8  10  -8  205.78   10.20
   6 -10  -8   56.59    2.50
   6 -10  -8   49.50    3.30
  -6 -10   8   52.99    3.70
  -6  10   8   52.79    4.40
   6  10  -8   61.39    5.00
   4 -10  -8   38.90    2.80
  -4 -10   8   31.10    3.00
   4 -10  -8   37.00    2.60
  -4  10   8   37.30    2.20
  -4  10   8   37.80    3.60
   2 -10  -8   31.90    2.70
   2 -10  -8   36.70    2.60
  -2 -10   8   28.50    3.10
   2  10  -8   31.20    4.10
  -2  10   8   34.20    3.50
  -2  10   8   33.90    2.40
   0 -10  -8    4.70    1.40
   0 -10  -8    4.50    1.20
   0 -10   8    8.70    2.10
   0  10  -8    5.30    2.20
   0  10   8    5.20    1.40
   0  10   8    6.40    1.80
  -2 -10  -8   34.10    2.70
  -2 -10  -8   39.30    3.10
   2 -10   8   31.20    3.70
   2  10   8   40.40    3.10
   2  10   8   33.40    3.10
  -2  10  -8   38.60    4.40
   2  10   8   34.80    3.30
   4 -10   8   -1.20    1.40
   4 -10   8   -1.20    1.30
  -4 -10  -8    1.20    1.10
  -4 -10  -8    0.20    0.90
  -4  10  -8   -0.10    1.50
   4  10   8    0.60    1.10
  -6 -10  -8   10.90    1.90
   6 -10   8    8.10    2.70
   6 -10   8    8.40    2.90
  -6 -10  -8    7.10    1.90
  -6  10  -8    9.70    2.80
   6  10   8   10.10    2.20
   8 -10   8   -0.60    1.60
  -8 -10  -8   -0.70    1.10
  -8 -10  -8   -2.00    1.00
   8 -10   8   -0.80    2.00
  -8  10  -8   -2.50    1.60
   8  10   8    0.70    1.30
  10 -10   8    0.40    1.80
  10 -10   8    0.70    1.90
 -10 -10  -8    1.10    1.30
  10  10   8   -1.90    1.10
 -10  10  -8   -0.30    1.80
  21 -11  -8   10.30    3.10
 -21 -11   8   11.60    2.30
 -21  11   8   18.60    3.90
 -19 -11   8   17.30    2.60
  19 -11  -8   23.90    3.60
  19  11  -8   21.60    3.70
 -19  11   8   17.70    3.70
  17 -11  -8   36.50    3.80
 -17 -11   8   32.80    3.20
  17  11  -8   38.70    4.50
 -17  11   8   20.90    3.90
  15 -11  -8   22.40    2.90
 -15 -11   8   18.40    2.40
 -15  11   8   27.80    4.20
  15  11  -8   17.40    3.40
 -13 -11   8   52.19    3.60
  13 -11  -8   55.69    4.00
 -13  11   8   45.60    5.00
  13  11  -8   39.00    4.60
 -11 -11   8   78.99    4.60
 -11  11   8   84.99    6.00
  11  11  -8   74.29    5.90
   9 -11  -8   17.70    2.30
  -9 -11   8   18.10    2.40
  -9  11   8   22.70    3.50
   9  11  -8   22.80    3.60
   7 -11  -8   95.29    5.10
  -7 -11   8  112.39    5.80
  -7  11   8  114.29    6.80
   7  11  -8  107.39    6.90
  -5 -11   8   20.70    2.60
   5 -11  -8   24.40    2.40
   5 -11  -8   21.60    1.70
  -5  11   8   25.90    3.40
  -3 -11   8    5.20    1.70
   3 -11  -8    7.80    1.40
   3 -11  -8    4.60    1.40
  -3  11   8    8.50    1.30
   3  11  -8    8.30    2.80
  -3  11   8    5.20    1.90
  -1 -11   8   34.90    3.50
   1 -11  -8   31.60    2.80
   1 -11  -8   35.00    2.60
  -1  11   8   27.50    3.20
  -1  11   8   32.40    2.50
   1  11  -8   29.40    4.20
  -1 -11  -8   33.60    2.70
  -1 -11  -8   29.80    2.90
   1 -11   8   29.70    3.60
   1  11   8   31.20    3.40
   1  11   8   29.30    2.60
   1  11   8   30.50    3.20
  -1  11  -8   33.20    4.40
   3 -11   8   54.39    4.70
  -3 -11  -8   58.89    3.80
  -3 -11  -8   59.59    4.10
  -3  11  -8   59.69    5.60
   3  11   8   53.99    3.80
   5 -11   8  128.99    7.80
  -5 -11  -8  126.09    6.80
   5 -11   8  140.49    8.50
  -5 -11  -8  126.99    6.30
   5  11   8  132.39    6.70
  -5  11  -8  137.99    8.40
  -7 -11  -8  153.08    7.90
   7 -11   8  166.28    9.50
  -7 -11  -8  157.08    7.50
   7 -11   8  154.38    9.50
   7  11   8  162.58    7.90
  -7  11  -8  155.68    9.20
  -9 -11  -8   43.40    3.70
   9 -11   8   39.30    5.10
  -9 -11  -8   36.90    3.90
   9 -11   8   42.20    5.10
   9  11   8   47.40    4.20
  -9  11  -8   40.80    4.80
 -18 -12   8    9.40    2.20
  18 -12  -8    8.90    2.40
 -18  12   8   14.40    3.70
  18  12  -8   12.40    3.10
  16 -12  -8   44.30    4.10
 -16 -12   8   37.30    3.50
 -16  12   8   33.90    4.70
  16  12  -8   40.00    4.70
 -14 -12   8   69.49    4.50
  14 -12  -8   66.99    4.70
 -14  12   8   75.59    6.10
  14  12  -8   72.79    5.90
  12 -12  -8   43.30    3.50
 -12 -12   8   42.40    3.50
 -12  12   8   47.00    5.00
  12  12  -8   38.90    4.60
  10 -12  -8  128.79    6.50
 -10 -12   8  136.79    6.60
  10  12  -8  130.79    8.10
 -10  12   8  128.29    7.90
  -8 -12   8   30.70    3.00
   8 -12  -8   24.30    2.60
   8  12  -8   25.80    4.00
  -8  12   8   19.30    3.40
  -6 -12   8  308.27   12.10
   6 -12  -8  307.17   11.60
  -6  12   8  312.07   13.30
  -4 -12   8   38.30    3.60
   4 -12  -8   40.30    2.50
   4 -12  -8   37.10    3.00
   4  12  -8   40.50    4.90
  -4  12   8   38.10    4.10
  -2 -12   8   61.79    4.70
   2 -12  -8   69.19    4.30
   2 -12  -8   75.99    4.10
  -2  12   8   71.19    3.60
  -2  12   8   73.29    5.20
   2  12  -8   75.29    6.30
  -2  12   8   66.59    5.30
   0 -12  -8  100.09    5.40
   0 -12  -8  102.69    5.00
   0 -12   8   92.09    6.10
   0  12  -8  114.79    7.70
   0  12   8   98.69    6.30
   0  12   8   97.59    4.80
   0  12   8   97.29    5.90
   2 -12   8   18.00    3.20
  -2 -12  -8   15.40    2.10
  -2 -12  -8   24.60    2.80
  -2  12  -8   19.10    3.80
   2  12   8   21.90    2.40
  -4 -12  -8   47.90    3.50
   4 -12   8   48.40    4.80
  -4 -12  -8   46.50    3.80
   4 -12   8   33.10    4.50
  -4  12  -8   40.80    5.00
   4  12   8   45.20    3.60
  -6 -12  -8   40.20    3.40
  -6 -12  -8   42.30    3.90
   6 -12   8   35.40    4.80
   6 -12   8   34.80    4.50
   6  12   8   37.70    3.60
  -6  12  -8   44.40    5.20
   8 -12   8   32.00    4.70
  -8 -12  -8   43.70    4.20
   8 -12   8   41.70    5.30
  -8 -12  -8   40.50    3.60
   8  12   8   45.60    4.10
  -8  12  -8   48.20    5.40
  17 -13  -8    7.30    2.40
 -17 -13   8   13.80    2.50
 -17  13   8   14.20    3.70
  17  13  -8   13.90    3.30
 -15 -13   8   65.09    4.60
  15 -13  -8   69.89    5.00
 -15  13   8   65.19    6.30
  13 -13  -8   80.59    5.10
 -13 -13   8   65.29    4.60
 -13  13   8   83.29    6.50
  13  13  -8   74.59    6.40
 -11 -13   8   51.89    3.90
  11 -13  -8   50.69    3.90
 -11  13   8   65.39    5.50
  11  13  -8   65.29    6.00
  -9 -13   8  131.29    6.70
   9  13  -8  128.39    8.30
  -9  13   8  122.69    7.80
   7 -13  -8   26.90    2.80
  -7 -13   8   28.70    3.10
   7  13  -8   25.40    4.20
  -7  13   8   26.20    3.90
   5 -13  -8  111.69    5.60
  -5 -13   8  106.79    6.10
  -5  13   8  100.59    6.70
  -3 -13   8   94.69    5.80
   3 -13  -8   94.09    5.10
   3  13  -8   92.59    7.20
  -3  13   8   86.99    6.50
  -3  13   8   95.39    6.20
   1 -13  -8  113.89    5.20
   1 -13  -8  106.19    5.30
  -1 -13   8  108.49    6.60
   1 -13  -8   99.69    5.60
  -1  13   8  119.99    6.70
   1  13  -8  106.69    7.80
  -1  13   8  113.49    5.10
  -1  13   8  100.49    6.70
  -1 -13  -8   16.00    2.40
   1 -13   8   19.70    3.30
  -1 -13  -8   18.40    2.20
   1  13   8   18.90    2.20
  -1  13  -8   20.10    4.00
   1  13   8   21.10    3.10
   1  13   8   20.30    3.30
   3 -13   8   53.79    5.10
  -3 -13  -8   51.79    3.60
  -3 -13  -8   44.60    3.70
   3  13   8   52.89    3.70
  -3  13  -8   46.70    5.50
  -5 -13  -8   16.00    2.30
   5 -13   8   17.70    3.50
  -5 -13  -8   13.90    2.50
   5 -13   8   14.40    3.50
  -5  13  -8   17.50    4.00
   5  13   8   14.60    2.40
 -16 -14   8    3.00    1.70
  16 -14  -8    7.10    2.30
  16  14  -8    9.30    3.00
 -16  14   8    9.10    3.10
 -14 -14   8   58.99    4.50
  14 -14  -8   57.49    4.40
  14  14  -8   53.09    5.70
 -14  14   8   55.69    5.90
  12 -14  -8   46.40    4.00
 -12 -14   8   36.60    3.60
  12  14  -8   38.40    5.00
 -12  14   8   36.10    4.80
 -10 -14   8   19.40    2.80
 -10  14   8   12.60    3.20
  10  14  -8   25.00    4.20
   8 -14  -8    8.70    2.00
  -8 -14   8   13.50    2.40
  -8  14   8   11.90    3.00
   8  14  -8   15.10    3.50
  -6 -14   8   40.00    3.80
   6 -14  -8   49.00    3.60
  -6  14   8   40.40    5.00
  -6  14   8   38.20    4.50
  -4 -14   8   63.79    4.90
   4 -14  -8   65.99    4.30
  -4  14   8   72.89    6.00
  -4  14   8   72.79    5.70
   4  14  -8   71.19    6.60
   2 -14  -8   30.40    3.00
  -2 -14   8   32.80    3.80
   2  14  -8   28.50    4.70
  -2  14   8   25.10    3.60
  -2  14   8   30.90    4.20
   0 -14  -8   10.20    2.10
   0 -14   8   12.60    2.80
   0 -14  -8   11.00    1.80
   0  14   8    4.60    2.30
   0  14  -8   13.50    3.50
   0  14   8   10.20    2.50
   0  14   8   10.40    1.70
  -2 -14  -8   32.10    2.90
  -2 -14  -8   27.80    3.10
   2 -14   8   33.10    4.20
  -2  14  -8   30.70    4.90
   2  14   8   31.40    2.80
   4 -14   8   18.50    3.80
   4 -14   8   26.10    4.10
  -4 -14  -8   17.20    2.70
  -4 -14  -8   22.00    2.60
   4  14   8   21.10    2.70
  -4  14  -8   19.80    4.30
  13 -15  -8   18.10    2.90
 -13 -15   8   12.20    2.40
  13  15  -8   12.30    3.50
 -13  15   8   19.80    4.10
 -13  15   8   12.80    4.00
  11 -15  -8    5.80    2.00
 -11 -15   8    8.20    2.10
 -11  15   8    7.60    2.80
  11  15  -8   10.70    3.10
 -11  15   8    3.70    2.90
  -9 -15   8   10.90    2.40
   9 -15  -8    9.30    2.20
  -9  15   8    8.10    2.90
   9  15  -8    8.50    3.00
  -9  15   8   10.80    3.60
   7 -15  -8   13.70    2.30
  -7 -15   8   22.70    3.10
  -7  15   8   17.90    3.60
  -7  15   8   17.50    3.90
   7  15  -8   14.30    3.80
  -5 -15   8   17.40    2.90
   5 -15  -8   14.90    2.30
  -5  15   8   19.00    4.00
  -5  15   8    9.60    2.80
   3 -15  -8   36.60    3.30
  -3 -15   8   35.10    4.00
  -3  15   8   30.60    4.50
  -3  15   8   41.10    4.50
   3  15  -8   29.60    5.00
   1 -15  -8   13.00    2.20
  -1 -15   8   14.20    2.90
  -1  15   8   15.80    3.10
   1  15  -8   13.60    3.90
  -1  15   8   17.80    3.50
   1 -15   8    8.10    2.70
  -1 -15  -8   13.10    2.40
  -1 -15  -8   13.50    2.10
  -1  15  -8    7.30    3.30
 -26   0   9    0.70    1.80
 -26   0   9    0.20    1.70
  24   0  -9   -0.70    1.40
 -24   0   9    0.90    1.60
 -24   0   9   -1.30    0.80
 -24   0   9   -1.30    1.50
 -22   0   9   -0.40    0.70
  22   0  -9    0.20    1.30
 -22   0   9    0.70    1.50
  20   0  -9   -0.80    1.00
 -20   0   9   -0.30    0.60
 -20   0   9    1.90    1.50
 -18   0   9   -1.90    0.60
 -18   0   9    2.10    1.40
  18   0  -9   -1.10    0.90
  16   0  -9    0.60    0.90
 -16   0   9   -1.00    0.90
 -16   0   9   -0.20    0.40
  14   0  -9   -0.50    0.60
 -14   0   9   -0.20    1.00
 -14   0   9   -0.20    0.50
  12   0  -9    0.40    0.60
 -12   0   9    0.30    0.50
 -12   0   9   -0.20    0.90
  10   0  -9    0.40    0.90
 -10   0   9    0.00    0.90
 -10   0   9   -0.60    0.50
  10   0  -9   -0.30    0.50
   8   0  -9   -0.80    0.70
  -8   0   9    0.00    0.60
   8   0  -9   -0.40    0.30
   6   0  -9    0.00    0.30
   6   0  -9    0.30    0.80
   6   0  -9   -0.20    0.30
  -6   0   9   -0.90    0.50
   4   0  -9    0.40    0.40
   4   0  -9   -0.10    0.40
   4   0  -9   -0.30    0.70
  -4   0   9    0.60    0.90
  -4   0   9    0.10    0.80
   2   0  -9    0.20    0.80
   2   0  -9    0.00    0.40
  -2   0   9    0.40    1.00
   2   0  -9    0.30    0.40
  -2   0   9    0.30    0.80
   0   0  -9    0.60    0.80
   0   0   9    0.50    1.00
   0   0   9    0.60    1.00
   0   0  -9   -0.90    0.50
  -2   0  -9   -0.90    0.50
   2   0   9    1.20    1.30
  -2   0  -9    1.50    0.90
   2   0   9    2.30    1.30
   4   0   9    0.50    1.40
  -4   0  -9   -0.10    0.80
  -4   0  -9    0.70    0.80
   6   0   9   -0.90    1.20
  -6   0  -9    0.50    0.90
  -6   0  -9    0.40    0.70
  -8   0  -9    0.20    1.00
   8   0   9   -0.20    1.40
  10   0   9   -0.90    1.40
 -10   0  -9    0.00    1.10
  12   0   9    2.50    2.00
 -12   0  -9   -0.70    1.10
  14   0   9   -1.30    1.60
 -14   0  -9   -1.50    1.20
 -27  -1   9    2.10    2.00
 -27  -1   9    0.00    1.90
 -27   1   9   -0.30    2.00
 -27   1   9    1.90    2.30
 -25  -1   9    1.60    1.10
 -25  -1   9    1.10    1.70
  25  -1  -9    0.70    1.70
 -25  -1   9    1.80    1.80
 -25   1   9    2.30    1.90
 -25   1   9   -0.20    1.70
 -23  -1   9    5.50    1.30
  23  -1  -9    6.20    2.00
 -23  -1   9    5.80    2.00
 -23  -1   9    4.50    1.80
 -23   1   9    6.60    1.20
  23   1  -9    7.30    2.20
 -23   1   9    8.30    2.40
 -21  -1   9    5.40    1.80
 -21  -1   9    0.90    0.80
  21  -1  -9    2.10    1.40
 -21   1   9    0.40    1.40
 -21   1   9    1.20    0.80
  21   1  -9    2.20    1.50
 -19  -1   9    9.50    2.20
 -19  -1   9    8.00    1.20
  19  -1  -9   10.60    2.10
 -19   1   9   15.40    2.80
  19   1  -9    7.90    1.90
 -19   1   9   10.00    1.20
 -17  -1   9    0.30    0.60
 -17  -1   9    0.10    1.10
  17  -1  -9   -0.20    0.80
 -17   1   9    1.80    1.50
  17   1  -9    1.20    1.00
 -17   1   9    0.90    0.60
  15  -1  -9   26.10    2.30
 -15  -1   9   27.40    1.80
 -15  -1   9   23.40    3.00
 -15   1   9   22.50    1.70
  15   1  -9   23.30    2.20
 -15   1   9   23.70    1.50
 -15   1   9   24.40    3.00
 -13  -1   9    0.40    1.00
  13  -1  -9    0.00    0.50
 -13  -1   9    0.30    0.50
 -13   1   9    0.30    0.50
 -13   1   9   -0.60    0.80
  13   1  -9    1.30    1.00
 -13   1   9    0.30    0.40
  13   1  -9    0.60    0.70
  11  -1  -9   18.70    1.30
 -11  -1   9   23.50    1.70
  11  -1  -9   16.00    1.50
  11   1  -9   16.70    1.50
 -11   1   9   17.00    1.40
 -11   1   9   20.80    2.60
  11   1  -9   14.50    2.30
   9  -1  -9   12.00    1.00
   9  -1  -9   12.50    1.30
  -9  -1   9   12.10    1.40
   9   1  -9    9.40    1.90
  -9   1   9   10.50    1.90
  -9   1   9   11.00    1.30
  -7  -1   9    0.50    0.70
   7  -1  -9    0.40    0.40
  -7  -1   9    0.20    0.40
   7   1  -9    0.70    0.40
  -7   1   9    0.30    0.80
  -7   1   9    0.60    0.70
   7   1  -9    0.90    0.80
  -7   1   9    0.20    0.70
   5  -1  -9   51.09    3.40
   5  -1  -9   51.59    2.60
   5  -1  -9   47.60    2.40
  -5  -1   9   52.59    3.20
  -5  -1   9   51.69    2.60
  -5   1   9   54.39    3.50
  -5   1   9   47.30    3.10
  -5   1   9   51.79    3.30
   5   1  -9   51.19    2.40
   5   1  -9   50.89    2.20
   5   1  -9   48.60    3.40
   3  -1  -9    0.10    0.40
   3  -1  -9    0.40    0.70
  -3  -1   9   -1.00    0.70
   3  -1  -9    0.30    0.50
  -3  -1   9   -0.20    0.70
  -3   1   9    0.30    0.80
   3   1  -9    0.20    0.40
   3   1  -9   -0.80    0.60
  -3   1   9    0.70    0.90
  -3   1   9    0.40    0.70
   3   1  -9   -0.10    0.40
   1  -1  -9   61.89    3.10
   1  -1  -9   68.29    3.40
  -1  -1   9   60.99    4.30
   1  -1  -9   60.39    3.60
  -1  -1   9   68.79    4.30
  -1   1   9   62.69    4.30
   1   1  -9   58.89    3.00
  -1   1   9   68.19    4.20
   1   1  -9   53.99    3.60
  -1   1   9   63.99    3.60
   1  -1   9  117.29    6.60
   1  -1   9  117.99    6.30
  -1  -1  -9  110.89    5.10
  -1  -1  -9  121.39    5.20
   1   1   9  110.19    6.40
  -1   1  -9  123.89    5.10
   1   1   9  120.79    6.40
  -1   1  -9  119.49    5.60
   1   1   9  128.99    5.40
   3  -1   9   76.59    5.40
   3  -1   9   74.59    5.20
  -3  -1  -9   70.49    3.90
  -3   1  -9   70.59    4.00
   3   1   9   76.99    3.90
  -3   1  -9   72.59    3.90
   3   1   9   77.19    3.70
   3   1   9   74.59    5.30
   5  -1   9   26.10    3.50
   5  -1   9   23.10    3.30
  -5  -1  -9   25.50    2.50
   5   1   9   22.50    1.80
  -5   1  -9   27.20    2.20
  -5   1  -9   24.70    2.40
   5   1   9   20.80    3.20
   7  -1   9   22.80    3.50
  -7  -1  -9   27.60    2.80
   7   1   9   17.80    3.30
  -7   1  -9   26.20    2.20
  -7   1  -9   24.00    2.60
  -9  -1  -9   17.40    2.50
   9  -1   9   21.10    3.60
   9   1   9   23.10    3.70
  -9   1  -9   20.00    2.60
 -11  -1  -9   -0.40    1.10
  11  -1   9    0.90    1.70
  11   1   9    0.60    1.60
 -11   1  -9    1.10    1.30
  13  -1   9    2.90    2.10
 -13  -1  -9    0.00    1.30
 -13   1  -9    1.50    1.60
 -26  -2   9   38.20    4.30
 -26  -2   9   34.40    2.90
 -26  -2   9   33.10    4.10
  26  -2  -9   36.40    4.50
 -26   2   9   37.20    4.40
 -26   2   9   33.50    4.30
 -24  -2   9   32.00    2.60
  24  -2  -9   28.70    3.90
 -24  -2   9   33.20    3.70
 -24  -2   9   26.00    3.60
 -24   2   9   29.70    3.90
 -22  -2   9   -0.10    1.20
 -22  -2   9    0.10    0.80
 -22  -2   9   -0.60    1.20
  22  -2  -9   -1.20    1.20
 -22   2   9    0.20    0.70
 -22   2   9    3.50    1.70
 -20  -2   9   67.49    5.00
 -20  -2   9   72.59    3.70
  20  -2  -9   65.69    4.60
 -20  -2   9   70.79    4.60
 -20   2   9   75.19    3.10
  20   2  -9   69.79    4.60
 -20   2   9   73.09    5.40
 -18  -2   9   42.90    2.60
  18  -2  -9   45.80    3.50
 -18  -2   9   40.40    4.00
 -18   2   9   47.30    2.20
  18   2  -9   43.10    3.30
 -18   2   9   44.60    4.30
 -16  -2   9    1.10    1.20
 -16  -2   9   -0.70    0.50
  16  -2  -9    0.10    0.80
  16   2  -9    1.50    0.90
 -16   2   9    1.20    0.70
 -16   2   9    0.60    1.30
  16   2  -9   -1.30    0.90
 -16   2   9    0.20    0.40
  14  -2  -9   20.90    2.00
 -14  -2   9   20.10    1.60
 -14   2   9   21.30    2.90
 -14   2   9   20.10    1.30
  14   2  -9   16.80    2.60
 -14   2   9   19.30    1.40
  14   2  -9   20.70    1.90
  12  -2  -9   40.30    2.50
 -12  -2   9   38.20    2.30
 -12   2   9   36.30    1.90
 -12   2   9   38.20    1.80
 -12   2   9   38.70    3.50
  12   2  -9   40.30    2.30
  12   2  -9   33.80    3.40
 -10  -2   9  131.49    4.40
 -10  -2   9  127.49    4.50
 -10  -2   9  119.99    5.00
  10  -2  -9  129.49    4.40
  10  -2  -9  121.19    5.00
 -10   2   9  115.79    4.70
  10   2  -9  119.09    6.20
 -10   2   9  119.99    6.20
  10   2  -9  119.09    4.60
  -8  -2   9    0.80    0.50
   8  -2  -9    0.90    0.50
  -8  -2   9    1.20    0.40
   8  -2  -9    1.10    0.50
  -8  -2   9    0.10    0.50
  -8   2   9    0.80    0.80
  -8   2   9    1.00    0.70
   8   2  -9    0.90    0.40
  -8   2   9    0.00    0.80
   8   2  -9    0.00    0.90
   6  -2  -9   45.40    2.50
  -6  -2   9   44.30    2.20
   6  -2  -9   43.70    2.30
  -6  -2   9   41.70    2.80
  -6   2   9   45.70    2.90
  -6   2   9   45.60    3.30
   6   2  -9   43.90    3.40
  -6   2   9   46.30    2.80
   6   2  -9   46.30    2.10
   4  -2  -9   75.99    3.40
   4  -2  -9   84.89    3.80
  -4  -2   9   77.39    4.30
  -4  -2   9   84.49    3.60
  -4   2   9   82.69    4.40
  -4   2   9   90.99    4.60
   4   2  -9   81.19    3.10
   4   2  -9   83.89    3.30
   4   2  -9   85.09    4.70
  -4   2   9   79.39    4.40
   2  -2  -9   68.29    3.60
  -2  -2   9   73.39    4.30
   2  -2  -9   71.39    3.40
  -2  -2   9   80.09    4.70
   2   2  -9   73.69    3.10
  -2   2   9   81.49    4.50
  -2   2   9   73.49    4.50
   2   2  -9   72.59    3.20
  -2   2   9   68.29    3.90
   2   2  -9   74.89    4.30
   0  -2  -9  101.09    4.50
   0  -2   9  105.19    5.70
   0  -2   9   92.19    5.60
   0   2  -9  101.49    4.20
   0   2  -9   97.99    5.10
   0   2   9   96.89    5.60
   0   2   9   99.29    4.70
   2  -2   9  313.57   12.90
  -2  -2  -9  317.87   11.20
   2  -2   9  327.37   12.80
  -2   2  -9  313.87   10.90
  -2   2  -9  309.87   11.50
   2   2   9  292.67   12.60
   2   2   9  325.27   10.90
   4  -2   9   31.60    3.70
  -4  -2  -9   31.00    2.60
   4  -2   9   33.30    3.60
  -4   2  -9   35.50    2.80
  -4   2  -9   32.20    2.60
   4   2   9   33.80    2.20
   4   2   9   33.80    3.80
  -6  -2  -9   26.80    2.70
   6  -2   9   29.40    3.80
   6  -2   9   25.40    3.50
  -6   2  -9   22.30    2.30
   6   2   9   23.00    3.40
  -6   2  -9   24.00    2.50
   8  -2   9   33.10    4.20
  -8  -2  -9   25.60    2.90
   8   2   9   25.50    3.80
  -8   2  -9   34.30    2.60
  -8   2  -9   33.20    3.10
  10  -2   9   29.60    4.30
 -10  -2  -9   30.80    3.30
  10   2   9   33.00    4.40
 -10   2  -9   35.90    3.40
  12  -2   9   30.60    4.50
 -12  -2  -9   25.70    3.30
 -12   2  -9   19.30    2.90
 -25  -3   9   25.60    3.50
 -25  -3   9   27.60    2.60
 -25  -3   9   24.40    3.60
  25  -3  -9   23.70    3.70
 -25   3   9   24.20    3.80
 -23  -3   9   13.50    1.90
 -23  -3   9   14.00    2.80
  23  -3  -9   21.10    3.30
 -23  -3   9   15.30    2.60
 -23   3   9   13.20    3.00
 -21  -3   9   27.60    3.50
 -21  -3   9   22.40    2.20
 -21  -3   9   22.70    2.80
  21  -3  -9   23.80    3.20
 -21   3   9   29.10    3.80
  19  -3  -9   54.09    4.00
 -19  -3   9   62.59    4.10
 -19  -3   9   58.29    3.30
 -19  -3   9   67.69    4.90
 -19   3   9   54.99    4.70
 -19   3   9   63.19    2.60
  19   3  -9   53.89    3.90
 -17  -3   9   46.00    4.20
  17  -3  -9   46.40    3.40
 -17  -3   9   49.20    2.80
 -17   3   9   46.40    2.00
 -17   3   9   48.10    2.70
  17   3  -9   48.50    4.20
 -17   3   9   46.70    4.40
  17   3  -9   41.10    3.10
  15  -3  -9   43.10    3.00
 -15  -3   9   43.40    2.60
 -15   3   9   46.10    2.00
  15   3  -9   46.40    3.00
 -15   3   9   50.79    2.20
 -15   3   9   47.30    4.00
  15   3  -9   50.79    4.00
 -13  -3   9   31.40    2.10
  13  -3  -9   27.70    2.20
  13   3  -9   27.30    3.10
 -13   3   9   29.00    1.40
 -13   3   9   26.70    3.20
 -13   3   9   26.60    1.50
  13   3  -9   29.70    2.10
 -11  -3   9  160.38    5.40
 -11  -3   9  159.78    6.20
 -11  -3   9  163.98    5.50
  11  -3  -9  165.78    5.20
 -11   3   9  161.08    5.70
 -11   3   9  156.28    5.60
  11   3  -9  154.68    7.60
 -11   3   9  159.98    7.60
  11   3  -9  157.78    5.80
  -9  -3   9   14.20    1.00
   9  -3  -9   15.00    1.10
  -9  -3   9   16.00    1.10
   9  -3  -9   15.20    1.50
  -9  -3   9   18.10    1.70
  -9   3   9   15.20    2.30
   9   3  -9   14.80    2.40
   9   3  -9   16.40    1.20
  -9   3   9   15.30    1.40
  -9   3   9   14.50    1.40
  -7  -3   9   14.00    1.10
   7  -3  -9   17.40    1.30
  -7  -3   9   17.50    1.80
   7  -3  -9   16.90    1.50
   7   3  -9   13.90    1.00
  -7   3   9   12.70    1.50
  -7   3   9   17.30    1.70
  -7   3   9   15.30    2.20
   7   3  -9   14.60    2.30
   5  -3  -9  188.98    6.70
  -5  -3   9  194.18    7.60
  -5  -3   9  193.48    6.40
   5  -3  -9  191.08    7.00
   5   3  -9  189.08    8.20
  -5   3   9  171.78    7.20
   5   3  -9  182.58    6.00
  -5   3   9  190.48    7.90
   5   3  -9  187.08    6.10
  -5   3   9  193.38    7.60
  -3  -3   9   98.79    5.20
  -3  -3   9  110.69    4.30
   3  -3  -9  105.89    4.60
   3   3  -9  106.69    5.50
  -3   3   9  104.99    5.10
   3   3  -9  101.99    3.80
   3   3  -9  107.19    4.00
  -3   3   9  104.29    5.30
  -1  -3   9  158.18    7.30
  -1  -3   9  151.08    7.50
   1  -3  -9  163.38    6.60
   1  -3  -9  161.68    6.20
  -1   3   9  160.48    6.70
   1   3  -9  161.28    7.20
   1   3  -9  166.98    5.80
  -1   3   9  152.58    7.40
   1  -3   9  185.28    8.50
  -1  -3  -9  182.98    7.20
   1  -3   9  190.68    8.80
   1   3   9  180.58    7.00
   1   3   9  175.08    8.40
  -1   3  -9  174.68    7.70
   1   3   9  176.48    7.00
  -1   3  -9  192.08    6.90
   3  -3   9  183.78    9.20
  -3  -3  -9  184.78    7.70
   3  -3   9  202.08    9.30
   3   3   9  181.08    9.10
  -3   3  -9  200.88    7.60
   3   3   9  197.98    7.10
  -3   3  -9  193.58    8.10
   5  -3   9  116.39    7.30
  -5  -3  -9  119.09    5.80
   5  -3   9  128.59    7.20
   5   3   9  112.99    7.10
  -5   3  -9  115.09    5.60
  -5   3  -9  126.89    5.90
   7  -3   9   70.09    5.80
   7  -3   9   70.09    5.60
  -7  -3  -9   65.99    4.30
  -7   3  -9   67.89    4.30
  -7   3  -9   73.09    4.20
   7   3   9   63.39    5.40
  -9  -3  -9   60.29    4.30
   9  -3   9   50.79    5.20
  -9   3  -9   49.90    3.90
  11  -3   9   18.30    3.70
 -11  -3  -9   21.00    2.90
  11   3   9   20.90    3.40
 -11   3  -9   17.20    2.70
 -13  -3  -9    8.50    2.20
  13  -3   9   11.70    3.40
  13   3   9    8.90    2.50
 -13   3  -9    5.60    2.00
 -26  -4   9   18.80    3.30
 -26  -4   9   17.60    2.40
  26  -4  -9   17.50    3.50
 -26  -4   9   13.10    2.90
 -26   4   9   17.90    3.60
 -24  -4   9   38.60    4.00
 -24  -4   9   44.90    3.30
 -24  -4   9   45.90    4.50
  24  -4  -9   41.80    4.50
 -24   4   9   40.30    4.70
 -22  -4   9   89.49    5.40
 -22  -4   9   80.59    4.40
  22  -4  -9   80.29    5.50
 -22  -4   9   82.09    5.70
 -22   4   9   79.19    6.00
  20  -4  -9   26.20    3.20
 -20  -4   9   29.20    2.40
 -20  -4   9   29.60    3.60
 -20  -4   9   26.70    2.90
 -20   4   9   31.10    3.90
 -18  -4   9   76.49    3.90
 -18  -4   9   78.29    4.50
 -18  -4   9   74.09    5.30
  18  -4  -9   87.29    5.00
  18   4  -9   84.79    5.60
 -18   4   9   77.19    5.70
 -16  -4   9   59.29    3.20
  16  -4  -9   53.19    3.60
 -16  -4   9   47.20    3.20
 -16   4   9   45.90    4.30
  16   4  -9   68.39    4.80
  16   4  -9   50.89    3.30
  14  -4  -9   77.39    4.30
 -14  -4   9   95.19    4.10
 -14   4   9   89.09    5.60
  14   4  -9   88.69    4.10
  14   4  -9   78.49    5.30
 -12  -4   9  102.19    4.60
  12  -4  -9  100.29    4.70
 -12  -4   9  113.29    3.90
  12   4  -9  104.69    4.30
 -12   4   9  103.29    6.00
 -10  -4   9   36.00    1.70
  10  -4  -9   33.50    1.40
 -10  -4   9   35.20    1.60
 -10  -4   9   31.90    2.30
  10  -4  -9   36.00    2.40
  10   4  -9   31.10    1.80
 -10   4   9   32.30    1.80
  10   4  -9   33.40    3.30
 -10   4   9   31.40    3.20
  -8  -4   9  265.67    9.60
   8  -4  -9  274.97    8.50
   8  -4  -9  263.37    9.30
  -8  -4   9  266.17    8.20
   8   4  -9  265.37    8.30
  -8   4   9  266.37    9.10
  -8   4   9  246.68   10.50
   8   4  -9  263.57   10.80
   6  -4  -9  131.69    5.10
  -6  -4   9  126.09    5.70
   6  -4  -9  137.19    5.10
  -6  -4   9  126.69    4.50
   6  -4  -9  122.59    5.30
  -6   4   9  129.99    5.50
  -6   4   9  132.39    6.30
   6   4  -9  129.79    6.60
   6   4  -9  128.19    4.30
  -4  -4   9   85.49    3.30
   4  -4  -9   83.39    3.70
  -4  -4   9   76.49    4.30
   4  -4  -9   74.19    3.80
  -4   4   9   84.79    4.40
  -4   4   9   76.59    4.40
   4   4  -9   79.49    3.00
   4   4  -9   81.79    4.80
   4   4  -9   78.79    2.80
  -2  -4   9  133.09    6.50
  -2  -4   9  140.99    5.30
   2  -4  -9  147.79    6.00
  -2   4   9  138.59    6.60
   2   4  -9  137.99    4.80
  -2   4   9  140.19    6.20
   2   4  -9  129.59    6.60
   0  -4  -9  186.68    7.10
   0  -4   9  172.98    8.40
   0  -4  -9  179.98    7.30
   0  -4   9  177.18    8.10
   0   4  -9  155.88    7.70
   0   4  -9  178.68    6.40
   0   4   9  188.98    7.20
   0   4   9  183.58    8.20
   2  -4   9   70.29    4.90
   2  -4   9   61.99    4.80
  -2  -4  -9   61.49    3.60
  -2   4  -9   66.69    4.30
   2   4   9   64.89    3.40
   2   4   9   61.39    4.60
  -2   4  -9   59.09    3.30
   2   4   9   67.29    3.40
   4  -4   9   98.69    6.20
  -4  -4  -9   96.09    5.00
   4  -4   9   89.79    6.20
  -4   4  -9   95.49    5.30
   4   4   9   96.39    6.30
   4   4   9   98.09    4.00
  -4   4  -9   90.49    4.60
   6  -4   9  118.99    7.30
   6  -4   9  120.99    7.60
  -6  -4  -9  116.09    5.90
  -6   4  -9  127.59    5.90
  -6   4  -9  117.29    6.10
   8  -4   9   86.49    6.50
  -8  -4  -9   88.89    5.10
   8  -4   9   95.49    6.60
  -8   4  -9   71.79    4.70
   8   4   9   71.39    5.30
  -8   4  -9   81.29    4.80
 -10  -4  -9   42.20    3.80
  10  -4   9   41.30    5.00
 -10   4  -9   49.60    3.90
  10   4   9   38.20    4.20
  12  -4   9   22.50    4.20
 -12  -4  -9   25.00    3.20
  12   4   9   27.30    3.80
 -12   4  -9   20.80    3.00
  25  -5  -9   39.90    4.60
 -25  -5   9   28.90    3.60
 -25  -5   9   25.20    2.80
 -25  -5   9   29.30    3.90
 -25   5   9   39.30    4.80
 -23  -5   9   26.50    2.60
 -23  -5   9   31.70    3.90
 -23  -5   9   26.50    3.20
  23  -5  -9   28.00    3.80
 -23   5   9   28.20    4.10
 -21  -5   9  137.49    7.00
 -21  -5   9  144.09    7.90
 -21  -5   9  150.58    6.50
  21  -5  -9  150.38    7.80
 -21   5   9  150.88    8.50
  19  -5  -9   25.50    3.00
 -19  -5   9   20.10    2.40
 -19  -5   9   21.70    2.20
  19   5  -9   20.80    3.20
 -19   5   9   20.80    3.50
 -17  -5   9   72.59    3.90
 -17  -5   9   65.09    3.60
  17  -5  -9   57.39    4.00
 -17   5   9   60.09    4.90
  17   5  -9   62.99    4.90
  15  -5  -9   78.79    4.50
 -15  -5   9   78.79    4.10
 -15  -5   9   93.29    4.20
  15   5  -9   84.09    5.50
 -15   5   9   85.09    5.70
 -13  -5   9   75.99    3.50
 -13  -5   9   77.59    3.90
 -13  -5   9   82.29    3.10
  13  -5  -9   66.69    3.90
  13   5  -9   71.59    5.10
 -13   5   9   80.19    5.30
 -11  -5   9   45.00    1.90
 -11  -5   9   42.40    2.70
  11  -5  -9   38.40    2.70
 -11  -5   9   44.70    1.80
  11   5  -9   44.90    2.20
  11   5  -9   44.40    3.90
 -11   5   9   44.10    3.80
  -9  -5   9  301.17    9.10
   9  -5  -9  307.77    9.20
   9  -5  -9  279.17   10.40
  -9  -5   9  304.27   10.70
   9   5  -9  293.97    9.30
   9   5  -9  324.27   12.40
  -9   5   9  301.97   12.00
   7  -5  -9  216.48    8.10
   7  -5  -9  238.18    7.50
  -7  -5   9  211.68    8.40
  -7   5   9  213.98    7.90
   7   5  -9  220.98    6.80
   7   5  -9  222.18    9.60
  -7   5   9  216.18    9.30
   5  -5  -9   99.89    4.50
   5  -5  -9   95.29    4.20
  -5  -5   9   85.29    4.70
  -5   5   9   93.99    5.20
  -5   5   9  101.59    4.70
   5   5  -9  105.49    5.80
   5   5  -9   98.99    3.20
  -3  -5   9  117.29    4.30
   3  -5  -9  117.89    4.80
   3  -5  -9  106.29    5.10
  -3  -5   9  117.79    5.80
   3   5  -9  116.69    4.00
  -3   5   9  113.09    5.60
  -3   5   9  104.79    5.50
   3   5  -9  112.39    6.10
   3   5  -9  115.29    3.80
   1  -5  -9   40.70    2.70
   1  -5  -9   43.80    3.00
  -1  -5   9   45.20    2.50
  -1  -5   9   50.69    3.70
   1   5  -9   40.80    3.60
  -1   5   9   47.30    3.10
   1   5  -9   50.09    2.30
   1   5  -9   50.19    2.70
  -1   5   9   45.90    3.60
  -1  -5  -9   36.90    2.60
   1  -5   9   29.60    3.40
   1  -5   9   36.20    3.50
  -1  -5  -9   36.30    2.80
  -1   5  -9   35.70    3.40
   1   5   9   36.00    3.50
  -1   5  -9   33.00    2.20
   1   5   9   39.40    2.70
   3  -5   9   -0.30    1.20
  -3  -5  -9   -0.30    0.70
   3  -5   9    0.00    1.30
  -3   5  -9    0.00    1.00
  -3   5  -9   -0.70    0.70
   3   5   9    0.70    0.70
  -5  -5  -9   36.90    3.10
   5  -5   9   43.60    4.40
   5  -5   9   53.49    4.70
  -5   5  -9   37.20    3.50
  -5   5  -9   34.30    2.90
   5   5   9   43.00    3.80
   7  -5   9   34.00    4.10
   7  -5   9   29.60    4.00
  -7  -5  -9   29.70    3.00
   7   5   9   33.60    3.60
  -7   5  -9   27.90    3.10
  -7   5  -9   23.30    2.60
  -9  -5  -9   18.00    2.60
   9  -5   9   15.00    3.40
   9  -5   9   18.70    3.50
  -9   5  -9   13.90    2.30
  -9   5  -9   19.70    2.70
   9   5   9   13.60    2.80
 -11  -5  -9   51.39    4.20
  11  -5   9   48.20    5.50
 -11   5  -9   53.79    4.20
  11   5   9   50.29    4.80
  24  -6  -9   11.50    2.80
 -24  -6   9   11.90    2.80
 -24  -6   9    6.60    2.20
 -24  -6   9   11.30    2.10
 -24   6   9   11.90    3.20
 -22  -6   9   19.80    2.40
 -22  -6   9   21.80    2.90
 -22  -6   9   26.70    3.60
  22  -6  -9   20.10    3.30
 -22   6   9   20.00    3.60
 -20  -6   9    9.60    2.00
  20  -6  -9    7.60    2.20
 -20  -6   9   11.50    1.80
  20   6  -9    9.20    2.40
 -20   6   9   11.20    2.90
 -18  -6   9   45.70    3.20
  18  -6  -9   38.70    3.60
 -18  -6   9   42.50    3.00
  18   6  -9   48.10    4.40
 -18   6   9   37.20    4.30
  16  -6  -9   57.79    4.00
 -16  -6   9   53.79    3.40
 -16  -6   9   67.09    3.60
  16   6  -9   67.69    5.00
 -16   6   9   59.69    5.00
  14  -6  -9   48.10    3.40
 -14  -6   9   52.99    2.90
 -14  -6   9   53.29    3.20
 -14  -6   9   55.89    2.50
 -14   6   9   53.09    4.50
  14   6  -9   53.49    4.40
 -12  -6   9   61.09    3.50
 -12  -6   9   59.49    2.80
 -12  -6   9   64.89    2.50
  12   6  -9   68.89    4.90
 -12   6   9   71.89    5.00
 -10  -6   9    6.90    1.30
  10  -6  -9    7.30    1.40
  10   6  -9    8.40    2.10
 -10   6   9   10.50    2.20
  -8  -6   9  118.39    5.40
   8  -6  -9  123.79    4.30
   8  -6  -9  115.69    5.20
  -8   6   9  122.99    4.30
   8   6  -9  110.79    6.40
  -8   6   9  110.39    6.20
   6  -6  -9   23.00    1.90
  -6  -6   9   24.20    2.40
   6  -6  -9   21.40    2.00
   6  -6  -9   25.80    1.90
   6   6  -9   22.00    3.00
  -6   6   9   24.90    1.80
  -6   6   9   19.30    2.60
  -4  -6   9   58.19    3.70
   4  -6  -9   50.89    2.90
   4  -6  -9   53.99    3.20
   4   6  -9   49.00    4.00
  -4   6   9   54.39    3.00
  -4   6   9   52.19    3.70
   2  -6  -9   51.49    3.00
   2  -6  -9   43.70    3.10
  -2  -6   9   50.89    3.70
   2   6  -9   46.90    4.10
  -2   6   9   45.20    3.40
  -2   6   9   52.39    3.20
   2   6  -9   51.19    2.00
   2   6  -9   53.99    2.40
   0  -6  -9    2.70    0.90
   0  -6  -9    4.50    1.30
   0  -6   9    4.30    1.60
   0   6   9    3.90    1.40
   0   6  -9    5.20    0.80
   0   6   9    3.80    1.20
   0   6  -9    4.20    1.60
   2  -6   9    1.30    1.40
  -2  -6  -9    0.50    0.90
  -2  -6  -9    0.20    0.80
   2  -6   9   -0.50    1.20
   2   6   9    3.50    1.40
  -2   6  -9    2.40    0.90
  -2   6  -9    4.80    1.70
   2   6   9    2.50    1.10
   4  -6   9   44.60    4.40
  -4  -6  -9   45.20    3.30
   4  -6   9   50.49    4.70
   4   6   9   40.30    3.70
  -4   6  -9   46.60    3.10
  -4   6  -9   45.60    3.90
  -6  -6  -9  137.69    6.80
   6  -6   9  138.79    8.20
   6  -6   9  140.79    8.40
  -6   6  -9  143.69    6.50
   6   6   9  144.69    7.50
  -6   6  -9  142.79    7.30
   8  -6   9    9.60    2.70
  -8  -6  -9   17.10    2.50
   8  -6   9   17.20    3.50
  -8   6  -9   17.60    2.30
  -8   6  -9   12.50    2.50
   8   6   9   12.50    2.70
 -10  -6  -9    3.60    1.60
  10  -6   9    9.20    2.80
  10  -6   9    2.30    2.00
 -10   6  -9    3.80    1.60
  10   6   9    1.40    1.60
  12  -6   9   12.70    3.50
 -12  -6  -9    6.90    2.00
 -12   6  -9    7.10    2.10
  12   6   9    2.30    1.90
 -25  -7   9   -2.10    1.10
 -25  -7   9    1.80    1.90
 -23  -7   9    3.50    1.50
 -23  -7   9    5.50    1.90
  23  -7  -9    2.70    2.00
 -23  -7   9    2.70    1.90
 -23   7   9    0.90    2.00
 -21  -7   9    4.20    1.50
 -21  -7   9    2.50    1.50
  21  -7  -9    3.80    2.00
  21   7  -9    2.00    1.80
 -21   7   9    2.80    2.20
 -19  -7   9    2.40    1.20
  19  -7  -9    0.50    1.20
 -19  -7   9   -0.10    1.20
 -19   7   9    0.00    1.70
  19   7  -9    1.50    1.50
 -17  -7   9    2.30    1.10
 -17  -7   9    0.50    1.00
  17  -7  -9    1.30    1.30
 -17   7   9    2.60    1.90
  17   7  -9    0.70    1.50
 -15  -7   9    7.70    1.50
 -15  -7   9   11.50    1.50
  15  -7  -9    8.90    1.90
  15   7  -9   11.10    2.50
 -15   7   9   10.50    2.60
  13  -7  -9    7.60    1.60
 -13  -7   9    6.30    0.90
 -13  -7   9    5.40    1.30
 -13   7   9    8.30    2.30
  13   7  -9    9.20    2.30
 -11  -7   9   17.00    1.90
  11  -7  -9   18.50    2.10
 -11   7   9   14.60    2.70
  11   7  -9   22.70    3.10
  -9  -7   9    8.60    1.60
   9  -7  -9    8.80    1.50
   9   7  -9    4.50    1.70
  -9   7   9    5.60    1.80
   7  -7  -9   14.70    1.80
  -7  -7   9   11.80    1.80
   7  -7  -9   15.10    1.40
   7   7  -9   12.70    2.40
  -7   7   9   14.80    1.20
  -7   7   9   15.20    2.50
   5  -7  -9    2.10    0.80
  -5  -7   9   -0.40    0.80
   5  -7  -9    2.60    1.00
  -5   7   9   -0.70    0.60
  -5   7   9   -0.50    1.00
   5   7  -9   -0.20    1.10
   3  -7  -9    1.40    0.90
   3  -7  -9    2.60    0.90
  -3  -7   9    1.60    1.20
  -3   7   9    1.30    0.90
  -3   7   9    2.40    1.30
   3   7  -9    1.60    1.30
   1  -7  -9    0.40    0.80
   1  -7  -9   -0.90    0.50
  -1  -7   9   -0.50    0.90
  -1   7   9   -0.10    0.90
  -1   7   9   -1.10    0.80
   1   7  -9   -0.80    1.10
   1   7  -9    0.20    0.40
   1  -7   9    8.60    2.10
   1  -7   9    3.10    1.60
  -1  -7  -9    2.50    1.00
  -1  -7  -9    3.00    1.20
  -1   7  -9    3.60    1.60
  -1   7  -9    4.50    0.90
   1   7   9    3.10    1.30
   1   7   9    3.10    1.40
   3  -7   9   10.40    2.40
   3  -7   9   13.20    2.80
  -3  -7  -9   13.10    1.90
  -3  -7  -9   11.70    2.00
   3   7   9   13.30    1.70
  -3   7  -9   14.50    1.60
  -3   7  -9   11.40    2.50
   3   7   9   12.90    2.20
   5  -7   9    5.70    2.20
   5  -7   9    3.90    1.90
  -5  -7  -9    1.40    1.10
  -5   7  -9    1.80    1.20
   5   7   9   -0.30    1.40
   7  -7   9    0.00    1.60
  -7  -7  -9   -0.70    1.00
   7  -7   9    1.50    1.70
  -7   7  -9   -1.80    1.00
   7   7   9   -1.50    1.20
  -9  -7  -9    1.80    1.30
   9  -7   9    0.10    1.80
   9  -7   9    3.70    2.40
   9   7   9    1.40    1.60
  -9   7  -9    3.20    1.80
  -9   7  -9    2.60    1.40
  11  -7   9    4.20    2.50
 -11  -7  -9    1.40    1.40
  11  -7   9    1.60    2.00
  11   7   9    5.50    2.10
 -11   7  -9    5.40    1.90
  24  -8  -9    4.70    2.30
 -24  -8   9    4.60    1.70
 -24  -8   9    0.00    1.80
 -24   8   9    1.70    2.60
 -22  -8   9   15.80    2.40
 -22  -8   9   19.00    2.50
  22  -8  -9   12.10    2.90
 -22   8   9   17.60    3.60
  22   8  -9   21.50    3.60
  20  -8  -9    4.80    1.90
 -20  -8   9    7.40    1.70
 -20  -8   9    5.80    1.60
 -20   8   9    6.00    2.60
  20   8  -9    7.50    2.40
  18  -8  -9    9.80    2.20
 -18  -8   9    8.70    1.80
 -18  -8   9    9.40    1.60
 -18   8   9   10.70    2.90
  18   8  -9    9.50    2.60
 -16  -8   9    0.30    0.80
  16  -8  -9    3.10    1.40
 -16  -8   9    0.80    0.90
 -16   8   9    1.60    1.70
  16   8  -9    2.30    1.70
  14  -8  -9    1.00    1.10
 -14  -8   9    0.90    0.80
 -14  -8   9   -0.30    0.60
  14   8  -9    0.90    1.40
 -14   8   9   -1.20    1.30
 -12  -8   9   19.60    2.10
 -12   8   9   17.00    3.00
  12   8  -9   16.90    3.00
  10  -8  -9    0.40    0.80
 -10  -8   9    3.80    1.30
  10   8  -9    6.60    2.00
 -10   8   9    3.10    1.60
  -8  -8   9   22.40    2.40
  -8   8   9   29.30    1.40
  -8   8   9   28.30    3.40
   8   8  -9   30.60    3.60
   6  -8  -9   11.80    1.70
  -6  -8   9   10.50    1.90
  -6   8   9    9.70    2.20
  -6   8   9   10.30    1.20
   6   8  -9   13.70    2.70
   4  -8  -9   21.30    1.90
  -4  -8   9   20.80    2.60
   4  -8  -9   22.30    2.20
   4   8  -9   25.40    3.30
  -4   8   9   22.70    2.80
  -4   8   9   22.90    2.00
  -2  -8   9   21.80    2.70
   2  -8  -9   19.70    2.20
   2  -8  -9   17.20    1.90
  -2   8   9   20.50    2.10
  -2   8   9   22.80    2.70
   2   8  -9   17.50    2.90
   0  -8  -9   44.50    3.00
   0  -8   9   43.10    4.00
   0  -8  -9   41.90    3.10
   0   8   9   40.10    3.30
   0   8  -9   44.70    4.30
   0   8   9   46.00    3.30
  -2  -8  -9    1.80    1.10
   2  -8   9    1.80    1.40
  -2  -8  -9    0.50    0.90
   2  -8   9   -0.20    1.40
  -2   8  -9    0.70    0.70
   2   8   9    2.30    1.20
   2   8   9    0.50    1.00
   4  -8   9   35.20    4.20
  -4  -8  -9   30.40    2.80
   4  -8   9   33.00    4.00
  -4  -8  -9   34.60    3.20
   4   8   9   33.80    3.30
  -4   8  -9   33.60    2.50
   6  -8   9   90.09    6.80
  -6  -8  -9   86.79    5.10
   6  -8   9   97.09    6.60
   6   8   9   90.69    5.70
  -6   8  -9   87.89    4.70
   8  -8   9    9.60    2.90
  -8  -8  -9   11.10    2.20
   8  -8   9    8.70    2.90
   8   8   9   15.30    2.80
 -10  -8  -9   14.90    2.60
  10  -8   9    8.70    3.00
  10  -8   9   19.70    3.90
  10   8   9   14.50    2.90
 -23  -9   9   30.60    3.20
  23  -9  -9   29.20    4.20
 -23   9   9   26.20    4.50
  23   9  -9   27.80    4.10
 -21  -9   9  100.79    5.50
  21  -9  -9   87.89    6.20
  21   9  -9   88.39    6.50
 -21   9   9   95.49    7.30
 -19  -9   9   39.60    3.20
  19  -9  -9   39.20    4.00
 -19   9   9   36.20    4.80
  19   9  -9   34.80    4.30
  17  -9  -9   45.00    3.90
 -17  -9   9   41.20    3.20
  17   9  -9   42.40    4.60
 -17   9   9   38.80    4.80
 -15  -9   9   36.10    3.00
  15  -9  -9   37.60    3.30
  15   9  -9   29.80    4.00
 -15   9   9   37.00    4.40
  13  -9  -9   55.09    3.80
 -13  -9   9   57.39    3.70
 -13   9   9   49.00    4.90
  13   9  -9   69.99    5.30
 -11  -9   9   27.30    2.60
  11  -9  -9   20.20    2.40
  11   9  -9   18.40    3.10
 -11   9   9   18.80    3.20
   9  -9  -9  149.79    6.30
  -9  -9   9  130.69    6.30
   9   9  -9  115.89    7.30
  -9   9   9  138.79    7.50
  -7  -9   9  198.48    8.30
   7  -9  -9  189.68    7.80
   7   9  -9  200.58    9.70
  -7   9   9  183.68    6.30
  -7   9   9  193.48    9.10
   5  -9  -9   51.49    3.40
  -5  -9   9   49.60    3.70
   5  -9  -9   56.39    3.20
  -5   9   9   51.89    4.20
  -5   9   9   53.29    2.80
   5   9  -9   60.69    4.90
  -3  -9   9   79.29    4.90
   3  -9  -9   78.79    4.30
   3  -9  -9   68.89    3.80
  -3   9   9   78.59    4.90
  -3   9   9   75.99    3.80
   3   9  -9   73.19    5.50
   1  -9  -9   48.50    3.10
  -1  -9   9   48.50    4.10
   1  -9  -9   42.80    3.30
  -1   9   9   53.89    3.90
  -1   9   9   50.19    3.30
   1  -9   9   43.30    4.20
  -1  -9  -9   39.00    2.90
  -1  -9  -9   39.40    3.20
   1   9   9   45.50    3.40
   1   9   9   40.00    3.20
  -3  -9  -9    1.00    1.10
  -3  -9  -9    1.90    1.10
   3  -9   9    0.20    1.40
   3  -9   9    4.10    2.10
  -3   9  -9   -1.20    1.40
   3   9   9    2.00    1.20
   5  -9   9   24.70    3.80
  -5  -9  -9   21.70    2.80
   5  -9   9   22.00    3.70
  -5  -9  -9   23.40    2.60
  -5   9  -9   22.40    3.60
   5   9   9   19.00    2.80
  -7  -9  -9   37.80    3.40
  -7  -9  -9   32.90    3.50
   7  -9   9   31.80    4.40
   7  -9   9   31.10    4.40
  -7   9  -9   37.90    4.40
   7   9   9   39.90    3.90
   9  -9   9   16.50    3.70
   9  -9   9   20.80    3.90
  -9  -9  -9   20.20    2.80
   9   9   9   18.60    3.10
  22 -10  -9   57.79    5.50
 -22 -10   9   68.79    4.60
  22  10  -9   60.99    5.70
 -22  10   9   47.70    5.80
 -20 -10   9   58.09    4.20
  20 -10  -9   61.49    5.20
  20  10  -9   58.79    5.50
 -20  10   9   54.99    5.90
 -18 -10   9   75.19    4.70
  18 -10  -9   73.29    5.20
 -18  10   9   67.89    6.30
  18  10  -9   71.79    5.90
 -16 -10   9  120.99    6.00
  16 -10  -9  123.19    6.60
  16  10  -9  119.49    7.60
 -16  10   9  107.59    7.50
  14 -10  -9  128.69    6.60
 -14 -10   9  136.29    6.40
  14  10  -9  129.29    7.90
 -14  10   9  121.69    7.80
 -12 -10   9   84.09    4.70
 -12  10   9   80.19    6.00
  12  10  -9   75.29    5.80
 -10 -10   9   59.79    3.90
  10 -10  -9   52.29    3.60
 -10  10   9   50.89    4.90
  10  10  -9   55.19    5.10
   8 -10  -9  163.68    7.10
  -8 -10   9  163.18    7.50
  -8  10   9  149.99    8.30
   8  10  -9  173.98    9.10
  -6 -10   9   77.99    4.90
   6 -10  -9  101.19    4.90
  -6  10   9   87.19    5.70
   6  10  -9   86.09    6.10
  -6  10   9   92.19    3.60
  -4 -10   9  110.59    6.20
   4 -10  -9  112.39    5.20
   4 -10  -9  115.99    5.60
  -4  10   9  116.79    4.80
   4  10  -9  111.59    7.10
  -4  10   9  108.59    6.40
  -2 -10   9   97.99    6.00
   2 -10  -9  106.69    5.40
   2 -10  -9  114.39    5.20
  -2  10   9  111.29    5.00
  -2  10   9  103.69    5.90
   0 -10   9   14.40    2.70
   0 -10  -9   13.30    1.90
   0 -10  -9   17.70    2.30
   0  10   9   15.80    2.10
   0  10   9   20.10    2.60
   2 -10   9   49.40    4.60
  -2 -10  -9   40.00    3.10
  -2 -10  -9   43.50    3.50
   2  10   9   40.30    3.40
  -2  10  -9   39.00    4.60
  -4 -10  -9   68.79    4.20
   4 -10   9   63.59    5.30
   4 -10   9   72.29    5.90
  -4 -10  -9   61.09    4.40
  -4  10  -9   63.89    5.70
   4  10   9   56.59    4.30
   6 -10   9  136.99    8.50
  -6 -10  -9  145.29    7.00
   6 -10   9  128.99    8.70
  -6 -10  -9  135.19    7.30
   6  10   9  149.29    7.50
  -6  10  -9  135.99    8.40
  -8 -10  -9   70.39    5.10
   8 -10   9   76.09    6.40
   8 -10   9   70.99    6.60
  -8 -10  -9   63.59    4.60
  -8  10  -9   63.09    5.80
   8  10   9   78.69    5.30
  21 -11  -9   47.30    5.00
 -21 -11   9   50.09    4.10
  21  11  -9   50.89    5.40
 -21  11   9   44.10    5.70
 -19 -11   9   74.29    4.90
  19 -11  -9   77.59    5.70
  19  11  -9   80.19    6.30
 -19  11   9   68.49    6.70
 -17 -11   9   73.39    4.80
  17 -11  -9   80.39    5.40
  17  11  -9   84.09    6.40
 -17  11   9   90.99    6.90
  15 -11  -9   85.59    5.30
 -15 -11   9   85.29    5.10
  15  11  -9   85.29    6.50
 -15  11   9   91.19    6.70
  13 -11  -9   82.89    5.00
 -13 -11   9   82.29    4.90
 -13  11   9   83.09    6.30
  13  11  -9   82.89    6.30
 -11 -11   9  217.58    9.00
  11 -11  -9  206.98    8.90
  11  11  -9  219.98   10.90
 -11  11   9  195.88   10.30
  -9 -11   9   63.19    4.30
   9 -11  -9   65.09    4.10
   9  11  -9   68.19    5.60
  -9  11   9   59.19    5.10
   7 -11  -9   72.29    4.30
  -7 -11   9   68.29    4.50
   7  11  -9   70.39    5.80
  -7  11   9   77.59    5.50
  -5 -11   9   79.89    5.10
   5 -11  -9   77.49    4.40
   5  11  -9   74.09    5.90
  -5  11   9   73.49    5.30
  -5  11   9   78.69    3.50
   3 -11  -9   58.69    3.60
   3 -11  -9   66.09    4.00
  -3 -11   9   56.79    4.50
  -3  11   9   53.59    4.50
  -3  11   9   63.49    3.40
   1 -11  -9   68.09    3.90
   1 -11  -9   58.89    4.00
  -1 -11   9   61.79    4.80
  -1  11   9   61.89    4.60
  -1  11   9   63.09    3.70
   1  11  -9   63.89    5.80
  -1 -11  -9   21.10    2.60
   1 -11   9   21.10    3.40
  -1 -11  -9   22.40    2.40
   1  11   9   19.00    2.70
   1  11   9   20.00    2.40
  -1  11  -9   20.50    3.80
   1  11   9   21.60    3.00
   3 -11   9   45.80    4.80
   3 -11   9   42.90    4.90
  -3 -11  -9   48.50    3.80
  -3 -11  -9   40.10    3.20
   3  11   9   51.89    3.80
  -3  11  -9   57.49    5.60
  -5 -11  -9   49.00    3.70
   5 -11   9   48.60    5.10
  -5 -11  -9   41.20    3.90
   5 -11   9   50.59    5.50
   5  11   9   53.09    4.10
  -5  11  -9   47.30    5.30
  -7 -11  -9   31.80    3.20
  -7 -11  -9   34.50    3.70
   7 -11   9   27.00    4.30
   7 -11   9   34.70    5.00
   7  11   9   31.20    3.50
  -7  11  -9   27.60    4.30
  18 -12  -9   34.90    4.10
 -18 -12   9   45.40    3.80
 -18  12   9   58.19    6.10
  18  12  -9   49.50    5.40
  16 -12  -9   65.79    4.90
 -16 -12   9   65.89    4.50
 -16  12   9   59.79    6.00
  16  12  -9   59.49    5.80
  14 -12  -9   70.29    4.80
 -14 -12   9   65.59    4.50
 -14  12   9   80.59    6.30
  14  12  -9   69.99    6.20
 -12 -12   9   45.40    3.50
  12 -12  -9   37.90    3.50
 -12  12   9   29.50    4.30
  12  12  -9   28.90    4.30
  10 -12  -9   70.19    4.50
 -10 -12   9   67.69    4.60
 -10  12   9   67.49    5.60
  10  12  -9   77.69    6.20
  -8 -12   9   20.80    2.80
   8 -12  -9   21.30    2.50
  -8  12   9   24.60    3.70
   8  12  -9   27.80    4.10
  -6 -12   9   46.00    3.90
   6 -12  -9   53.29    3.70
   6  12  -9   47.70    5.10
  -6  12   9   53.89    5.00
  -4 -12   9   27.50    3.40
   4 -12  -9   25.40    2.70
  -4  12   9   32.20    3.70
  -4  12   9   29.20    2.10
   2 -12  -9   34.20    3.10
  -2 -12   9   30.00    3.70
   2 -12  -9   34.80    2.80
  -2  12   9   30.40    3.60
  -2  12   9   32.50    2.50
   0 -12   9   17.30    3.10
   0 -12  -9   15.00    2.00
   0 -12  -9   15.30    2.30
   0  12   9   19.60    3.20
   0  12   9   18.20    2.20
   0  12  -9   17.10    3.60
   0  12   9   13.20    2.60
  -2 -12  -9   40.00    3.20
  -2 -12  -9   41.30    3.70
   2 -12   9   48.20    4.90
  -2  12  -9   37.00    4.90
   2  12   9   39.00    3.30
   4 -12   9   16.90    3.50
  -4 -12  -9   17.10    2.70
  -4 -12  -9   13.90    2.20
   4 -12   9   12.10    3.40
   4  12   9   16.50    2.50
  -4  12  -9   14.10    3.50
  -6 -12  -9    1.00    1.40
   6 -12   9    2.80    2.40
  -6 -12  -9    1.60    1.40
   6 -12   9   -0.30    2.00
  -6  12  -9    4.30    2.60
   6  12   9    1.00    1.60
  17 -13  -9    7.20    2.30
 -17 -13   9    5.20    1.80
  17  13  -9    8.30    2.80
 -17  13   9    3.80    2.40
 -15 -13   9   44.10    3.70
  15 -13  -9   38.00    3.90
 -15  13   9   36.80    5.20
  15  13  -9   44.10    5.20
 -13 -13   9    3.60    1.50
  13 -13  -9    4.60    1.70
 -13  13   9    1.50    1.90
  13  13  -9    3.50    2.30
 -11 -13   9   10.00    2.10
  11  13  -9    9.80    3.00
 -11  13   9   15.20    3.40
  -9 -13   9    9.40    2.10
   9 -13  -9    8.10    1.90
  -9  13   9    5.70    2.50
   9  13  -9    4.10    2.40
   7 -13  -9    4.30    1.50
  -7 -13   9    3.30    1.70
   7  13  -9    2.10    2.10
  -7  13   9    4.40    2.30
  -5 -13   9    6.80    2.00
   5 -13  -9    7.00    1.70
  -5  13   9    7.20    2.50
   5  13  -9   11.40    3.10
   3 -13  -9    0.80    1.00
   3 -13  -9    1.30    1.00
  -3 -13   9   -1.10    1.30
  -3  13   9   -1.00    1.70
  -3  13   9   -1.60    1.40
   1 -13  -9   12.00    1.90
   1 -13  -9    9.80    2.00
  -1 -13   9    7.70    2.40
  -1  13   9    6.80    2.30
   1  13  -9   16.30    3.50
  -1  13   9    7.10    2.60
  -1  13   9    8.60    1.60
  -1 -13  -9   17.70    2.30
   1 -13   9   20.10    3.50
  -1 -13  -9   16.90    2.60
  -1  13  -9   17.10    4.00
   1  13   9   16.00    2.20
  -3 -13  -9   20.50    2.90
  -3 -13  -9   17.00    2.30
   3 -13   9   12.70    3.50
   3 -13   9   21.50    3.80
   3  13   9   21.00    2.70
  -3  13  -9   22.50    4.40
  14 -14  -9    5.40    2.00
 -14 -14   9    2.70    1.50
 -14  14   9    2.70    2.30
  14  14  -9    4.60    2.50
 -12 -14   9   -0.90    1.00
  12 -14  -9   -1.40    1.30
  12  14  -9    0.90    2.00
 -12  14   9    1.30    2.10
 -10 -14   9    2.70    1.40
  10 -14  -9    0.80    1.10
 -10  14   9   -0.60    1.80
  10  14  -9    2.50    2.20
   8 -14  -9   -0.20    1.00
  -8 -14   9    1.60    1.30
   8  14  -9   -0.40    1.80
  -8  14   9    0.00    1.70
  -6 -14   9    7.90    2.20
   6 -14  -9    4.10    1.50
   6  14  -9    7.30    2.90
  -6  14   9    4.00    2.20
  -6  14   9    9.10    3.10
  -4 -14   9    3.80    1.90
   4 -14  -9    4.60    1.50
  -4  14   9    3.30    2.40
  -4  14   9    0.40    1.70
   2 -14  -9    2.80    1.30
  -2 -14   9    2.10    1.70
   2 -14  -9    1.40    1.20
  -2  14   9    2.00    2.40
  -2  14   9    3.00    1.90
   2  14  -9    4.80    2.60
   0 -14   9    1.50    1.80
   0 -14  -9   -0.10    1.10
   0 -14  -9   -0.60    0.90
   0  14   9   -0.90    0.90
   0  14  -9    2.20    2.40
  -2 -14  -9   -1.00    0.90
   2 -14   9    0.10    1.80
  -2 -14  -9    0.80    1.30
   2  14   9   -0.80    1.10
  -2  14  -9    1.40    2.20
 -11 -15   9   37.10    3.80
  11 -15  -9   35.90    3.70
  11  15  -9   39.60    5.40
 -11  15   9   50.89    5.70
  -9 -15   9   23.40    3.20
   9 -15  -9   18.60    2.80
   9  15  -9   19.50    4.20
  -9  15   9   16.80    3.70
  -9  15   9   21.50    4.40
   7 -15  -9    8.00    1.90
  -7 -15   9   12.10    2.50
  -7  15   9    9.80    3.00
   7  15  -9   10.00    3.30
  -7  15   9   11.50    3.50
   5 -15  -9    8.00    1.90
  -5 -15   9   12.30    2.70
   5  15  -9   11.80    3.40
  -5  15   9   10.90    3.40
  -5  15   9    7.40    2.70
  -3 -15   9    8.50    2.50
   3 -15  -9    7.80    2.00
  -3  15   9   11.80    3.30
  -3  15   9    9.60    2.90
 -26   0  10   28.90    4.00
 -26   0  10   33.40    4.10
  26   0 -10   32.10    4.10
  24   0 -10  114.69    7.00
 -24   0  10  124.59    7.20
 -24   0  10  122.49    5.10
 -24   0  10  109.19    7.20
 -22   0  10   57.79    5.10
 -22   0  10   55.59    3.00
  22   0 -10   65.69    4.60
  20   0 -10   40.20    3.60
 -20   0  10   42.20    2.50
 -20   0  10   40.30    4.20
 -18   0  10  224.68    7.80
  18   0 -10  218.68    9.10
 -18   0  10  232.78   10.50
 -16   0  10   24.30    3.20
  16   0 -10   18.20    2.10
 -16   0  10   19.90    1.60
 -14   0  10  392.66   15.10
 -14   0  10  402.66   12.70
  14   0 -10  382.96   13.20
 -12   0  10  692.63   21.40
  12   0 -10  705.73   21.60
 -12   0  10  690.63   23.70
  10   0 -10  338.37   13.10
  10   0 -10  335.97   11.20
 -10   0  10  346.47   11.50
 -10   0  10  352.96   13.30
  -8   0  10  426.96   14.10
   8   0 -10  416.16   13.40
   8   0 -10  420.86   15.30
  -8   0  10  424.86   15.40
   6   0 -10  490.05   17.20
   6   0 -10  487.55   15.20
  -6   0  10  499.75   16.80
  -6   0  10  488.75   16.50
   6   0 -10  500.45   15.50
   4   0 -10  240.68    9.70
   4   0 -10  245.28    8.20
  -4   0  10  252.37    9.80
  -4   0  10  242.28    9.90
   4   0 -10  248.78    8.60
   2   0 -10  262.97    9.10
   2   0 -10  250.37    9.90
   2   0 -10  258.97    8.80
  -2   0  10  265.07   10.50
  -2   0  10  245.58   10.50
   0   0 -10  226.28    8.20
   0   0  10  226.28   10.10
   0   0 -10  226.58    8.90
   0   0  10  223.88    9.80
   2   0  10  881.11   28.70
  -2   0 -10  822.32   26.30
   2   0  10  823.12   28.70
  -2   0 -10  850.81   26.60
  -4   0 -10   68.89    4.00
   4   0  10   56.49    5.10
  -4   0 -10   76.19    3.90
  -6   0 -10  253.07   10.00
   6   0  10  242.08   12.00
  -8   0 -10  144.09    7.00
   8   0  10  134.49    8.60
  10   0  10   52.29    5.40
 -10   0 -10   43.70    4.00
 -12   0 -10  149.69    7.90
  12   0  10  144.59    9.70
  27  -1 -10   81.19    6.40
 -27  -1  10   80.69    6.10
 -27  -1  10   92.39    6.50
 -27   1  10   79.39    6.30
 -27   1  10   74.99    6.10
 -25  -1  10   56.99    5.20
  25  -1 -10   67.59    5.30
 -25  -1  10   60.69    3.50
 -25  -1  10   56.19    4.90
 -25   1  10   49.70    5.10
 -23  -1  10   40.20    2.60
  23  -1 -10   37.70    3.90
 -23  -1  10   41.80    4.40
 -23  -1  10   37.70    3.80
  23   1 -10   34.90    3.80
 -23   1  10   37.80    4.40
 -21  -1  10   78.59    3.70
 -21  -1  10   73.19    5.50
  21  -1 -10   66.59    4.80
 -21   1  10   74.19    5.60
  21   1 -10   63.09    4.60
 -21   1  10   79.19    3.40
 -19  -1  10   34.30    2.20
  19  -1 -10   32.40    3.10
 -19  -1  10   32.80    3.90
 -19   1  10   37.50    2.10
  19   1 -10   32.40    3.10
 -19   1  10   37.80    4.00
  17  -1 -10  197.58    8.10
 -17  -1  10  191.58    9.20
 -17  -1  10  191.98    7.00
  17   1 -10  191.78    7.90
 -17   1  10  187.98    9.30
 -17   1  10  187.48    6.60
 -15  -1  10  200.58    7.20
 -15  -1  10  201.98    9.40
  15  -1 -10  210.78    8.00
 -15   1  10  195.08    6.90
  15   1 -10  206.28    7.80
 -15   1  10  211.78    9.60
 -15   1  10  195.38    6.90
 -13  -1  10   92.29    4.10
  13  -1 -10  102.79    4.40
 -13  -1  10   96.29    5.80
 -13   1  10   85.39    5.50
 -13   1  10   95.89    4.00
  13   1 -10   92.09    4.20
  13   1 -10   93.49    5.60
 -13   1  10   99.99    3.80
  11  -1 -10  287.17    9.10
 -11  -1  10  278.97    9.60
 -11   1  10  271.47   11.30
 -11   1  10  279.77    9.50
  11   1 -10  269.87    9.30
  11   1 -10  277.57   11.40
  -9  -1  10  278.37   10.00
   9  -1 -10  292.77    9.60
   9   1 -10  287.17    9.30
  -9   1  10  286.27    9.90
  -9   1  10  279.07   11.30
   9   1 -10  274.77   11.30
   7  -1 -10  302.47   10.00
  -7  -1  10  311.37   10.90
  -7   1  10  310.27   11.00
   7   1 -10  294.27   11.60
   7   1 -10  293.97    9.70
  -7   1  10  298.87   11.60
  -7   1  10  292.07   10.70
  -5  -1  10  277.77   11.00
   5  -1 -10  297.17    9.60
  -5  -1  10  277.17   10.70
   5  -1 -10  291.47    9.80
   5  -1 -10  298.27   11.10
   5   1 -10  290.67    9.30
  -5   1  10  295.17   11.10
  -5   1  10  281.47   11.00
   5   1 -10  281.17    9.50
   5   1 -10  297.67   11.30
  -5   1  10  296.57   10.90
   3  -1 -10  148.49    5.60
  -3  -1  10  156.08    7.10
  -3  -1  10  150.18    7.20
   3  -1 -10  149.09    6.60
   3  -1 -10  132.59    5.70
   3   1 -10  155.58    5.50
  -3   1  10  147.59    7.10
   3   1 -10  149.29    5.70
  -3   1  10  136.89    6.50
   3   1 -10  148.49    6.80
  -3   1  10  156.28    7.00
   1  -1 -10  199.88    7.30
   1  -1 -10  198.18    7.90
  -1  -1  10  203.88    9.10
   1  -1 -10  195.18    7.50
  -1  -1  10  211.48    9.00
   1   1 -10  190.88    7.00
  -1   1  10  185.68    8.60
  -1   1  10  187.58    7.80
   1   1 -10  186.18    8.00
  -1   1  10  189.08    8.80
   1  -1  10  138.19    7.60
  -1  -1 -10  146.39    6.10
   1  -1  10  152.28    7.60
  -1   1 -10  144.49    6.50
   1   1  10  145.59    7.50
   1   1  10  141.09    6.10
  -1   1 -10  144.29    5.90
   1   1  10  144.59    7.70
  -3  -1 -10  410.36   14.50
   3  -1  10  453.45   16.80
   3  -1  10  406.86   16.60
   3   1  10  407.76   16.50
  -3   1 -10  410.26   14.40
  -3   1 -10  436.66   14.60
   3   1  10  429.56   14.10
   5  -1  10   54.99    5.20
  -5  -1 -10   55.89    3.80
   5   1  10   60.29    5.20
  -5   1 -10   62.59    3.60
  -5   1 -10   60.19    3.80
   7  -1  10  111.89    7.50
  -7  -1 -10  112.59    5.90
  -7   1 -10  105.09    5.70
   7   1  10  106.49    7.40
   9  -1  10   82.59    6.60
  -9  -1 -10   71.09    4.80
   9   1  10   69.89    6.20
  -9   1 -10   75.69    4.90
  11  -1  10   60.09    6.00
 -11  -1 -10   52.79    4.40
  11   1  10   52.79    5.80
 -11   1 -10   60.79    4.60
 -26  -2  10   43.60    4.70
  26  -2 -10   40.10    4.60
 -26  -2  10   40.00    3.00
 -26  -2  10   36.70    4.20
 -26   2  10   39.50    4.70
 -24  -2  10   22.70    3.60
  24  -2 -10   23.40    3.50
 -24  -2  10   28.90    3.50
 -24  -2  10   27.50    2.30
 -24   2  10   27.20    4.00
  22  -2 -10   26.40    3.30
 -22  -2  10   28.80    3.70
 -22  -2  10   29.30    2.30
 -22  -2  10   27.50    3.20
  22   2 -10   32.80    3.40
 -22   2  10   26.80    3.80
 -20  -2  10   83.99    5.80
  20  -2 -10   85.49    5.20
 -20  -2  10   80.09    3.90
 -20   2  10   86.79    6.00
 -20   2  10   82.29    3.40
  20   2 -10   77.39    4.90
 -18  -2  10    3.10    1.80
 -18  -2  10    3.70    1.00
  18  -2 -10    3.30    1.40
 -18   2  10    4.90    0.80
  18   2 -10    4.90    1.50
 -18   2  10    3.00    1.80
 -16  -2  10  207.98    9.70
 -16  -2  10  203.28    7.60
  16  -2 -10  214.98    8.50
  16   2 -10  205.78    8.20
 -16   2  10  209.28    9.90
 -16   2  10  216.48    7.10
  16   2 -10  234.48   10.00
 -16   2  10  206.58    7.10
 -14  -2  10   48.90    2.70
  14  -2 -10   39.00    2.70
 -14   2  10   45.10    2.30
 -14   2  10   42.40    2.10
  14   2 -10   39.30    3.80
  14   2 -10   49.80    2.90
 -14   2  10   38.50    3.80
  12  -2 -10   22.20    1.90
  12  -2 -10   23.00    1.40
 -12  -2  10   20.70    1.80
 -12   2  10   23.60    1.70
 -12   2  10   17.50    2.70
  12   2 -10   20.80    2.90
  12   2 -10   20.20    1.70
  10  -2 -10  156.38    6.20
  10  -2 -10  173.08    5.70
 -10  -2  10  155.88    6.30
 -10   2  10  169.88    6.40
 -10   2  10  159.88    6.10
 -10   2  10  161.28    7.70
  10   2 -10  162.38    7.80
  10   2 -10  156.08    5.70
  -8  -2  10   81.29    3.30
   8  -2 -10   87.09    3.70
  -8  -2  10   76.19    4.00
  -8   2  10   80.29    4.10
   8   2 -10   80.89    4.90
  -8   2  10   80.59    4.00
   8   2 -10   74.89    3.20
  -8   2  10   70.99    4.60
  -6  -2  10  138.99    5.30
  -6  -2  10  140.69    6.30
   6  -2 -10  142.79    5.30
   6  -2 -10  149.59    5.60
   6   2 -10  139.39    4.90
  -6   2  10  138.39    6.10
   6   2 -10  141.09    5.10
  -6   2  10  151.18    6.40
  -6   2  10  138.49    6.70
   6   2 -10  147.59    7.00
  -4  -2  10   74.79    4.30
  -4  -2  10   66.49    4.40
   4  -2 -10   71.99    3.30
   4  -2 -10   70.59    3.50
  -4   2  10   66.79    4.30
   4   2 -10   65.99    2.90
   4   2 -10   66.79    4.30
  -4   2  10   73.59    4.30
   4   2 -10   70.89    3.10
  -4   2  10   74.39    4.30
   2  -2 -10  106.49    4.90
  -2  -2  10  108.59    5.90
  -2  -2  10  113.49    6.20
   2  -2 -10  111.79    4.70
  -2   2  10  102.09    5.90
   2   2 -10  105.49    5.60
   2   2 -10  107.29    4.30
  -2   2  10  110.29    5.30
  -2   2  10  123.09    6.10
   2   2 -10  110.89    4.50
   0  -2  10  144.59    7.60
   0  -2 -10  141.59    6.00
   0  -2  10  152.88    7.50
   0   2 -10  145.59    5.80
   0   2  10  149.79    7.60
   0   2 -10  144.19    6.70
   0   2  10  145.19    6.30
   2  -2  10   12.10    2.60
   2  -2  10    9.20    2.40
  -2  -2 -10   10.60    1.60
  -2   2 -10    8.70    1.40
   2   2  10   12.80    1.60
  -2   2 -10   10.50    1.80
   2   2  10   13.80    2.70
  -4  -2 -10   98.49    5.10
   4  -2  10   90.69    6.50
   4  -2  10  104.89    6.60
  -4   2 -10   98.89    5.10
  -4   2 -10   99.19    4.90
   4   2  10   94.79    4.30
   4   2  10   95.79    6.50
   6  -2  10   11.60    2.70
   6  -2  10    8.30    2.60
  -6  -2 -10   11.40    2.00
   6   2  10   13.70    3.00
  -6   2 -10   14.80    2.10
  -6   2 -10   14.90    2.00
   8  -2  10   50.39    5.30
  -8  -2 -10   46.00    3.70
  -8   2 -10   47.40    3.80
   8   2  10   45.00    5.00
 -10  -2 -10   31.70    3.40
  10  -2  10   28.50    4.40
 -10   2 -10   35.10    3.50
  10   2  10   31.40    4.50
 -12  -2 -10    9.10    2.30
  12  -2  10    8.50    3.20
 -12   2 -10    9.80    2.40
  25  -3 -10    1.70    1.90
 -25  -3  10   -0.10    1.50
 -25  -3  10   -1.00    1.60
 -25  -3  10    0.60    1.10
 -25   3  10   -0.10    1.80
 -23  -3  10   14.20    3.00
 -23  -3  10   12.80    1.80
  23  -3 -10   12.30    2.80
 -23  -3  10   14.20    2.60
 -23   3  10   15.60    3.20
 -21  -3  10   10.10    1.50
 -21  -3  10    9.70    2.10
 -21  -3  10   10.50    2.60
  21  -3 -10   11.00    2.30
 -21   3  10   11.20    2.70
  21   3 -10   12.10    2.30
 -19  -3  10   30.60    3.70
  19  -3 -10   25.00    2.80
 -19  -3  10   30.50    2.30
 -19   3  10   27.50    3.70
  19   3 -10   24.50    2.70
 -17  -3  10    0.20    0.60
  17  -3 -10    0.00    0.90
 -17  -3  10   -0.70    1.20
  17   3 -10    0.40    1.20
 -17   3  10    0.10    0.50
  17   3 -10    1.70    1.00
 -17   3  10    0.40    1.50
 -15  -3  10    0.70    0.70
  15  -3 -10    0.60    0.90
  15   3 -10   -0.40    0.70
 -15   3  10    1.10    0.50
  15   3 -10    1.80    1.40
 -15   3  10   -0.10    0.50
 -15   3  10   -0.40    1.00
  13  -3 -10   39.50    2.70
 -13  -3  10   45.50    2.70
  13   3 -10   41.50    2.50
 -13   3  10   44.60    1.90
 -13   3  10   42.30    2.20
  13   3 -10   45.50    4.00
 -13   3  10   35.30    3.70
 -11  -3  10    0.00    0.40
  11  -3 -10    0.60    0.40
 -11  -3  10    0.20    0.70
 -11  -3  10    0.30    0.40
  11  -3 -10    0.00    0.50
  11   3 -10    0.20    1.00
 -11   3  10    0.50    0.70
  11   3 -10    0.00    0.50
 -11   3  10   -1.30    0.90
 -11   3  10    1.00    0.60
  -9  -3  10    1.00    0.50
   9  -3 -10    0.40    0.40
  -9  -3  10    0.20    0.70
   9  -3 -10    0.30    0.50
   9   3 -10   -0.40    0.90
  -9   3  10    0.50    0.80
  -9   3  10    1.00    1.10
   9   3 -10    0.20    0.40
  -9   3  10    0.90    0.70
  -7  -3  10   11.00    1.00
   7  -3 -10   13.20    1.40
  -7  -3  10   10.50    1.70
   7  -3 -10   10.80    1.20
  -7   3  10    9.50    1.50
   7   3 -10   10.50    2.10
  -7   3  10   12.80    1.60
   7   3 -10   10.70    0.90
  -7   3  10   10.40    2.00
   5  -3 -10   18.00    1.50
  -5  -3  10   18.80    1.50
   5  -3 -10   18.30    1.80
  -5   3  10   20.20    2.20
   5   3 -10   18.10    1.20
   5   3 -10   17.30    2.50
   5   3 -10   19.10    1.20
  -5   3  10   16.10    2.10
  -5   3  10   20.60    2.40
   3  -3 -10    3.60    0.90
   3  -3 -10    2.70    0.90
  -3  -3  10    1.80    1.20
  -3  -3  10    2.50    1.40
   3   3 -10    3.20    0.70
   3   3 -10    3.80    0.70
  -3   3  10    2.70    1.30
   3   3 -10    3.10    1.30
  -3   3  10    4.20    1.40
   1  -3 -10   11.10    1.60
   1  -3 -10    9.90    1.40
  -1  -3  10    7.70    2.00
  -1  -3  10   12.10    2.30
   1   3 -10    9.00    1.90
   1   3 -10   12.60    1.30
  -1   3  10    8.70    2.10
  -1   3  10   12.80    1.80
   1  -3  10   20.90    3.10
   1  -3  10   19.20    2.90
  -1  -3 -10   19.90    2.00
  -1   3 -10   22.10    2.60
  -1   3 -10   21.80    1.90
   1   3  10   22.30    2.10
   1   3  10   23.40    3.10
   3  -3  10  129.49    7.90
   3  -3  10  161.98    8.20
  -3  -3 -10  131.59    6.30
  -3   3 -10  145.89    6.80
   3   3  10  147.59    8.00
   3   3  10  140.09    5.70
  -3   3 -10  139.39    6.00
   5  -3  10   78.39    6.10
  -5  -3 -10   75.79    4.60
   5  -3  10   97.09    6.30
  -5   3 -10   87.99    4.70
  -5   3 -10   83.19    4.80
   5   3  10   82.19    6.10
  -7  -3 -10    4.60    1.50
   7  -3  10    3.20    1.90
   7  -3  10    4.80    2.10
  -7   3 -10    4.20    1.50
  -7   3 -10    4.50    1.60
   7   3  10    4.60    2.10
   9  -3  10    0.30    1.70
  -9  -3 -10   -1.10    0.80
  -9   3 -10   -1.10    1.00
  11  -3  10    0.60    1.90
 -11  -3 -10    2.20    1.40
  11   3  10    1.80    1.80
 -11   3 -10    2.30    1.60
 -26  -4  10   18.90    2.40
 -26  -4  10   18.10    3.40
  26  -4 -10   15.10    3.40
 -26  -4  10   16.00    3.00
 -26   4  10   16.40    3.70
  24  -4 -10    5.10    2.30
 -24  -4  10    8.60    2.30
 -24  -4  10    5.00    2.30
 -24  -4  10    6.30    1.50
 -24   4  10    5.60    2.50
 -22  -4  10    0.90    1.50
  22  -4 -10    5.00    1.90
 -22  -4  10    1.60    1.10
 -22  -4  10    2.80    1.80
 -22   4  10    1.30    1.90
  20  -4 -10    3.10    1.60
 -20  -4  10    1.60    1.20
 -20  -4  10    2.70    1.00
 -20  -4  10    2.10    1.60
 -20   4  10    1.60    1.80
  20   4 -10    4.00    1.90
 -18  -4  10    4.30    1.40
  18  -4 -10    4.20    1.60
 -18  -4  10    3.80    1.10
  18   4 -10    3.50    1.40
  18   4 -10    2.60    1.60
 -18   4  10    4.50    2.00
 -16  -4  10    1.00    0.70
  16  -4 -10   -0.30    0.90
  16   4 -10    0.10    0.90
 -16   4  10   -0.10    1.30
  16   4 -10    0.00    1.20
 -14  -4  10    6.20    1.30
  14  -4 -10    5.60    1.30
  14   4 -10    8.10    1.30
 -14   4  10    7.30    2.00
  14   4 -10    5.40    1.70
 -12  -4  10  118.19    5.10
 -12  -4  10  122.89    4.30
 -12  -4  10  120.99    4.10
 -12   4  10  108.59    4.20
  12   4 -10  109.09    4.50
  12   4 -10  115.99    6.60
 -12   4  10  120.49    6.60
 -12   4  10  113.19    3.80
 -10  -4  10  160.68    5.40
 -10  -4  10  161.48    5.20
  10  -4 -10  166.78    5.30
  10  -4 -10  146.39    6.20
 -10  -4  10  154.48    6.40
 -10   4  10  157.78    7.70
 -10   4  10  152.98    5.90
  10   4 -10  155.28    5.40
  10   4 -10  153.78    7.80
  -8  -4  10    2.60    1.10
   8  -4 -10    2.10    0.70
   8  -4 -10    3.60    1.00
  -8  -4  10    2.90    0.60
  -8   4  10    3.90    1.40
   8   4 -10    2.70    1.40
   8   4 -10    3.30    0.50
  -8   4  10    2.30    1.00
  -6  -4  10  260.87   10.10
   6  -4 -10  263.17    9.50
   6  -4 -10  266.07    9.20
  -6  -4  10  259.47    8.60
  -6   4  10  266.97   10.70
   6   4 -10  276.97   11.10
  -6   4  10  268.47    9.90
   6   4 -10  267.57    8.30
   4  -4 -10    5.10    1.10
   4  -4 -10    4.40    0.90
  -4  -4  10    4.40    0.90
  -4  -4  10    3.50    1.40
  -4   4  10    2.40    1.20
  -4   4  10    4.40    1.30
   4   4 -10    4.70    0.60
   4   4 -10    4.90    0.70
   4   4 -10    2.30    1.30
  -2  -4  10   46.70    3.90
   2  -4 -10   43.60    2.90
   2  -4 -10   52.99    2.90
  -2  -4  10   47.70    3.70
   2   4 -10   43.20    3.60
  -2   4  10   39.00    3.40
   2   4 -10   46.10    2.30
   2   4 -10   46.70    2.20
  -2   4  10   43.60    3.20
   0  -4 -10  118.09    5.60
   0  -4  10  113.69    6.50
   0  -4 -10  127.49    5.40
   0  -4  10  113.49    6.80
   0   4  10  120.59    6.60
   0   4  10  113.59    5.40
   0   4 -10  126.79    4.90
   0   4 -10  116.99    6.20
   2  -4  10  101.59    6.60
   2  -4  10  118.29    6.70
  -2  -4 -10  100.99    5.00
   2   4  10  108.89    4.80
  -2   4 -10  103.89    5.70
   2   4  10   84.89    6.00
  -2   4 -10  106.99    4.70
   4  -4  10   27.70    3.80
  -4  -4 -10   26.60    2.60
   4  -4  10   30.00    3.80
   4   4  10   37.90    4.10
  -4   4 -10   38.90    3.40
  -4   4 -10   32.60    2.70
   6  -4  10   25.10    3.80
  -6  -4 -10   28.30    2.90
   6  -4  10   34.90    4.30
   6   4  10   28.90    3.90
  -6   4 -10   32.20    3.10
  -6   4 -10   31.60    2.90
   8  -4  10   37.20    4.60
  -8  -4 -10   36.20    3.40
   8  -4  10   40.30    4.80
   8   4  10   37.30    4.10
  -8   4 -10   37.10    3.30
 -10  -4 -10    6.40    1.90
  10  -4  10   13.60    3.40
  10   4  10    3.10    1.90
 -10   4 -10    5.00    1.90
 -25  -5  10   27.40    2.80
  25  -5 -10   26.90    4.00
 -25  -5  10   25.50    3.80
 -25  -5  10   27.40    3.40
 -25   5  10   26.30    4.30
 -23  -5  10   19.00    2.80
 -23  -5  10   21.40    3.40
  23  -5 -10   21.60    3.30
 -23  -5  10   17.10    2.20
 -23   5  10   14.40    3.20
  21  -5 -10   46.60    4.20
 -21  -5  10   40.90    2.90
 -21  -5  10   33.60    3.20
 -21  -5  10   38.10    4.20
 -21   5  10   41.50    4.80
  21   5 -10   34.80    4.10
 -19  -5  10   43.80    3.00
  19  -5 -10   45.90    3.90
 -19  -5  10   49.70    3.50
  19   5 -10   57.29    4.90
 -19   5  10   51.89    5.00
  17  -5 -10   47.70    3.60
 -17  -5  10   42.30    2.90
 -17  -5  10   41.60    3.00
  17   5 -10   45.30    4.40
 -17   5  10   46.10    4.60
 -15  -5  10   90.29    4.40
 -15  -5  10   95.99    4.30
  15  -5 -10   84.79    4.70
  15   5 -10   90.69    6.00
 -15   5  10   86.29    5.90
  13  -5 -10  105.19    5.00
 -13  -5  10  111.29    3.90
 -13  -5  10   98.69    4.80
 -13   5  10   92.79    6.10
  13   5 -10  104.09    4.30
  13   5 -10  109.89    6.50
  11  -5 -10  129.69    4.10
 -11  -5  10  128.89    4.40
  11  -5 -10  121.39    5.60
 -11  -5  10  121.69    5.60
 -11  -5  10  134.19    4.30
  11   5 -10  132.19    4.70
 -11   5  10  130.69    7.00
  11   5 -10  124.59    7.00
  -9  -5  10  169.88    7.10
   9  -5 -10  173.58    6.90
   9  -5 -10  172.68    5.80
   9   5 -10  159.18    8.20
   9   5 -10  173.98    5.60
  -9   5  10  166.68    8.10
  -9   5  10  178.28    6.40
   7  -5 -10  215.08    7.30
  -7  -5  10  192.48    8.20
   7  -5 -10  203.88    7.80
  -7   5  10  207.68    7.80
   7   5 -10  205.08    6.40
  -7   5  10  202.68    9.00
   7   5 -10  200.88    9.30
  -5  -5  10  329.07   12.00
  -5  -5  10  319.37    9.90
   5  -5 -10  303.47   10.60
   5  -5 -10  315.37   11.10
   5   5 -10  326.37    9.60
  -5   5  10  304.47   11.40
   5   5 -10  308.47   12.50
  -5   5  10  296.17   11.90
   3  -5 -10   54.29    3.10
  -3  -5  10   55.39    2.70
  -3  -5  10   53.59    4.00
   3  -5 -10   58.09    3.40
   3   5 -10   56.49    2.30
  -3   5  10   53.29    3.70
   3   5 -10   59.29    2.40
   3   5 -10   61.29    4.40
  -3   5  10   50.59    3.80
  -1  -5  10   75.89    5.00
   1  -5 -10   84.89    4.10
   1  -5 -10   79.49    4.30
  -1  -5  10   77.69    5.40
  -1   5  10   75.29    5.00
   1   5 -10   75.99    3.30
  -1   5  10   73.39    4.30
   1   5 -10   80.79    5.10
   1  -5  10  204.28   10.10
  -1  -5 -10  201.68    8.60
  -1  -5 -10  212.68    8.30
   1  -5  10  221.88   10.00
  -1   5 -10  199.58    9.30
  -1   5 -10  218.18    7.70
   1   5  10  226.58   10.00
   1   5  10  212.98    8.20
   3  -5  10  104.39    6.50
   3  -5  10  102.69    6.80
  -3  -5 -10   97.69    5.00
  -3   5 -10   91.49    4.60
  -3   5 -10   88.49    5.50
   5  -5  10  144.09    8.30
   5  -5  10  135.19    8.40
  -5  -5 -10  140.09    6.70
  -5   5 -10  144.09    7.20
   5   5  10  141.29    7.50
  -5   5 -10  143.79    6.40
   7  -5  10   27.40    4.10
  -7  -5 -10   32.80    3.20
   7  -5  10   39.90    4.70
   7   5  10   35.40    3.90
  -7   5 -10   40.90    3.70
  -7   5 -10   38.40    3.20
   9  -5  10   41.30    5.00
  -9  -5 -10   38.50    3.60
   9  -5  10   42.00    5.10
  -9   5 -10   43.20    3.70
   9   5  10   34.40    4.10
 -11  -5 -10   63.69    4.80
  11  -5  10   61.19    6.30
 -11   5 -10   59.49    4.60
  11   5  10   54.89    5.20
 -24  -6  10   62.69    4.70
 -24  -6  10   66.09    4.20
 -24  -6  10   58.49    5.50
  24  -6 -10   72.89    5.70
 -24   6  10   65.49    6.20
 -22  -6  10  100.29    6.70
  22  -6 -10   93.49    6.30
 -22  -6  10   98.59    5.60
 -22  -6  10  102.49    5.20
 -22   6  10   96.19    7.10
  22   6 -10  103.39    6.80
 -20  -6  10  145.09    6.50
 -20  -6  10  143.69    6.70
  20  -6 -10  130.69    7.30
  20   6 -10  156.68    8.50
 -20   6  10  151.38    8.70
 -18  -6  10   63.19    3.70
 -18  -6  10   56.09    3.60
  18  -6 -10   59.39    4.30
  18   6 -10   63.99    5.10
 -18   6  10   61.29    5.50
 -16  -6  10  233.88    8.30
 -16  -6  10  219.18    8.70
  16  -6 -10  216.48    9.20
 -16   6  10  221.98   10.80
  16   6 -10  246.98   11.00
 -14  -6  10  195.98    6.80
 -14  -6  10  179.68    7.40
  14  -6 -10  181.28    7.80
  14   6 -10  187.18    9.30
 -14   6  10  187.58    9.30
 -12  -6  10   73.19    2.70
 -12  -6  10   71.19    2.60
 -12  -6  10   75.19    4.00
  12  -6 -10   66.09    4.00
 -12  -6  10   68.99    2.90
  12   6 -10   73.59    5.30
 -12   6  10   66.89    5.00
  10  -6 -10  150.98    6.60
 -10  -6  10  163.88    6.90
  10  -6 -10  164.58    5.10
 -10   6  10  156.38    8.00
  10   6 -10  161.48    8.30
  -8  -6  10  395.96   14.00
   8  -6 -10  394.26   13.50
   8  -6 -10  393.06   12.50
  -8   6  10  412.76   12.60
   8   6 -10  399.16   15.40
  -8   6  10  382.46   14.90
   6  -6 -10  121.79    5.60
  -6  -6  10  127.59    6.20
   6  -6 -10  133.79    5.40
  -6   6  10  120.59    6.50
   6   6 -10  130.59    7.00
  -6   6  10  134.29    5.30
   4  -6 -10  361.86   12.90
  -4  -6  10  378.16   13.90
   4  -6 -10  362.86   12.50
  -4   6  10  375.56   12.80
   4   6 -10  370.26   11.10
  -4   6  10  383.16   13.80
   4   6 -10  369.26   14.50
  -2  -6  10  229.08    9.90
   2  -6 -10  227.68    8.40
   2  -6 -10  219.78    8.80
   2   6 -10  224.28    7.30
   2   6 -10  220.68   10.00
  -2   6  10  227.08    9.20
   2   6 -10  222.58    7.20
  -2   6  10  226.08    8.90
   0  -6 -10  210.68    8.60
   0  -6 -10  237.18    9.30
   0  -6  10  215.38   10.10
   0  -6  10  236.08   10.80
   0   6  10  232.48    9.40
   0   6 -10  237.28    7.90
   0   6  10  231.78    9.00
   0   6 -10  234.58   10.30
   2  -6  10   61.39    5.10
  -2  -6 -10   71.89    4.40
  -2  -6 -10   71.19    4.10
   2  -6  10   70.29    5.60
  -2   6 -10   73.09    5.10
  -2   6 -10   74.29    3.70
   2   6  10   78.19    4.00
   2   6  10   74.89    4.70
   4  -6  10  137.69    8.10
  -4  -6 -10  157.18    6.90
   4  -6  10  129.09    8.20
   4   6  10  147.39    7.40
  -4   6 -10  141.79    6.20
  -4   6 -10  139.49    7.50
   6  -6  10   45.70    5.00
  -6  -6 -10   35.40    3.30
   6  -6  10   45.10    4.90
   6   6  10   47.30    4.30
  -6   6 -10   46.80    4.20
  -6   6 -10   43.80    3.30
   8  -6  10   57.99    6.00
   8  -6  10   68.39    6.20
  -8  -6 -10   69.19    4.70
  -8   6 -10   76.69    5.30
  -8   6 -10   72.69    4.60
   8   6  10   81.09    5.60
  10  -6  10   73.89    6.90
 -10  -6 -10   79.09    5.30
  10   6  10   89.49    6.20
 -10   6 -10   76.89    5.10
 -23  -7  10  125.29    8.00
 -23  -7  10  140.69    7.00
 -23  -7  10  131.69    6.60
  23  -7 -10  149.69    8.30
  23   7 -10  144.29    8.40
 -23   7  10  133.19    8.70
 -21  -7  10   98.49    5.30
  21  -7 -10  101.39    6.40
 -21  -7  10  101.39    5.40
 -21   7  10  107.39    7.40
  21   7 -10   96.89    6.80
 -19  -7  10  116.59    5.60
 -19  -7  10  116.99    5.70
  19  -7 -10  113.69    6.50
 -19   7  10  125.69    7.90
  19   7 -10  113.69    7.30
 -17  -7  10  133.59    6.10
  17  -7 -10  125.29    6.60
 -17  -7  10  137.29    5.70
 -17   7  10  135.59    8.10
  17   7 -10  129.79    7.70
 -15  -7  10  119.09    5.60
  15  -7 -10  117.09    5.90
 -15  -7  10  115.89    4.70
  15   7 -10  109.79    6.90
 -15   7  10  112.09    7.10
  13  -7 -10  207.78    8.80
 -13  -7  10  215.18    8.60
 -13  -7  10  226.88    7.20
 -13   7  10  237.28   10.70
  13   7 -10  225.58   10.60
  11  -7 -10  121.49    5.70
 -11  -7  10  123.39    5.80
 -11   7  10  117.89    6.90
  11   7 -10  131.09    7.30
   9  -7 -10  110.39    5.40
  -9  -7  10  128.89    5.90
   9   7 -10  120.39    6.90
  -9   7  10  116.49    4.10
  -9   7  10  119.69    6.70
  -7  -7  10  373.96   13.80
   7  -7 -10  387.86   13.30
  -7   7  10  382.66   14.60
   7   7 -10  373.76   15.10
  -7   7  10  392.26   12.30
   5  -7 -10  137.79    5.80
  -5  -7  10  137.59    6.80
   5  -7 -10  141.69    6.20
  -5   7  10  144.59    5.80
   5   7 -10  145.19    7.70
  -5   7  10  148.39    7.20
  -3  -7  10  219.78    9.60
   3  -7 -10  205.88    8.10
   3  -7 -10  206.18    8.60
  -3   7  10  224.58    8.50
  -3   7  10  237.68    9.40
   3   7 -10  215.18   10.10
  -1  -7  10  301.87   12.50
   1  -7 -10  304.87   11.40
   1  -7 -10  292.27   10.80
  -1   7  10  290.07   11.20
   1   7 -10  282.87   12.50
  -1   7  10  314.17   11.50
   1   7 -10  314.87    9.50
  -1  -7 -10  117.09    5.90
   1  -7  10  116.39    6.80
  -1  -7 -10  113.49    5.50
  -1   7 -10  117.99    6.80
   1   7  10  109.59    5.90
  -1   7 -10  115.49    4.60
   1   7  10  115.79    5.60
   3  -7  10    7.50    2.40
   3  -7  10    4.80    2.10
  -3  -7 -10    4.90    1.50
  -3  -7 -10    8.40    1.70
  -3   7 -10    7.60    1.30
  -3   7 -10    6.40    2.10
   3   7  10    6.00    1.80
   5  -7  10  167.18    9.60
   5  -7  10  161.68    9.20
  -5  -7 -10  170.28    7.60
  -5   7 -10  172.58    7.10
   5   7  10  157.18    8.10
  -5   7 -10  167.28    8.50
  -7  -7 -10   87.89    5.30
   7  -7  10   90.69    6.80
   7  -7  10   79.89    6.70
   7   7  10   95.29    6.00
  -7   7 -10   86.09    5.80
   9  -7  10   60.49    6.10
   9  -7  10   69.49    6.60
  -9  -7 -10   76.79    5.10
   9   7  10   78.29    5.70
 -24  -8  10   57.59    5.40
 -24  -8  10   49.00    3.90
  24  -8 -10   50.29    5.10
 -24   8  10   44.80    5.70
  24   8 -10   51.79    5.30
 -22  -8  10   52.09    3.90
  22  -8 -10   54.59    5.00
  22   8 -10   55.99    5.40
 -22   8  10   59.09    6.00
 -20  -8  10   61.59    4.10
  20  -8 -10   68.69    5.00
 -20   8  10   62.69    6.10
  20   8 -10   75.79    5.90
 -18  -8  10  256.47   10.00
  18  -8 -10  248.88   10.80
  18   8 -10  255.67   12.10
 -18   8  10  262.67   12.50
 -16  -8  10   65.09    4.00
  16  -8 -10   61.79    4.30
  16   8 -10   66.49    5.40
 -16   8  10   69.79    5.60
 -14  -8  10  162.58    7.10
  14  -8 -10  161.38    7.30
 -14   8  10  156.08    8.70
  14   8 -10  173.48    9.00
 -12  -8  10   34.90    2.80
  12  -8 -10   37.00    3.00
 -12   8  10   31.40    3.80
  12   8 -10   32.80    4.00
 -10  -8  10   17.40    2.20
  10  -8 -10   21.30    2.30
 -10   8  10   17.40    3.00
  10   8 -10   21.70    3.30
   8  -8 -10  175.18    7.30
  -8  -8  10  173.68    7.70
   8   8 -10  176.38    9.00
  -8   8  10  173.58    5.90
  -8   8  10  176.28    8.60
  -6  -8  10   11.60    2.10
   6  -8 -10   11.80    1.60
   6  -8 -10   11.10    1.70
   6   8 -10   10.00    2.40
  -6   8  10   16.30    2.70
  -6   8  10   15.20    1.50
   4  -8 -10  231.48    9.10
  -4  -8  10  232.78   10.00
   4  -8 -10  225.78    8.70
  -4   8  10  244.98    8.70
   4   8 -10  224.08   10.70
  -4   8  10  235.28   10.00
   2  -8 -10   49.80    3.50
  -2  -8  10   55.59    4.40
   2  -8 -10   56.19    3.40
  -2   8  10   59.39    3.70
   2   8 -10   52.49    4.70
  -2   8  10   59.39    4.10
   0  -8 -10    4.70    1.30
   0  -8  10    0.50    1.50
   0  -8 -10    3.60    1.30
   0   8  10    4.10    1.50
   0   8  10    6.40    1.70
   0   8 -10    5.60    2.10
  -2  -8 -10   48.20    3.70
   2  -8  10   55.59    4.80
   2  -8  10   43.70    4.60
  -2  -8 -10   52.49    3.50
  -2   8 -10   45.00    4.40
   2   8  10   46.50    3.80
   4  -8  10   17.10    3.40
  -4  -8 -10   15.80    2.20
  -4  -8 -10   17.30    2.60
   4  -8  10   17.30    3.40
  -4   8 -10   13.20    2.80
   4   8  10   15.20    2.60
   6  -8  10   54.29    5.50
  -6  -8 -10   56.89    4.20
   6  -8  10   62.99    5.70
  -6  -8 -10   40.60    3.60
  -6   8 -10   53.69    4.70
   6   8  10   57.09    4.70
   8  -8  10    9.00    2.90
  -8  -8 -10   11.20    2.20
   8  -8  10    9.50    2.90
   8   8  10    8.70    2.40
  -8   8 -10    8.40    2.40
 -23  -9  10   12.90    2.40
  23  -9 -10    8.70    2.70
 -23   9  10   12.80    3.60
  23   9 -10   17.20    3.60
 -21  -9  10   34.10    3.30
  21  -9 -10   43.70    4.50
  21   9 -10   37.80    4.70
 -21   9  10   31.10    4.80
  19  -9 -10   18.30    3.00
 -19  -9  10   12.90    2.10
  19   9 -10   10.90    3.00
 -19   9  10   12.40    3.20
  17  -9 -10   27.40    3.20
 -17  -9  10   39.90    3.20
  17   9 -10   40.10    4.60
 -17   9  10   35.10    4.60
 -15  -9  10   11.70    1.90
  15  -9 -10   19.10    2.60
  15   9 -10   10.00    2.70
 -15   9  10   14.70    3.30
  13  -9 -10   16.90    2.30
 -13  -9  10   13.00    2.10
 -13   9  10   14.40    3.10
  13   9 -10   12.50    2.80
  11  -9 -10   51.39    3.50
 -11  -9  10   46.20    3.50
  11   9 -10   42.50    4.50
 -11   9  10   58.19    4.80
   9  -9 -10    5.40    1.40
  -9  -9  10    3.10    1.30
  -9   9  10    3.70    1.90
   9   9 -10    3.10    1.90
  -7  -9  10    5.40    1.70
   7  -9 -10    6.50    1.40
  -7   9  10    6.20    0.90
  -7   9  10    9.20    2.40
   7   9 -10    7.30    2.30
   5  -9 -10   16.00    1.80
   5  -9 -10   14.50    2.00
  -5  -9  10   16.10    2.60
   5   9 -10   18.30    3.30
  -5   9  10   13.90    2.60
  -5   9  10   19.90    1.80
   3  -9 -10   23.80    2.20
  -3  -9  10   17.10    2.80
   3  -9 -10   23.10    2.50
   3   9 -10   27.60    3.70
  -3   9  10   29.50    2.40
  -3   9  10   21.20    2.90
  -1  -9  10    7.90    2.30
   1  -9 -10    5.20    1.50
   1  -9 -10    5.50    1.30
   1   9 -10    5.90    2.20
  -1   9  10    7.40    1.90
  -1   9  10    6.50    1.60
  -1  -9 -10   -0.80    0.70
  -1  -9 -10   -0.80    0.70
   1  -9  10    1.60    1.60
   1  -9  10   -1.70    1.10
   1   9  10   -1.60    1.00
  -1   9 -10   -1.50    1.30
  -3  -9 -10   15.30    2.20
   3  -9  10   18.30    3.40
  -3  -9 -10   12.80    2.30
   3  -9  10   17.40    3.30
  -3   9 -10   23.90    3.50
   3   9  10   21.40    2.80
  -5  -9 -10   -1.40    0.80
  -5  -9 -10    0.00    0.90
   5  -9  10   -2.10    1.40
   5  -9  10    2.30    2.10
   5   9  10    0.20    1.30
  -5   9 -10    0.10    1.50
  -7  -9 -10    1.60    1.30
   7  -9  10    0.20    1.80
   7  -9  10    0.30    1.80
  -7  -9 -10    0.80    1.20
  -7   9 -10    2.80    2.10
   7   9  10    0.60    1.50
 -22 -10  10   13.20    2.40
  22 -10 -10   10.40    2.80
  22  10 -10   17.30    3.70
 -22  10  10    9.20    3.30
  20 -10 -10    1.30    1.60
 -20 -10  10   -0.40    1.10
 -20  10  10   -0.30    2.10
  20  10 -10   -1.40    1.90
  18 -10 -10    4.70    2.00
 -18 -10  10    5.10    1.60
  18  10 -10    8.10    2.70
 -18  10  10    2.60    2.30
 -16 -10  10    0.70    1.20
  16 -10 -10   -0.60    1.20
 -16  10  10   -1.10    1.60
  16  10 -10    1.40    1.70
 -14 -10  10   10.40    2.00
  14 -10 -10    8.60    1.90
  14  10 -10    7.70    2.40
 -14  10  10    7.20    2.50
  12 -10 -10    1.00    1.00
 -12 -10  10    1.10    1.20
  12  10 -10   -1.10    1.40
 -12  10  10   -0.90    1.50
 -10 -10  10   14.80    2.30
  10 -10 -10   12.70    2.00
  10  10 -10   20.60    3.60
 -10  10  10   11.40    2.70
  -8 -10  10   90.39    5.20
   8 -10 -10   81.89    4.70
  -8  10  10   86.49    6.00
   8  10 -10   84.09    6.20
  -6 -10  10    7.10    2.00
   6 -10 -10    4.10    1.30
  -6  10  10    7.10    1.10
   6  10 -10    6.90    2.40
  -6  10  10    7.60    2.20
   4 -10 -10   84.59    4.40
   4 -10 -10   84.79    4.80
  -4 -10  10   72.99    5.20
  -4  10  10   92.19    4.20
  -4  10  10   90.69    5.70
   4  10 -10   79.59    6.10
  -2 -10  10    4.20    1.80
   2 -10 -10    4.30    1.20
   2 -10 -10    3.20    1.30
   2  10 -10    2.30    1.80
  -2  10  10    5.70    1.40
  -2  10  10    3.70    1.70
   0 -10 -10    5.40    1.60
   0 -10 -10    3.40    1.20
   0 -10  10    5.40    2.20
   0  10 -10    4.70    2.10
   0  10  10    3.20    1.40
   0  10  10    3.40    1.60
   2 -10  10    2.30    1.80
  -2 -10 -10    3.60    1.30
  -2 -10 -10    1.00    1.20
   2 -10  10    5.10    2.20
   2  10  10    0.20    1.10
  -2  10 -10    0.20    1.70
  -4 -10 -10   -0.30    0.90
   4 -10  10   -1.10    1.70
   4 -10  10   -0.80    1.50
  -4 -10 -10    1.50    1.20
   4  10  10   -0.40    1.20
   6 -10  10    0.30    2.20
   6 -10  10    1.30    1.90
  -6 -10 -10    0.50    1.30
  -6 -10 -10   -0.60    1.10
   6  10  10    0.10    1.30
  19 -11 -10   36.60    4.20
 -19 -11  10   35.80    3.50
 -19  11  10   41.20    5.40
  19  11 -10   44.20    5.20
 -17 -11  10   18.00    2.60
  17 -11 -10   17.50    3.00
 -17  11  10   16.50    3.70
  17  11 -10   21.50    3.90
  15 -11 -10   25.00    3.10
 -15 -11  10   29.80    3.00
  15  11 -10   24.80    4.10
 -15  11  10   26.30    4.30
  13 -11 -10   91.69    5.30
 -13 -11  10   88.19    5.20
  13  11 -10   88.19    6.70
 -13  11  10   85.19    6.50
  11 -11 -10    9.20    1.90
 -11 -11  10   12.20    2.30
 -11  11  10    9.30    2.70
  11  11 -10    7.90    2.60
   9 -11 -10   26.60    2.80
  -9 -11  10   31.30    3.20
  -9  11  10   41.30    4.40
   9  11 -10   37.70    4.70
   7 -11 -10   83.49    4.80
  -7 -11  10   85.19    5.40
  -7  11  10   96.89    6.30
   7  11 -10   73.79    6.10
   5 -11 -10   63.69    4.00
  -5 -11  10   60.59    4.70
  -5  11  10   61.09    4.90
  -5  11  10   59.89    3.10
   5  11 -10   64.79    5.80
  -3 -11  10   84.19    5.70
   3 -11 -10   92.49    5.10
  -3  11  10   89.59    4.40
  -3  11  10   92.19    5.90
   3  11 -10   86.59    6.60
   1 -11 -10   53.89    3.90
  -1 -11  10   53.89    4.70
   1 -11 -10   56.19    3.70
  -1  11  10   61.89    4.50
   1  11 -10   56.69    5.50
  -1  11  10   58.49    3.70
   1 -11  10   28.30    4.00
  -1 -11 -10   35.30    3.40
  -1 -11 -10   27.60    2.70
   1  11  10   26.00    2.80
  -3 -11 -10    0.00    1.00
  -3 -11 -10    2.20    1.40
   3 -11  10    2.00    2.00
   3 -11  10    1.50    1.80
   3  11  10   -0.30    1.20
  -5 -11 -10   36.10    3.80
  -5 -11 -10   33.80    3.20
   5 -11  10   37.10    4.90
   5 -11  10   29.60    4.70
   5  11  10   30.30    3.50
 -18 -12  10   90.69    5.60
  18 -12 -10   88.89    6.10
 -18  12  10   85.39    7.20
  18  12 -10   90.59    7.20
 -16 -12  10  184.48    8.40
  16 -12 -10  175.08    8.70
  16  12 -10  169.88   10.10
 -16  12  10  165.68   10.10
 -14 -12  10   49.70    3.90
  14 -12 -10   51.69    4.10
 -14  12  10   56.29    5.70
  14  12 -10   44.50    5.10
 -12 -12  10   48.10    3.90
  12  12 -10   57.39    5.70
 -12  12  10   50.79    5.40
 -10 -12  10  106.99    6.10
  10  12 -10  109.69    7.60
 -10  12  10  108.09    7.20
  -8 -12  10   14.10    2.60
   8 -12 -10   20.00    2.50
  -8  12  10   16.80    3.20
   8  12 -10   19.00    3.70
  -6 -12  10  172.88    8.50
   6 -12 -10  178.48    7.80
  -6  12  10  168.28    9.00
   6  12 -10  158.08    9.60
   4 -12 -10   34.40    3.20
  -4 -12  10   37.10    4.00
   4 -12 -10   37.40    3.00
   4  12 -10   44.70    5.20
  -4  12  10   47.00    4.50
   2 -12 -10   78.19    4.80
  -2 -12  10   72.89    5.60
  -2  12  10   83.19    5.60
   2  12 -10   76.49    6.40
  -2  12  10   84.39    4.30
   0 -12  10   48.80    4.90
   0 -12 -10   46.60    3.50
   0 -12 -10   56.79    4.10
   0  12  10   52.79    3.70
  -2 -12 -10    7.00    1.80
   2 -12  10    9.40    2.90
  -2 -12 -10   10.40    2.20
   2 -12  10    7.40    2.70
   2  12  10   10.10    2.10
  -4 -12 -10   61.69    4.10
   4 -12  10   55.19    5.70
  -4 -12 -10   53.59    4.40
   4 -12  10   53.69    5.90
   4  12  10   49.50    4.20
  17 -13 -10   87.29    6.00
  17  13 -10   91.49    7.40
 -17  13  10   97.49    7.60
  15 -13 -10   89.49    5.80
 -15 -13  10   99.19    6.00
 -15  13  10   93.19    7.30
  15  13 -10  102.59    7.60
  13 -13 -10   76.09    5.20
 -13  13  10   80.59    6.50
  13  13 -10   90.79    7.00
  11 -13 -10  113.89    6.40
 -11 -13  10  108.59    6.40
 -11  13  10  122.99    8.00
  11  13 -10  132.19    8.50
   9 -13 -10   93.49    5.40
  -9 -13  10   92.89    5.80
   9  13 -10  102.29    7.50
  -9  13  10   94.29    6.90
  -7 -13  10    3.60    1.80
   7 -13 -10    5.40    1.70
   7  13 -10    5.70    2.60
  -7  13  10    7.90    2.40
  -5 -13  10   92.79    6.20
   5 -13 -10   97.09    5.40
   5  13 -10   96.29    7.30
  -5  13  10   91.19    6.40
   3 -13 -10   85.19    5.20
  -3 -13  10   86.79    6.20
   3  13 -10  102.09    7.50
  -3  13  10   99.59    6.40
  -1 -13  10   40.80    4.60
   1 -13 -10   33.10    3.00
   1 -13 -10   33.60    3.30
  -1  13  10   38.90    3.00
  -1 -13 -10   32.90    3.00
  -1 -13 -10   27.60    3.20
   1 -13  10   31.60    4.40
   1  13  10   34.80    3.10
 -14 -14  10   56.79    4.50
  14 -14 -10   48.80    4.40
 -14  14  10   68.49    6.70
  14  14 -10   69.99    6.60
  12  14 -10  119.19    8.60
 -12  14  10  125.79    8.60
 -10 -14  10   83.09    5.60
 -10  14  10   81.09    6.60
  10  14 -10   83.09    7.30
   8 -14 -10   17.10    2.60
  -8 -14  10   19.60    3.10
   8  14 -10   23.60    4.40
  -8  14  10   21.30    3.90
  -6 -14  10   32.00    3.80
   6 -14 -10   33.50    3.30
   6  14 -10   26.00    4.60
  -6  14  10   29.00    4.20
   4 -14 -10   24.40    2.90
  -4 -14  10   26.60    3.80
  -4  14  10   27.50    4.00
  -4  14  10   24.00    4.20
   4  14 -10   36.30    5.30
   2 -14 -10   23.90    2.60
   2 -14 -10   25.60    3.00
  -2 -14  10   32.10    4.10
   2  14 -10   27.80    4.80
  26   0 -11    0.30    1.70
 -26   0  11    0.90    1.80
 -26   0  11   -0.70    1.70
 -24   0  11    1.60    1.90
  24   0 -11   -0.20    1.50
 -22   0  11   -0.10    1.40
 -22   0  11    1.50    0.80
  22   0 -11    0.10    1.30
 -20   0  11    1.00    0.70
 -20   0  11    1.10    1.50
  20   0 -11   -1.10    1.10
  18   0 -11   -1.40    0.90
 -18   0  11   -1.00    1.30
 -18   0  11    0.00    0.70
 -16   0  11    0.40    0.70
 -16   0  11    0.50    1.30
  16   0 -11    0.00    0.80
 -14   0  11    0.40    0.70
  14   0 -11    1.40    0.80
 -14   0  11    0.70    1.20
 -12   0  11    0.70    1.00
  12   0 -11    0.20    0.60
 -12   0  11   -0.20    0.70
  10   0 -11    0.00    0.50
  10   0 -11   -1.40    0.80
 -10   0  11   -0.80    0.70
 -10   0  11   -0.40    0.90
   8   0 -11    0.00    0.50
   8   0 -11   -0.90    0.90
  -8   0  11   -0.30    0.80
  -8   0  11   -0.10    0.90
  -8   0  11    0.60    0.90
   6   0 -11    0.40    1.00
  -6   0  11    0.40    1.00
   6   0 -11   -0.10    0.40
   6   0 -11   -0.30    0.40
  -6   0  11   -0.50    0.80
  -4   0  11   -0.10    0.80
   4   0 -11   -0.30    0.40
  -4   0  11    0.90    1.10
   4   0 -11    0.90    1.00
   4   0 -11   -0.30    0.40
  -2   0  11    0.50    1.20
   2   0 -11   -0.30    0.90
   2   0 -11    0.00    0.60
   2   0 -11    0.30    0.60
  -2   0  11    1.20    1.20
   0   0  11    1.70    1.40
   0   0 -11    0.20    0.60
   0   0  11    1.00    1.40
   0   0 -11    0.60    0.90
   2   0  11    3.40    1.70
  -2   0 -11    0.10    0.90
   2   0  11    2.60    1.60
  -2   0 -11    0.00    0.70
  -4   0 -11    0.30    0.90
   4   0  11    0.70    1.60
  -4   0 -11    0.00    0.80
   6   0  11   -0.50    1.40
  -6   0 -11   -0.40    1.00
   8   0  11    0.20    1.80
  -8   0 -11   -0.90    0.90
 -10   0 -11   -0.20    1.20
  10   0  11    1.40    1.90
 -27  -1  11    1.90    2.00
 -27  -1  11    4.00    2.20
  27  -1 -11   -0.40    1.90
 -27   1  11   -0.20    1.90
 -27   1  11    2.50    2.30
 -25  -1  11   24.40    3.50
  25  -1 -11   30.80    3.90
 -25  -1  11   21.80    3.80
 -25   1  11   27.40    4.10
  25   1 -11   20.80    3.40
  23  -1 -11   11.30    2.50
 -23  -1  11   11.70    1.50
 -23  -1  11    6.50    2.30
  23   1 -11    9.50    2.40
 -23   1  11   13.30    3.00
 -21  -1  11   -0.20    1.40
  21  -1 -11    3.00    1.50
 -21  -1  11    3.80    1.00
  21   1 -11   -0.60    1.20
 -21   1  11    3.40    0.90
 -21   1  11    0.60    1.60
 -19  -1  11    5.30    1.10
  19  -1 -11    6.40    1.70
 -19  -1  11    4.10    2.00
 -19   1  11    8.40    2.40
 -19   1  11    4.50    1.00
  19   1 -11    3.60    1.60
  17  -1 -11  156.68    6.80
 -17  -1  11  152.48    8.20
 -17  -1  11  157.38    5.90
 -17   1  11  145.39    8.10
 -17   1  11  149.99    5.60
  17   1 -11  143.19    6.50
 -15  -1  11   75.59    3.70
 -15  -1  11   73.59    5.30
  15  -1 -11   81.79    4.20
 -15   1  11   76.39    5.30
 -15   1  11   80.79    3.60
  15   1 -11   76.19    4.00
  13  -1 -11   40.80    2.60
 -13  -1  11   34.70    3.70
 -13  -1  11   36.80    2.50
 -13   1  11   38.90    2.40
 -13   1  11   30.50    3.50
  13   1 -11   41.00    3.90
  13   1 -11   42.10    2.50
  11  -1 -11  199.18    7.40
 -11  -1  11  204.78    7.70
 -11   1  11  200.08    9.10
  11   1 -11  191.18    7.00
  11   1 -11  191.28    9.10
 -11   1  11  205.98    7.50
   9  -1 -11   72.79    3.40
  -9  -1  11   63.99    3.80
  -9   1  11   67.29    3.90
  -9   1  11   63.09    4.50
   9   1 -11   59.29    4.40
  -9   1  11   69.89    3.80
   9   1 -11   72.19    3.10
   7  -1 -11  145.49    5.60
   7  -1 -11  139.89    5.40
  -7  -1  11  131.89    6.40
  -7   1  11  143.29    6.60
  -7   1  11  157.08    7.30
   7   1 -11  148.69    7.20
   7   1 -11  146.29    5.40
  -7   1  11  152.48    6.60
   5  -1 -11    1.90    0.70
  -5  -1  11   -0.60    0.90
  -5  -1  11    0.40    1.00
   5  -1 -11    1.20    0.60
  -5   1  11    0.60    0.90
   5   1 -11    0.40    0.50
   5   1 -11    0.10    0.90
  -5   1  11   -0.80    0.80
   5   1 -11    0.30    0.40
  -5   1  11    0.90    1.00
   3  -1 -11    8.40    1.20
  -3  -1  11    6.80    2.00
   3  -1 -11    9.70    1.40
  -3  -1  11    7.60    2.00
   3   1 -11    9.00    1.90
   3   1 -11    7.60    1.20
  -3   1  11    9.10    2.00
  -3   1  11    7.60    2.00
   3   1 -11    8.90    1.10
  -3   1  11   11.50    1.90
   1  -1 -11    1.20    0.80
   1  -1 -11    0.10    0.70
  -1  -1  11   -0.10    1.00
  -1  -1  11    2.90    1.50
   1   1 -11    2.00    0.80
   1   1 -11    1.20    0.80
   1   1 -11    0.80    1.00
  -1   1  11    1.10    1.00
  -1   1  11    0.70    1.10
  -1   1  11    1.80    1.40
  -1  -1 -11    1.60    0.90
   1  -1  11    0.50    1.40
   1  -1  11    4.80    1.90
   1   1  11    6.20    2.10
  -1   1 -11    1.90    0.90
  -1   1 -11    1.50    1.10
   1   1  11    1.00    1.00
  -3  -1 -11   11.80    1.80
   3  -1  11    8.40    2.30
   3  -1  11   13.70    2.90
  -3   1 -11   13.00    1.80
   3   1  11   13.80    2.90
   3   1  11   16.40    1.90
  -3   1 -11   16.70    2.10
  -5  -1 -11    0.70    1.00
   5  -1  11    3.60    2.10
  -5   1 -11    3.30    1.30
  -5   1 -11    2.00    1.20
   5   1  11    2.20    1.80
   7  -1  11   50.19    5.30
  -7  -1 -11   45.00    3.70
   7   1  11   44.90    5.10
  -7   1 -11   46.10    3.70
   9  -1  11   15.20    3.60
  -9  -1 -11   17.20    2.60
  -9   1 -11   15.00    2.50
   9   1  11   20.50    3.90
  11  -1  11    1.40    2.30
 -11  -1 -11    6.30    2.10
  11   1  11    7.90    3.20
 -11   1 -11    9.60    2.30
 -26  -2  11   74.49    4.10
 -26  -2  11   67.49    5.80
  26  -2 -11   81.69    6.10
 -26  -2  11   70.79    5.40
 -26   2  11   73.69    6.20
 -24  -2  11    6.20    2.30
 -24  -2  11   10.30    2.40
  24  -2 -11   10.70    2.60
  24   2 -11    9.40    2.40
 -24   2  11    6.80    2.50
 -22  -2  11   40.90    2.70
  22  -2 -11   42.70    3.90
 -22  -2  11   39.50    4.50
 -22   2  11   33.20    4.40
  22   2 -11   38.10    3.70
 -20  -2  11   94.29    4.40
 -20  -2  11   91.09    6.30
  20  -2 -11   91.19    5.40
  20   2 -11   93.59    5.30
 -20   2  11   93.79    6.50
 -20   2  11   93.79    3.80
 -18  -2  11   26.20    3.60
 -18  -2  11   23.60    2.00
  18  -2 -11   22.20    2.50
 -18   2  11   23.90    3.50
 -18   2  11   23.00    1.60
  18   2 -11   20.70    2.40
 -16  -2  11   75.29    3.80
 -16  -2  11   82.39    5.70
  16  -2 -11   78.19    4.30
  16   2 -11   85.09    4.20
 -16   2  11   77.09    5.50
  16   2 -11   84.59    5.60
 -16   2  11   77.49    3.40
 -14  -2  11    7.60    1.30
  14  -2 -11    5.90    1.30
  14   2 -11    7.30    1.30
 -14   2  11    8.10    1.10
 -14   2  11    5.70    0.80
  14   2 -11    7.40    2.10
 -14   2  11    7.70    2.20
 -12  -2  11   32.90    2.50
  12  -2 -11   39.20    2.00
  12   2 -11   31.30    3.60
 -12   2  11   33.70    3.60
 -12   2  11   34.20    2.30
  12   2 -11   35.20    2.20
 -10  -2  11   44.90    2.90
  10  -2 -11   39.00    2.50
 -10   2  11   46.20    3.00
 -10   2  11   47.20    3.80
  10   2 -11   40.50    3.80
 -10   2  11   41.50    2.70
   8  -2 -11  196.48    7.10
  -8  -2  11  191.08    7.80
   8   2 -11  188.48    8.70
  -8   2  11  191.98    8.60
  -8   2  11  163.78    7.30
  -8   2  11  192.38    7.80
   8   2 -11  188.48    6.50
   6  -2 -11    8.60    1.30
   6  -2 -11   10.70    1.20
  -6  -2  11   12.20    2.00
  -6   2  11    9.20    1.80
   6   2 -11   10.60    2.10
   6   2 -11   10.70    1.10
   6   2 -11   11.60    1.00
  -6   2  11   11.70    1.90
  -6   2  11   11.00    2.00
   4  -2 -11   27.40    2.10
  -4  -2  11   27.70    2.90
   4  -2 -11   27.60    1.90
  -4  -2  11   22.70    2.90
  -4   2  11   29.30    2.80
   4   2 -11   23.30    1.60
   4   2 -11   24.20    2.90
  -4   2  11   22.50    2.70
   4   2 -11   25.00    1.80
  -4   2  11   24.10    2.70
   2  -2 -11    6.20    1.20
  -2  -2  11    7.60    2.00
   2  -2 -11    9.60    1.50
  -2  -2  11    4.00    1.70
   2   2 -11    6.30    1.70
  -2   2  11    7.00    1.90
  -2   2  11    6.80    1.60
   2   2 -11    6.60    1.00
  -2   2  11    6.80    1.80
   2   2 -11    5.80    1.10
   0  -2  11   42.80    4.00
   0  -2 -11   39.40    2.90
   0  -2  11   38.10    4.00
   0  -2 -11   37.10    2.70
   0   2 -11   36.70    3.30
   0   2  11   37.50    2.90
   0   2 -11   35.00    2.40
   0   2  11   41.00    4.00
   2  -2  11   96.79    6.40
  -2  -2 -11   88.69    4.80
   2  -2  11   88.89    6.40
  -2   2 -11  100.79    5.40
   2   2  11   94.89    4.70
  -2   2 -11   99.29    4.70
   2   2  11  100.49    6.60
   4  -2  11   24.70    3.80
   4  -2  11   30.10    4.00
  -4  -2 -11   26.70    2.70
  -4   2 -11   38.00    3.10
   4   2  11   33.00    4.10
  -4   2 -11   34.50    2.80
   6  -2  11    5.90    2.40
  -6  -2 -11    9.50    1.90
   6   2  11    7.30    2.60
  -6   2 -11    7.70    1.70
  -8  -2 -11   34.00    3.30
   8  -2  11   36.00    4.80
   8   2  11   28.40    4.40
  -8   2 -11   37.80    3.40
 -10  -2 -11   56.59    4.40
  10  -2  11   47.60    5.60
  10   2  11   51.89    5.80
 -10   2 -11   41.30    3.90
 -25  -3  11   51.89    4.50
 -25  -3  11   44.40    4.80
 -25  -3  11   47.70    3.30
  25  -3 -11   50.39    4.90
 -25   3  11   44.20    5.20
  23  -3 -11   40.70    4.10
 -23  -3  11   35.80    2.70
 -23  -3  11   43.30    4.60
 -23  -3  11   39.40    3.70
 -23   3  11   40.10    4.80
 -21  -3  11   33.80    4.20
 -21  -3  11   38.00    2.60
 -21  -3  11   33.90    3.30
  21  -3 -11   31.20    3.40
  21   3 -11   30.50    3.20
 -21   3  11   23.60    3.80
 -19  -3  11   34.20    2.50
  19  -3 -11   40.20    3.40
 -19  -3  11   32.90    4.00
  19   3 -11   35.80    3.10
 -19   3  11   30.30    4.10
 -17  -3  11   69.59    3.50
 -17  -3  11   64.69    5.10
  17  -3 -11   65.09    4.10
  17   3 -11   55.39    5.00
  17   3 -11   67.99    3.90
 -17   3  11   62.99    5.10
 -17   3  11   62.89    2.80
 -15  -3  11   36.30    2.50
  15  -3 -11   36.40    2.70
 -15   3  11   25.20    3.50
  15   3 -11   41.50    4.10
 -15   3  11   35.70    1.80
  15   3 -11   34.30    2.50
 -15   3  11   37.00    2.10
  13  -3 -11   84.39    4.20
  13  -3 -11   87.59    3.20
 -13  -3  11   83.89    4.20
 -13   3  11   85.99    5.60
 -13   3  11   82.59    3.60
  13   3 -11   83.19    5.50
  13   3 -11   82.69    3.80
 -13   3  11   79.09    3.70
  11  -3 -11  155.18    6.60
  11  -3 -11  185.48    5.90
 -11  -3  11  167.98    6.90
 -11   3  11  182.68    8.50
  11   3 -11  166.58    6.00
 -11   3  11  175.38    6.60
  11   3 -11  164.18    8.30
 -11   3  11  151.38    6.30
  -9  -3  11  251.97    8.20
  -9  -3  11  258.77    9.60
   9  -3 -11  249.78    9.00
  -9   3  11  237.78    9.10
  -9   3  11  257.77    9.40
  -9   3  11  247.78   10.60
   9   3 -11  247.68   10.80
  -7  -3  11  196.78    8.00
   7  -3 -11  184.58    6.80
   7  -3 -11  187.38    7.10
  -7  -3  11  184.48    6.60
  -7   3  11  184.18    7.80
   7   3 -11  186.18    6.30
   7   3 -11  190.98    8.80
  -7   3  11  183.68    7.60
  -7   3  11  188.28    8.50
   5  -3 -11   89.99    4.10
  -5  -3  11   93.69    5.30
   5  -3 -11   91.39    4.40
  -5   3  11   97.09    5.20
  -5   3  11   90.99    5.20
   5   3 -11   93.89    3.50
   5   3 -11   93.29    5.50
   5   3 -11   95.69    3.70
  -5   3  11   87.89    5.10
   3  -3 -11   12.60    1.70
  -3  -3  11   12.20    2.40
  -3  -3  11   16.20    2.50
   3  -3 -11   14.50    1.50
  -3   3  11   14.70    2.10
   3   3 -11   13.80    1.20
  -3   3  11   14.60    2.40
   3   3 -11   15.90    2.50
   3   3 -11   17.00    1.40
  -1  -3  11   30.30    3.40
   1  -3 -11   27.20    2.50
  -1  -3  11   22.80    3.20
   1  -3 -11   26.40    2.20
   1   3 -11   31.00    3.10
  -1   3  11   29.30    2.60
   1   3 -11   25.80    1.90
  -1   3  11   24.20    3.10
  -1  -3 -11   70.39    4.10
  -1  -3 -11   63.79    3.70
   1  -3  11   58.99    4.90
   1  -3  11   71.59    5.40
  -1   3 -11   67.49    4.40
  -1   3 -11   69.09    3.60
   1   3  11   69.69    5.30
   1   3  11   61.99    3.80
   3  -3  11   37.00    4.20
  -3  -3 -11   38.00    3.00
   3  -3  11   34.90    4.20
  -3   3 -11   34.20    2.70
  -3   3 -11   33.60    3.20
   3   3  11   39.30    4.20
   5  -3  11   41.60    4.80
   5  -3  11   47.70    5.00
  -5  -3 -11   38.10    3.30
   5   3  11   37.60    4.50
  -5   3 -11   40.70    3.20
  -5   3 -11   43.30    3.60
   7  -3  11   49.70    5.40
  -7  -3 -11   52.59    4.00
   7   3  11   56.09    5.60
  -7   3 -11   47.40    3.70
  -9  -3 -11   62.49    4.60
   9  -3  11   77.89    6.70
  -9   3 -11   58.79    4.40
  26  -4 -11   20.20    3.60
 -26  -4  11   20.40    3.70
 -26  -4  11   20.00    3.20
 -26  -4  11   23.90    2.50
 -26   4  11   19.30    3.80
 -24  -4  11   51.49    5.20
  24  -4 -11   53.99    4.90
 -24  -4  11   54.09    3.50
 -24  -4  11   46.90    4.20
 -24   4  11   50.19    5.40
 -22  -4  11   22.90    2.80
 -22  -4  11   20.70    3.50
 -22  -4  11   20.40    2.20
  22  -4 -11   25.90    3.30
 -22   4  11   26.10    4.10
 -20  -4  11   33.70    4.10
 -20  -4  11   36.00    3.10
  20  -4 -11   31.70    3.40
 -20  -4  11   35.80    2.60
 -20   4  11   31.70    4.20
  20   4 -11   31.10    4.00
  18  -4 -11   75.99    4.80
 -18  -4  11   84.79    4.20
 -18   4  11   75.99    5.90
  18   4 -11   86.59    4.60
  18   4 -11   86.59    6.00
 -16  -4  11   70.49    3.70
  16  -4 -11   68.09    4.10
  16   4 -11   68.99    5.30
  16   4 -11   59.39    3.50
 -16   4  11   67.59    5.30
  14  -4 -11  105.99    5.10
 -14  -4  11  106.39    5.00
 -14   4  11  104.89    3.90
  14   4 -11  114.59    6.70
 -14   4  11  107.79    6.60
  14   4 -11  111.39    4.70
 -12  -4  11   44.90    3.00
 -12  -4  11   48.60    2.20
 -12  -4  11   47.10    2.30
  12  -4 -11   41.30    2.90
 -12   4  11   43.60    2.50
  12   4 -11   47.00    2.40
  12   4 -11   44.70    4.20
 -12   4  11   42.10    4.10
 -12   4  11   46.70    2.50
  10  -4 -11  164.78    6.70
 -10  -4  11  164.78    7.10
 -10  -4  11  167.18    5.70
  10  -4 -11  175.48    5.90
  10   4 -11  163.78    8.40
  10   4 -11  175.18    5.90
 -10   4  11  170.48    6.60
 -10   4  11  171.68    8.40
  -8  -4  11  100.69    5.20
  -8  -4  11  102.09    3.90
   8  -4 -11   93.99    4.60
   8   4 -11  102.49    6.10
  -8   4  11  105.79    5.00
  -8   4  11  101.69    5.90
  -6  -4  11   71.29    4.40
   6  -4 -11   75.69    3.50
   6  -4 -11   68.99    3.70
  -6  -4  11   70.79    3.20
  -6   4  11   73.19    4.30
   6   4 -11   69.29    4.90
  -6   4  11   70.99    4.60
   6   4 -11   66.99    2.80
   4  -4 -11   54.39    3.30
   4  -4 -11   55.19    3.10
  -4  -4  11   62.89    3.10
  -4  -4  11   53.59    4.00
   4   4 -11   58.29    2.60
  -4   4  11   56.59    3.90
  -4   4  11   49.90    3.90
   4   4 -11   57.69    2.40
   4   4 -11   56.69    4.30
   2  -4 -11   91.89    4.70
   2  -4 -11   89.09    4.40
  -2  -4  11   84.19    5.50
  -2  -4  11   87.79    5.80
   2   4 -11  101.69    4.00
  -2   4  11   90.19    5.00
   2   4 -11   96.69    3.80
  -2   4  11   88.79    5.60
   2   4 -11  100.49    5.80
   0  -4 -11   86.69    4.50
   0  -4 -11   87.89    4.80
   0  -4  11   89.19    6.10
   0  -4  11   97.59    6.10
   0   4 -11   93.89    5.60
   0   4  11   88.99    5.80
   0   4  11   90.09    4.70
   0   4 -11   87.79    4.00
  -2  -4 -11   50.79    3.40
   2  -4  11   47.40    4.70
  -2  -4 -11   52.19    3.70
   2  -4  11   53.89    4.90
  -2   4 -11   55.59    3.20
  -2   4 -11   56.79    4.20
   2   4  11   59.59    3.40
   2   4  11   51.49    4.60
  -4  -4 -11   16.70    2.20
   4  -4  11   21.60    3.50
   4  -4  11   14.60    3.20
  -4   4 -11   19.40    2.20
  -4   4 -11   14.20    2.50
   4   4  11   19.00    3.30
   6  -4  11   77.69    6.30
  -6  -4 -11   78.39    5.00
   6  -4  11   81.69    6.70
  -6   4 -11   93.09    5.00
   6   4  11   91.59    6.80
  -6   4 -11   84.99    5.20
   8  -4  11   23.70    4.10
  -8  -4 -11   32.30    3.30
  -8   4 -11   25.20    2.90
   8   4  11   28.10    3.80
  10  -4  11   14.70    3.70
 -10  -4 -11   22.20    3.00
 -10   4 -11   24.40    3.10
  10   4  11   19.10    3.50
 -25  -5  11   -1.80    1.60
 -25  -5  11   -0.80    1.00
  25  -5 -11    0.60    1.70
 -25  -5  11    1.80    1.70
 -25   5  11    0.00    2.00
 -23  -5  11   36.00    2.90
  23  -5 -11   40.50    4.30
 -23  -5  11   32.80    3.40
 -23  -5  11   37.60    4.50
 -23   5  11   42.10    5.00
 -21  -5  11   35.60    2.80
 -21  -5  11   30.80    3.00
 -21  -5  11   39.90    4.50
  21  -5 -11   30.00    3.50
  21   5 -11   31.80    4.20
 -21   5  11   36.90    4.70
 -19  -5  11   88.99    4.70
  19  -5 -11  106.99    5.90
 -19  -5  11  100.49    5.10
  19   5 -11  100.19    6.70
 -19   5  11   88.09    6.50
 -17  -5  11   29.10    2.40
 -17  -5  11   35.10    2.60
  17  -5 -11   33.20    3.10
  17   5 -11   30.60    3.90
 -17   5  11   33.40    4.20
  15  -5 -11  217.18    8.90
 -15  -5  11  219.28    8.50
 -15   5  11  222.18   10.60
  15   5 -11  229.98    8.20
  15   5 -11  221.88   10.60
 -13  -5  11   22.10    2.20
  13   5 -11   35.40    3.90
  13   5 -11   21.30    1.70
 -13   5  11   21.00    3.20
  11  -5 -11    0.20    0.60
 -11  -5  11    2.80    1.10
 -11  -5  11    2.00    0.50
 -11   5  11    0.70    1.30
  11   5 -11    0.90    0.60
 -11   5  11    0.80    0.80
  11   5 -11    0.40    1.20
   9  -5 -11    6.30    1.30
   9  -5 -11    6.60    0.90
  -9  -5  11    7.90    0.80
  -9  -5  11    7.80    1.60
  -9   5  11    7.10    1.90
   9   5 -11   11.50    2.50
   9   5 -11    7.20    0.80
  -9   5  11    6.80    1.30
  -7  -5  11   26.10    1.60
   7  -5 -11   31.40    2.20
  -7  -5  11   28.30    2.80
   7  -5 -11   28.30    2.20
  -7   5  11   21.30    2.30
   7   5 -11   25.90    3.30
  -7   5  11   22.70    2.90
  -5  -5  11   27.40    1.80
  -5  -5  11   29.00    3.00
   5  -5 -11   28.70    2.10
   5  -5 -11   23.20    2.20
  -5   5  11   33.20    3.20
  -5   5  11   25.20    2.60
   5   5 -11   25.40    1.40
   5   5 -11   26.10    3.30
  -3  -5  11   72.39    4.90
   3  -5 -11   78.59    4.30
   3  -5 -11   74.49    3.90
   3   5 -11   77.59    3.00
   3   5 -11   91.59    5.50
  -3   5  11   76.59    4.60
  -3   5  11   68.79    4.70
   3   5 -11   78.49    3.20
   1  -5 -11  186.48    7.50
   1  -5 -11  183.48    7.90
  -1  -5  11  201.48    9.40
  -1  -5  11  167.18    9.10
   1   5 -11  192.88    9.00
  -1   5  11  190.68    9.00
   1   5 -11  200.68    6.80
  -1   5  11  201.58    8.10
   1  -5  11   30.60    3.90
   1  -5  11   38.20    4.20
  -1  -5 -11   27.20    2.50
  -1  -5 -11   24.60    2.70
  -1   5 -11   28.50    2.20
   1   5  11   29.80    3.60
   1   5  11   31.70    2.60
  -1   5 -11   33.10    3.50
   3  -5  11   47.10    4.90
  -3  -5 -11   44.80    3.60
  -3  -5 -11   51.49    3.50
   3  -5  11   47.70    4.80
  -3   5 -11   51.99    3.20
  -3   5 -11   48.50    4.20
   5  -5  11   43.20    4.80
   5  -5  11   37.70    4.70
  -5  -5 -11   42.80    3.40
   5   5  11   37.40    4.00
  -5   5 -11   44.20    3.90
  -5   5 -11   40.50    3.20
   7  -5  11    4.70    2.30
   7  -5  11    6.10    2.50
  -7  -5 -11    1.00    1.20
  -7   5 -11    2.90    1.40
   7   5  11    4.70    2.00
   9  -5  11   11.50    3.30
  -9  -5 -11    8.90    2.10
   9   5  11   13.10    2.90
  -9   5 -11    9.20    2.10
  24  -6 -11   10.70    2.80
 -24  -6  11   11.50    2.40
 -24  -6  11   10.40    2.80
 -24  -6  11   10.10    2.00
 -24   6  11    8.60    3.20
  22  -6 -11    5.40    2.00
 -22  -6  11    3.20    1.30
 -22  -6  11    4.30    1.80
 -22  -6  11    7.60    2.60
 -22   6  11    4.80    2.40
  22   6 -11    4.40    2.30
 -20  -6  11   13.00    2.10
 -20  -6  11    9.50    1.80
  20  -6 -11   11.80    2.50
  20   6 -11   12.00    2.90
 -20   6  11    8.40    2.70
 -18  -6  11    1.20    1.00
  18  -6 -11    1.60    1.20
 -18  -6  11    0.10    1.00
  18   6 -11    2.30    1.70
 -18   6  11    0.90    1.70
  16  -6 -11    6.80    1.70
 -16  -6  11    5.80    1.30
 -16  -6  11    6.00    1.50
  16   6 -11    8.20    2.40
 -16   6  11    4.80    2.00
 -14  -6  11  111.39    4.30
 -14  -6  11  101.49    5.20
  14  -6 -11  109.09    5.40
 -14   6  11  109.79    6.80
  14   6 -11   99.69    6.70
 -12  -6  11   21.80    2.30
 -12  -6  11   22.40    1.40
  12  -6 -11   20.50    2.20
 -12   6  11   19.50    3.10
  12   6 -11   22.30    3.40
  10  -6 -11   23.00    2.20
 -10  -6  11   20.80    2.40
  10   6 -11   18.10    3.10
 -10   6  11   24.80    3.30
 -10   6  11   24.80    1.60
   8  -6 -11    2.50    1.00
  -8  -6  11    1.30    1.10
  -8   6  11    1.70    1.00
  -8   6  11    6.00    1.90
   8   6 -11    3.70    1.80
   6  -6 -11   91.49    4.70
   6  -6 -11   89.79    4.30
  -6  -6  11   95.89    5.40
  -6   6  11   96.09    5.70
   6   6 -11  101.59    6.20
   4  -6 -11   73.69    4.10
   4  -6 -11   68.49    3.70
  -4  -6  11   65.89    4.70
   4   6 -11   68.59    2.60
   4   6 -11   74.49    5.20
   4   6 -11   72.59    2.50
  -4   6  11   64.09    4.40
  -2  -6  11   23.70    3.20
   2  -6 -11   24.80    2.50
   2  -6 -11   22.30    2.20
   2   6 -11   28.10    1.70
   2   6 -11   26.50    3.40
  -2   6  11   25.40    2.80
   2   6 -11   28.40    1.60
   0  -6 -11   32.10    2.90
   0  -6  11   25.30    3.50
   0  -6  11   32.60    3.80
   0  -6 -11   34.50    2.70
   0   6 -11   26.00    3.30
   0   6  11   33.80    2.90
   0   6 -11   34.20    2.10
   0   6  11   31.20    3.20
  -2  -6 -11    1.10    1.00
  -2  -6 -11    2.70    1.20
   2  -6  11    0.70    1.60
   2  -6  11    2.20    1.70
  -2   6 -11    4.40    1.90
  -2   6 -11    2.80    1.00
   2   6  11    1.80    1.30
   4  -6  11   32.50    4.30
  -4  -6 -11   19.40    2.70
   4  -6  11   27.70    4.00
  -4  -6 -11   23.20    2.60
  -4   6 -11   25.20    2.40
  -4   6 -11   26.10    3.40
   4   6  11   26.30    3.30
   6  -6  11   10.90    3.00
   6  -6  11    8.10    2.80
  -6  -6 -11    4.40    1.50
  -6   6 -11    3.00    1.40
  -6   6 -11    5.50    2.00
   6   6  11    3.50    1.80
   8  -6  11    8.50    3.10
   8  -6  11    8.00    3.00
  -8  -6 -11    7.60    2.00
   8   6  11    8.10    2.50
 -23  -7  11   -1.80    1.60
 -23  -7  11    0.20    1.20
  23  -7 -11    3.70    1.90
 -23   7  11    0.20    2.10
  23   7 -11   -0.30    1.90
  21  -7 -11    2.90    1.70
 -21  -7  11    3.00    1.30
  21   7 -11    2.80    2.10
 -21   7  11    2.80    2.30
 -19  -7  11   -1.30    0.80
  19  -7 -11    0.40    1.30
  19   7 -11    0.80    1.80
 -19   7  11    1.80    2.10
 -17  -7  11    3.80    1.40
  17  -7 -11    7.10    1.90
 -17   7  11    7.30    2.40
  17   7 -11    6.80    2.30
 -15  -7  11    9.40    1.70
  15  -7 -11   12.90    2.10
 -15   7  11   10.20    2.70
  15   7 -11    9.70    2.50
  13  -7 -11   19.00    2.30
 -13  -7  11   16.20    2.20
  13   7 -11   22.10    3.50
 -13   7  11   19.10    3.20
  11  -7 -11    2.60    1.10
 -11  -7  11    1.70    1.20
  11   7 -11    1.50    1.40
 -11   7  11    2.00    1.70
   9  -7 -11   32.70    2.70
  -9  -7  11   37.20    3.10
  -9   7  11   39.40    2.10
   9   7 -11   31.10    3.90
  -9   7  11   34.90    3.80
   7  -7 -11    0.50    0.80
  -7  -7  11    1.50    1.20
   7   7 -11    0.70    1.30
  -7   7  11    1.40    0.80
  -7   7  11   -1.20    1.00
   5  -7 -11    2.20    0.90
  -5  -7  11    5.10    1.70
   5  -7 -11    2.30    1.10
   5   7 -11    1.60    1.60
  -5   7  11    3.30    1.50
  -5   7  11    1.40    1.00
   3  -7 -11   15.80    1.90
   3  -7 -11   16.40    2.10
  -3  -7  11   26.50    3.20
  -3   7  11   26.00    2.90
   3   7 -11   19.60    3.20
  -3   7  11   20.70    2.30
  -1  -7  11    4.40    1.80
  -1  -7  11    2.70    1.70
   1  -7 -11    3.50    1.10
   1  -7 -11    3.80    1.30
   1   7 -11    5.50    2.00
  -1   7  11    2.50    1.30
  -1   7  11    5.20    1.60
   1  -7  11   -1.70    1.20
   1  -7  11    1.30    1.60
  -1  -7 -11   -1.20    0.70
  -1  -7 -11   -0.20    0.90
   1   7  11   -2.30    0.90
  -1   7 -11    1.30    1.40
  -3  -7 -11    3.80    1.40
   3  -7  11    6.40    2.30
  -3  -7 -11    8.50    2.00
   3  -7  11    4.00    2.20
   3   7  11    7.30    2.10
  -3   7 -11    4.90    1.90
   5  -7  11    1.20    1.80
  -5  -7 -11    0.90    1.00
  -5  -7 -11    1.00    1.20
   5  -7  11    0.40    1.60
   5   7  11    0.40    1.50
  -5   7 -11    1.70    1.80
   7  -7  11    0.50    1.60
  -7  -7 -11    1.10    1.20
   7  -7  11    0.30    1.80
  -7   7 -11   -1.10    1.60
   7   7  11    0.30    1.40
 -22  -8  11    2.70    1.30
  22  -8 -11    3.60    1.90
 -22   8  11    8.90    3.00
  22   8 -11    5.50    2.40
 -20  -8  11    1.70    1.10
  20  -8 -11    1.10    1.50
 -20   8  11    0.60    1.90
  20   8 -11    1.50    1.70
 -18  -8  11    2.40    1.30
  18  -8 -11    5.00    1.80
 -18   8  11    4.00    2.20
  18   8 -11    5.00    2.10
 -16  -8  11    7.50    1.70
  16  -8 -11   10.60    2.10
 -16   8  11    5.10    2.20
  16   8 -11    6.40    2.30
  14  -8 -11   47.60    3.40
 -14  -8  11   34.60    3.00
 -14   8  11   39.50    4.60
  14   8 -11   40.00    4.60
 -12  -8  11    2.40    1.20
  12  -8 -11    3.60    1.20
 -12   8  11    3.20    1.90
  12   8 -11    1.90    1.60
 -10  -8  11   33.00    3.10
  10  -8 -11   30.80    2.70
  10   8 -11   27.40    3.80
 -10   8  11   39.80    4.20
  -8  -8  11    2.90    1.30
   8  -8 -11    4.80    1.30
  -8   8  11    5.20    1.00
   8   8 -11    5.00    2.00
  -8   8  11    3.80    1.80
   6  -8 -11   45.00    3.00
   6  -8 -11   44.50    3.20
  -6  -8  11   47.60    3.80
   6   8 -11   40.30    4.40
  -6   8  11   47.10    4.20
  -6   8  11   48.60    2.90
   4  -8 -11   10.00    1.80
  -4  -8  11    7.10    2.00
   4  -8 -11    8.30    1.40
  -4   8  11   11.50    1.70
   4   8 -11   12.80    2.80
  -4   8  11    7.90    2.00
   2  -8 -11   11.30    1.70
   2  -8 -11   11.20    2.00
  -2  -8  11    7.80    2.20
  -2   8  11   12.20    2.30
   2   8 -11   11.60    2.80
  -2   8  11   15.20    2.20
   0  -8  11   32.00    4.10
   0  -8  11   37.70    4.20
   0  -8 -11   39.70    3.30
   0  -8 -11   34.90    2.80
   0   8 -11   25.40    3.70
   0   8  11   39.70    3.30
   0   8  11   33.30    3.20
   2  -8  11    0.70    1.60
  -2  -8 -11   -0.70    0.80
   2  -8  11   -0.80    1.40
  -2  -8 -11    0.00    0.90
  -2   8 -11   -0.40    1.40
   2   8  11   -0.40    1.10
  -4  -8 -11    5.20    1.60
   4  -8  11    4.10    2.50
  -4  -8 -11    2.80    1.40
   4  -8  11    4.60    2.30
   4   8  11    4.20    1.80
  -4   8 -11    2.20    1.90
   6  -8  11    2.60    2.10
   6  -8  11    5.00    2.30
  -6  -8 -11    1.30    1.20
  -6  -8 -11    3.00    1.40
   6   8  11    2.40    1.70
  -6   8 -11    2.30    1.90
 -21  -9  11   21.60    2.70
  21  -9 -11   22.50    3.40
 -21   9  11   31.50    4.90
  21   9 -11   27.20    4.40
 -19  -9  11   57.29    4.00
  19  -9 -11   61.89    4.70
  19   9 -11   59.09    5.70
 -19   9  11   50.39    5.70
  17  -9 -11   63.99    4.50
 -17  -9  11   57.69    4.00
 -17   9  11   60.09    5.80
  17   9 -11   60.59    5.70
  15  -9 -11  104.29    5.90
 -15  -9  11  116.99    5.90
  15   9 -11  119.29    7.70
 -15   9  11  115.99    7.60
 -13  -9  11   17.50    2.40
  13  -9 -11   20.60    2.50
 -13   9  11   24.20    3.80
  13   9 -11   16.70    3.40
 -11  -9  11    2.30    1.30
  11  -9 -11    0.60    0.80
  11   9 -11    2.00    1.70
 -11   9  11    1.80    1.70
   9  -9 -11    1.90    1.10
  -9  -9  11    2.00    1.30
   9   9 -11    2.50    1.60
  -9   9  11   -0.10    1.30
  -7  -9  11   38.80    3.60
   7  -9 -11   33.70    2.80
   7   9 -11   35.60    4.30
  -7   9  11   41.90    2.40
  -7   9  11   34.70    3.90
  -5  -9  11    2.70    1.60
   5  -9 -11    4.70    1.20
   5  -9 -11    7.00    1.60
  -5   9  11    2.90    1.70
  -5   9  11    4.10    1.20
   5   9 -11    3.50    1.90
   3  -9 -11   62.19    3.70
   3  -9 -11   49.20    3.70
  -3  -9  11   73.89    5.30
  -3   9  11   69.19    4.00
   3   9 -11   70.79    5.60
  -3   9  11   66.29    4.80
   1  -9 -11  118.09    6.10
   1  -9 -11  109.99    5.50
  -1  -9  11  103.69    6.90
   1   9 -11  133.09    7.70
  -1   9  11  113.19    5.80
  -1   9  11  120.29    6.30
   1  -9  11   19.70    3.60
   1  -9  11   17.00    3.30
  -1  -9 -11   16.20    2.50
  -1  -9 -11   19.70    2.30
   1   9  11   18.10    2.60
  -1   9 -11   15.50    3.10
  -3  -9 -11   49.20    3.50
   3  -9  11   27.40    4.30
   3  -9  11   36.80    4.60
  -3  -9 -11   41.70    3.70
  -3   9 -11   39.60    4.40
   3   9  11   44.20    4.00
   5  -9  11   17.40    3.60
  -5  -9 -11   18.30    2.60
   5  -9  11   14.10    3.50
  -5  -9 -11   22.00    3.10
  -5   9 -11   10.60    2.80
   5   9  11   25.10    3.30
 -20 -10  11   29.30    3.10
  20 -10 -11   36.10    4.00
 -20  10  11   31.20    5.00
  20  10 -11   30.00    4.60
  18 -10 -11   43.20    4.00
 -18 -10  11   32.40    3.20
  18  10 -11   37.60    4.90
 -18  10  11   38.50    5.00
  16 -10 -11   46.70    4.00
 -16 -10  11   49.70    3.80
 -16  10  11   47.10    5.30
  16  10 -11   48.20    5.30
 -14 -10  11   99.99    5.60
  14 -10 -11  108.89    5.90
 -14  10  11  108.89    7.30
  14  10 -11  104.49    7.40
 -12 -10  11   67.59    4.50
  12  10 -11   63.99    5.80
 -12  10  11   74.39    5.80
  10 -10 -11   56.99    3.80
 -10 -10  11   56.29    4.10
 -10  10  11   43.20    4.70
  10  10 -11   57.79    5.50
   8 -10 -11   36.40    3.00
  -8  10  11   37.20    4.20
   8  10 -11   29.30    4.20
  -6 -10  11   53.99    4.40
   6 -10 -11   60.79    3.90
  -6  10  11   61.09    5.00
  -6  10  11   57.19    3.10
   6  10 -11   60.29    5.60
   4 -10 -11  159.28    7.50
   4 -10 -11  180.48    7.40
  -4 -10  11  160.38    8.50
   4  10 -11  166.58    9.50
  -4  10  11  180.58    7.10
  -4  10  11  184.18    8.70
  -2 -10  11   63.99    5.30
   2 -10 -11   74.29    4.20
   2 -10 -11   60.89    4.20
  -2  10  11   71.79    4.90
   2  10 -11   61.39    5.70
  -2  10  11   68.49    4.20
   0 -10 -11   51.19    3.90
   0 -10  11   50.29    5.00
   0 -10 -11   55.79    3.70
   0  10  11   53.59    3.90
   0  10 -11   47.90    5.10
   2 -10  11   31.40    4.30
  -2 -10 -11   39.10    3.20
  -2 -10 -11   39.40    3.70
   2 -10  11   31.60    4.50
   2  10  11   38.70    3.60
  -2  10 -11   47.10    4.90
   4 -10  11   52.89    5.70
   4 -10  11   56.19    5.90
  -4 -10 -11   50.79    3.80
  -4 -10 -11   48.60    4.30
  -4  10 -11   47.30    5.00
   4  10  11   53.49    4.50
  19 -11 -11   48.10    4.70
 -19 -11  11   52.89    4.20
 -19  11  11   51.69    6.00
  19  11 -11   57.59    6.00
 -17 -11  11   35.60    3.40
  17 -11 -11   32.00    3.60
  17  11 -11   26.90    4.40
 -17  11  11   38.90    5.20
  15 -11 -11   16.90    2.80
 -15 -11  11   16.10    2.50
  15  11 -11   21.90    4.00
 -15  11  11   21.30    4.00
 -13 -11  11  163.38    7.60
  13  11 -11  145.39    9.00
 -13  11  11  143.99    9.00
 -11 -11  11  102.99    5.80
  11 -11 -11   89.79    5.30
  11  11 -11  103.19    7.20
 -11  11  11   87.29    6.60
  -9 -11  11   30.70    3.40
   9 -11 -11   29.50    3.00
   9  11 -11   28.90    4.30
  -9  11  11   29.40    4.00
  -7 -11  11   30.60    3.60
   7 -11 -11   23.30    2.70
  -7  11  11   24.60    3.70
   7  11 -11   26.50    4.20
   5 -11 -11  171.58    7.40
   5 -11 -11  179.98    7.80
  -5 -11  11  171.28    8.80
  -5  11  11  172.58    8.90
   5  11 -11  153.38    9.40
   3 -11 -11   69.09    4.40
  -3 -11  11   61.09    5.20
   3 -11 -11   66.29    4.00
  -3  11  11   62.09    4.90
   3  11 -11   54.69    5.60
  -3  11  11   72.39    4.00
  -1 -11  11   27.90    4.00
   1 -11 -11   33.80    3.30
   1 -11 -11   32.10    2.80
  -1  11  11   30.80    2.90
   1  11 -11   25.40    4.10
  -1 -11 -11   86.49    5.50
   1 -11  11   95.39    7.30
  -1 -11 -11   97.59    5.30
   1 -11  11  101.79    7.10
   1  11  11   86.79    5.20
  -1  11 -11   87.59    6.80
   3 -11  11   47.70    5.60
   3 -11  11   69.39    6.20
  -3 -11 -11   58.69    4.10
  -3 -11 -11   52.49    4.30
   3  11  11   60.29    4.50
  -3  11 -11   51.29    5.40
  18 -12 -11   33.10    3.90
  18  12 -11   35.00    5.00
 -18  12  11   38.80    5.40
 -16 -12  11   31.00    3.40
  16 -12 -11   33.20    3.70
  16  12 -11   35.50    4.90
 -16  12  11   37.30    5.10
 -14 -12  11   13.10    2.50
  14 -12 -11   16.60    2.80
  14  12 -11   13.20    3.30
 -14  12  11   17.00    3.80
  12 -12 -11   47.20    3.90
 -12 -12  11   48.80    4.10
  12  12 -11   49.90    5.50
 -12  12  11   57.19    5.70
 -10 -12  11   15.20    2.70
  10 -12 -11   16.00    2.50
  10  12 -11   29.30    4.50
 -10  12  11   19.30    3.70
  -8 -12  11   30.30    3.60
   8 -12 -11   29.70    3.10
  -8  12  11   34.30    4.30
   8  12 -11   30.30    4.50
  -6 -12  11   31.30    3.80
   6 -12 -11   34.90    3.20
   6  12 -11   27.70    4.40
  -6  12  11   31.80    4.10
  -4 -12  11  124.09    7.40
   4 -12 -11  121.19    6.00
   4 -12 -11  117.09    6.30
  -4  12  11  125.89    7.40
   4  12 -11  131.39    8.60
   2 -12 -11   23.50    2.90
   2 -12 -11   27.00    2.70
  -2 -12  11   21.90    3.70
   2  12 -11   31.40    4.60
  -2  12  11   25.80    2.50
   0 -12 -11   10.20    2.00
   0 -12  11   13.00    3.10
   0 -12 -11   14.70    2.50
   0  12  11    9.30    2.00
   0  12 -11   10.00    3.10
   2 -12  11   65.19    6.10
   2 -12  11   48.00    5.70
  -2 -12 -11   58.09    4.10
  -2 -12 -11   57.39    4.50
   2  12  11   56.79    4.30
  -2  12 -11   52.99    5.70
  15 -13 -11    3.80    2.10
 -15 -13  11    3.50    1.90
  15  13 -11    3.90    2.50
 -15  13  11    1.80    2.30
 -13 -13  11   14.50    2.70
  13 -13 -11   17.60    2.90
 -13  13  11   14.50    3.60
  13  13 -11   11.40    3.40
 -11 -13  11  101.39    6.20
  11 -13 -11   92.99    5.70
  11  13 -11   84.09    7.40
 -11  13  11  102.79    7.30
  -9 -13  11   29.30    3.60
   9 -13 -11   31.20    3.20
   9  13 -11   27.70    4.50
  -9  13  11   31.30    4.40
  -7 -13  11   32.20    3.90
  -7  13  11   30.60    4.30
   7  13 -11   29.80    4.70
   5 -13 -11    4.30    1.50
  -5 -13  11    4.30    2.00
   5  13 -11    6.10    2.90
  -5  13  11    5.00    2.40
  -3 -13  11   17.60    3.30
   3 -13 -11   17.80    2.30
   3 -13 -11   17.00    2.60
   3  13 -11   14.20    3.70
  -3  13  11   18.70    3.30
  -1 -13  11    1.60    1.90
   1 -13 -11    2.50    1.50
   1 -13 -11    2.40    1.30
   1  13 -11   -1.80    1.70
 -12 -14  11    3.50    1.80
  12  14 -11    6.20    3.00
 -12  14  11    4.90    2.70
  10 -14 -11    2.10    1.40
 -10 -14  11    0.90    1.50
  10  14 -11    4.50    2.50
 -10  14  11    0.00    2.00
   8 -14 -11   -1.20    0.90
  -8 -14  11    0.00    1.60
  -8  14  11   -0.80    1.80
   8  14 -11    1.70    2.50
   6 -14 -11    1.30    1.30
  -6 -14  11    1.50    1.70
   6  14 -11    0.10    2.10
  -6  14  11    0.20    1.90
  -4 -14  11   14.10    3.20
   4 -14 -11   11.30    2.20
  -4  14  11   13.20    3.20
   4  14 -11   13.30    3.60
  -4  14  11   16.80    3.70
 -26   0  12   44.90    5.10
  26   0 -12   52.29    4.90
  24   0 -12   86.79    5.90
 -24   0  12   98.09    7.00
 -22   0  12  249.08   12.10
  22   0 -12  241.78   10.70
 -22   0  12  260.37    9.00
  20   0 -12   98.59    5.50
 -20   0  12   98.49    4.30
 -20   0  12   96.49    6.80
 -18   0  12  424.36   13.90
  18   0 -12  432.56   15.10
 -18   0  12  426.26   17.10
 -16   0  12   20.10    3.20
 -16   0  12   17.20    1.70
  16   0 -12   17.50    2.00
 -14   0  12  192.38    9.40
  14   0 -12  194.88    7.40
 -14   0  12  188.88    7.30
 -12   0  12  448.66   15.20
 -12   0  12  460.55   17.20
  10   0 -12  605.14   20.50
 -10   0  12  554.34   20.20
 -10   0  12  558.04   18.70
  10   0 -12  560.54   17.80
  -8   0  12  424.26   15.10
   8   0 -12  434.76   13.90
   8   0 -12  433.86   16.10
  -8   0  12  419.26   16.00
  -8   0  12  433.56   15.40
   6   0 -12   33.60    3.30
  -6   0  12   30.40    3.00
   6   0 -12   35.30    2.20
  -6   0  12   37.70    3.40
  -6   0  12   34.70    3.40
   6   0 -12   32.00    2.00
  -4   0  12  103.49    6.00
  -4   0  12  108.49    6.20
   4   0 -12   97.49    5.70
   4   0 -12  104.79    4.40
   4   0 -12  111.79    4.80
   2   0 -12   39.80    2.60
   2   0 -12   42.90    2.80
   2   0 -12   48.40    3.70
  -2   0  12   41.70    4.10
  -2   0  12   41.00    4.00
   0   0 -12  180.28    7.90
   0   0  12  163.48    9.10
   0   0  12  172.88    9.00
   0   0 -12  175.38    7.00
   0   0 -12  188.28    7.50
   2   0  12   68.39    4.20
   2   0  12   70.19    5.70
  -2   0 -12   65.89    4.20
  -2   0 -12   72.99    4.10
  -4   0 -12    7.30    1.70
   4   0  12    7.80    2.60
  -6   0 -12  152.58    7.20
   6   0  12  138.09    9.10
  -8   0 -12   63.19    4.50
   8   0  12   65.29    6.40
 -25  -1  12   84.19    6.50
  25  -1 -12   72.39    5.50
 -25  -1  12   77.39    5.60
 -25   1  12   68.59    6.30
  25   1 -12   77.99    5.70
 -23  -1  12  104.39    7.30
  23  -1 -12  104.19    6.30
 -23  -1  12  109.99    4.90
  23   1 -12  121.79    6.60
 -23   1  12   97.39    7.10
 -21  -1  12  122.69    7.70
 -21  -1  12  118.49    5.10
  21  -1 -12  120.19    6.50
  21   1 -12  113.89    6.20
 -21   1  12  119.99    7.60
 -19  -1  12  277.97    9.70
 -19  -1  12  277.47   12.60
  19  -1 -12  267.17   10.80
  19   1 -12  264.07   10.60
 -19   1  12  285.07    9.40
 -19   1  12  283.57   12.80
 -17  -1  12  356.66   15.30
 -17  -1  12  388.06   12.70
  17  -1 -12  377.76   13.40
 -17   1  12  375.86   15.50
  17   1 -12  379.86   13.30
 -17   1  12  378.56   12.40
 -15  -1  12   25.90    3.50
  15  -1 -12   31.10    2.40
 -15  -1  12   22.80    2.10
  15   1 -12   23.30    2.20
 -15   1  12   25.50    3.50
 -15   1  12   27.90    2.10
 -13  -1  12   78.79    5.40
 -13  -1  12   73.79    3.90
  13  -1 -12   66.59    3.60
 -13   1  12   78.19    3.90
  13   1 -12   88.49    5.60
 -13   1  12   71.19    5.20
  13   1 -12   72.09    3.60
 -11  -1  12   79.49    4.20
  11  -1 -12   79.09    3.70
  11   1 -12   73.29    5.20
 -11   1  12   65.89    3.80
 -11   1  12   68.29    4.00
 -11   1  12   63.39    4.80
  -9  -1  12  198.78    8.30
   9  -1 -12  201.98    7.50
  -9   1  12  211.68    9.40
   9   1 -12  200.58    9.40
   9   1 -12  213.58    7.30
  -9   1  12  197.68    8.20
  -9   1  12  202.58    8.50
   7  -1 -12   80.59    3.50
  -7  -1  12   67.09    4.60
   7  -1 -12   79.99    3.80
  -7  -1  12   76.89    4.60
  -7   1  12   82.39    4.90
   7   1 -12   78.89    3.30
  -7   1  12   78.09    4.60
   7   1 -12   71.69    5.00
   7   1 -12   75.79    3.40
  -7   1  12   70.29    4.80
  -5  -1  12  165.18    7.90
   5  -1 -12  160.58    6.00
   5  -1 -12  154.78    6.30
  -5  -1  12  168.78    7.70
  -5   1  12  162.68    7.60
   5   1 -12  162.38    5.80
   5   1 -12  164.68    7.80
  -5   1  12  146.09    7.30
   5   1 -12  149.09    6.00
  -5   1  12  151.28    7.60
   3  -1 -12  233.98    8.50
  -3  -1  12  256.57   10.60
   3  -1 -12  228.48    8.80
  -3  -1  12  229.38   10.60
   3   1 -12  241.98    8.60
  -3   1  12  240.18   10.30
   3   1 -12  251.47   10.10
  -3   1  12  228.98    9.70
  -3   1  12  216.08   10.30
   3   1 -12  239.48    8.30
   1  -1 -12   68.19    3.60
  -1  -1  12   60.09    4.90
  -1  -1  12   66.79    5.30
   1  -1 -12   66.69    3.90
   1   1 -12   72.69    4.50
  -1   1  12   64.19    5.20
   1   1 -12   61.29    3.60
   1   1 -12   66.29    3.50
  -1   1  12   71.69    5.10
  -1   1  12   72.99    4.40
   1  -1  12   53.99    4.90
   1  -1  12   46.70    4.70
  -1  -1 -12   56.99    3.40
  -1   1 -12   56.09    3.30
   1   1  12   57.09    5.00
   1   1  12   52.99    3.60
  -1   1 -12   51.39    3.90
   3  -1  12   77.49    6.20
   3  -1  12   75.89    6.00
  -3  -1 -12   75.59    4.40
   3   1  12   74.49    6.10
  -3   1 -12   84.09    4.80
  -3   1 -12   86.19    4.50
  -5  -1 -12   39.50    3.30
   5  -1  12   34.50    4.60
  -5   1 -12   34.50    3.10
   5   1  12   43.40    4.90
  -7  -1 -12   77.19    4.90
   7  -1  12   73.59    6.60
   7   1  12   72.69    6.50
  -7   1 -12   79.59    4.90
  -9  -1 -12   85.79    5.50
   9  -1  12   81.59    7.30
  -9   1 -12   88.19    5.50
   9   1  12   69.09    6.80
 -26  -2  12   51.59    4.70
  26  -2 -12   61.29    5.40
 -26  -2  12   54.39    5.60
 -26   2  12   50.09    5.50
 -24  -2  12   13.50    3.20
  24  -2 -12    9.20    2.40
 -24  -2  12   11.80    2.60
 -24  -2  12   10.80    1.60
  24   2 -12   13.60    2.70
 -24   2  12    7.90    2.70
  22  -2 -12   19.10    2.90
 -22  -2  12   24.40    2.20
 -22  -2  12   23.70    3.80
 -22   2  12   26.60    4.10
  22   2 -12   30.90    3.30
 -20  -2  12   97.19    6.70
  20  -2 -12  109.09    5.90
 -20  -2  12   99.89    4.70
  20   2 -12  110.19    5.70
 -20   2  12  106.99    7.20
 -18  -2  12   15.70    3.00
 -18  -2  12   18.60    1.90
  18  -2 -12   19.10    2.40
  18   2 -12   17.90    2.20
 -18   2  12   12.80    2.90
  16  -2 -12  154.08    6.80
 -16  -2  12  156.28    8.50
 -16  -2  12  153.18    6.40
 -16   2  12  158.38    6.00
 -16   2  12  158.58    8.60
  16   2 -12  177.58    8.90
  16   2 -12  156.48    6.60
 -14  -2  12   24.40    2.20
  14  -2 -12   20.40    2.10
 -14   2  12   22.20    3.30
 -14   2  12   21.80    1.90
  14   2 -12   17.70    2.90
  14   2 -12   24.30    2.00
  12  -2 -12   61.69    3.40
 -12  -2  12   57.49    3.50
  12   2 -12   63.79    4.80
 -12   2  12   51.79    4.40
  12   2 -12   58.69    3.00
 -12   2  12   56.09    3.30
 -12   2  12   68.79    3.70
  10  -2 -12  134.19    5.50
 -10  -2  12  126.89    6.10
 -10   2  12  134.69    6.10
  10   2 -12  134.69    5.10
 -10   2  12  138.99    6.00
  10   2 -12  132.59    7.20
 -10   2  12  126.79    7.00
  -8  -2  12   19.90    2.40
   8  -2 -12   17.60    1.70
  -8   2  12   23.60    2.90
   8   2 -12   21.70    1.50
  -8   2  12   23.30    2.50
  -8   2  12   24.10    2.50
   8   2 -12   23.60    3.10
  -6  -2  12   83.59    5.30
   6  -2 -12   81.99    3.80
   6  -2 -12   82.69    4.00
  -6  -2  12   86.49    5.10
   6   2 -12   82.89    3.40
  -6   2  12   85.89    5.20
   6   2 -12   75.59    5.10
  -6   2  12   81.69    4.80
   6   2 -12   81.19    3.50
  -6   2  12   81.09    5.00
  -4  -2  12   34.30    3.70
  -4  -2  12   42.60    3.80
   4  -2 -12   41.40    2.50
   4  -2 -12   42.20    2.80
  -4   2  12   38.20    3.70
  -4   2  12   40.90    3.70
   4   2 -12   41.80    2.40
   4   2 -12   41.50    2.20
   4   2 -12   42.60    3.80
  -4   2  12   42.30    3.50
  -2  -2  12   86.49    5.60
  -2  -2  12   79.39    5.70
   2  -2 -12   81.29    4.10
   2  -2 -12   87.89    4.50
   2   2 -12   82.59    4.00
  -2   2  12   94.79    5.10
   2   2 -12   81.79    5.10
  -2   2  12   82.99    5.70
   2   2 -12   86.19    3.90
   0  -2 -12   60.19    3.70
   0  -2 -12   56.79    3.40
   0  -2  12   48.80    4.70
   0  -2  12   53.29    4.80
   0   2 -12   56.19    4.10
   0   2  12   59.09    3.80
   0   2 -12   58.39    3.20
   0   2  12   50.69    4.70
   2  -2  12   19.30    3.40
   2  -2  12   20.60    3.40
  -2  -2 -12   21.00    2.20
  -2   2 -12   23.30    2.70
   2   2  12   20.00    3.40
  -2   2 -12   20.00    2.10
   4  -2  12   76.89    6.00
  -4  -2 -12   47.00    3.60
   4  -2  12   54.09    5.40
  -4   2 -12   61.79    4.10
   4   2  12   59.79    5.60
  -4   2 -12   53.99    3.60
   6  -2  12   18.80    3.80
  -6  -2 -12   23.30    2.70
   6   2  12   13.80    3.40
  -6   2 -12   18.90    2.40
  -8  -2 -12   27.60    3.10
   8   2  12   16.50    3.80
  -8   2 -12   21.10    2.80
 -25  -3  12   -0.80    1.50
 -25  -3  12   -0.30    1.00
 -25  -3  12    1.10    1.60
  25  -3 -12    1.00    1.60
 -25   3  12   -1.60    1.90
 -23  -3  12    0.80    1.40
  23  -3 -12   -0.20    1.30
 -23  -3  12   -1.10    1.50
 -23  -3  12    0.70    0.90
 -23   3  12    0.70    1.70
  23   3 -12    1.60    1.50
  21  -3 -12    1.10    1.40
 -21  -3  12    0.60    1.60
 -21  -3  12    1.90    1.00
  21   3 -12    2.10    1.60
 -21   3  12    2.70    2.10
  19  -3 -12    9.80    2.00
 -19  -3  12   15.60    3.20
 -19  -3  12   10.70    1.60
 -19   3  12   11.10    2.90
  19   3 -12   12.50    2.00
  19   3 -12    9.30    2.60
 -17  -3  12   46.40    3.00
  17  -3 -12   49.90    3.50
 -17  -3  12   55.79    5.10
 -17   3  12   46.70    4.80
  17   3 -12   44.90    3.20
 -17   3  12   51.49    2.50
  17   3 -12   53.49    5.00
  15  -3 -12  110.99    5.30
 -15  -3  12  112.99    5.10
 -15   3  12  104.99    4.50
  15   3 -12  118.99    5.00
 -15   3  12  107.39    6.80
 -15   3  12  111.59    4.60
  15   3 -12  100.19    6.60
 -13  -3  12   71.39    3.90
  13   3 -12   63.89    3.20
 -13   3  12   67.09    5.10
 -13   3  12   65.59    3.50
 -13   3  12   64.69    3.40
  13   3 -12   61.29    5.00
  11  -3 -12   48.30    3.00
 -11  -3  12   55.29    3.60
  11   3 -12   55.39    4.50
 -11   3  12   51.49    3.30
 -11   3  12   58.59    4.50
  11   3 -12   52.69    2.60
 -11   3  12   49.90    3.10
  -9  -3  12    5.50    1.50
   9  -3 -12    8.20    1.30
  -9   3  12    5.00    1.50
  -9   3  12    6.60    1.80
   9   3 -12    7.50    0.90
   9   3 -12    8.00    2.10
  -9   3  12    7.50    1.50
   7  -3 -12   64.69    3.50
   7  -3 -12   63.79    3.20
  -7  -3  12   63.49    4.20
  -7   3  12   63.09    4.10
   7   3 -12   51.69    4.40
  -7   3  12   60.49    4.10
   7   3 -12   68.29    2.80
  -7   3  12   55.79    4.30
   5  -3 -12    2.70    0.90
   5  -3 -12    4.20    1.10
  -5  -3  12    3.00    1.50
  -5  -3  12    1.80    1.40
  -5   3  12    1.50    1.10
   5   3 -12    1.60    1.30
   5   3 -12    2.30    0.60
  -5   3  12    1.70    1.40
   5   3 -12    3.40    0.70
  -3  -3  12   12.00    2.50
   3  -3 -12   11.80    1.70
   3  -3 -12   11.20    1.50
  -3  -3  12   10.10    2.40
   3   3 -12   11.90    1.20
  -3   3  12   12.00    2.10
   3   3 -12   12.70    2.40
  -3   3  12   13.10    2.40
   3   3 -12   13.10    1.40
   1  -3 -12   42.80    3.10
   1  -3 -12   42.80    2.90
  -1  -3  12   52.39    4.60
  -1  -3  12   42.20    4.40
   1   3 -12   46.50    2.60
  -1   3  12   37.30    4.00
   1   3 -12   44.10    3.90
   1   3 -12   46.20    2.80
  -1   3  12   48.70    3.50
   1  -3  12   18.60    3.30
   1  -3  12   18.30    3.30
  -1  -3 -12   21.50    2.20
  -1  -3 -12   15.30    2.20
   1   3  12   26.30    3.60
   1   3  12   23.60    2.30
  -1   3 -12   20.60    2.00
  -1   3 -12   20.40    2.70
   3  -3  12    0.20    1.50
  -3  -3 -12   -1.40    0.70
   3  -3  12    0.20    1.50
  -3   3 -12    1.80    1.40
   3   3  12    1.60    1.70
  -3   3 -12   -0.10    0.80
  -5  -3 -12   17.10    2.40
   5  -3  12   17.50    3.60
   5  -3  12   15.60    3.50
  -5   3 -12   20.30    2.40
   5   3  12   18.20    3.50
  -7  -3 -12    0.90    1.20
   7  -3  12    1.10    1.90
   7   3  12   -0.20    1.70
  -7   3 -12    1.10    1.20
  -9  -3 -12    1.20    1.40
   9  -3  12    3.00    2.40
  -9   3 -12    0.20    1.30
 -26  -4  12   22.20    3.30
  26  -4 -12   19.10    3.50
 -26  -4  12   17.30    3.60
 -26  -4  12   18.60    2.30
 -26   4  12   19.20    4.10
 -24  -4  12    3.70    2.30
 -24  -4  12    5.70    1.90
 -24  -4  12    2.80    1.20
  24  -4 -12    9.40    2.70
 -24   4  12    3.50    2.20
  22  -4 -12   56.09    4.50
 -22  -4  12   50.09    3.30
 -22  -4  12   46.40    3.80
 -22  -4  12   45.60    5.10
 -22   4  12   46.20    5.20
 -20  -4  12   24.50    2.30
  20  -4 -12   26.80    3.10
 -20  -4  12   28.40    2.80
 -20  -4  12   32.50    4.20
  20   4 -12   29.50    2.90
  20   4 -12   29.20    4.00
 -20   4  12   25.70    4.00
 -18  -4  12   95.99    4.70
  18  -4 -12  103.79    5.50
 -18   4  12   96.49    6.70
  18   4 -12   81.99    6.30
  18   4 -12   88.59    4.80
  16  -4 -12    3.80    1.30
 -16  -4  12    0.10    0.90
 -16   4  12    0.50    1.40
  16   4 -12    1.60    1.00
  16   4 -12    1.10    1.60
 -14  -4  12   -0.40    0.80
  14  -4 -12    0.20    0.80
  14   4 -12    0.00    0.70
 -14   4  12    0.30    0.80
 -14   4  12   -0.50    0.70
 -14   4  12    1.50    1.50
  14   4 -12    0.50    1.30
 -12  -4  12  174.18    7.40
  12  -4 -12  175.88    7.20
  12   4 -12  171.88    6.20
 -12   4  12  189.58    9.10
 -12   4  12  162.38    6.50
 -12   4  12  177.48    6.80
  12   4 -12  178.68    9.00
  10  -4 -12  230.28    8.80
 -10  -4  12  234.38    7.80
 -10  -4  12  253.27    9.60
  10   4 -12  228.18   10.70
 -10   4  12  232.88    8.90
 -10   4  12  216.98   10.30
  10   4 -12  240.58    7.80
  -8  -4  12   35.00    2.10
   8  -4 -12   31.20    2.40
  -8  -4  12   36.30    3.30
   8   4 -12   38.00    1.90
   8   4 -12   34.70    3.80
  -8   4  12   37.20    3.60
  -8   4  12   34.80    3.00
  -6  -4  12    0.20    1.10
   6  -4 -12    2.40    0.90
   6  -4 -12    2.00    0.80
  -6   4  12    1.60    1.30
  -6   4  12    1.40    1.30
   6   4 -12    1.80    1.50
   6   4 -12    0.60    0.40
   4  -4 -12    1.00    0.70
  -4  -4  12    1.60    1.50
   4  -4 -12    1.10    0.80
  -4  -4  12   -0.60    1.20
  -4   4  12    0.90    1.10
   4   4 -12    0.20    1.10
   4   4 -12    0.60    0.50
   4   4 -12    0.30    0.50
  -4   4  12    1.70    1.40
   2  -4 -12    1.50    0.90
   2  -4 -12    2.30    0.90
  -2  -4  12    1.10    1.40
  -2  -4  12   -0.60    1.30
   2   4 -12    1.90    0.70
   2   4 -12    0.60    0.60
   2   4 -12    0.20    1.30
  -2   4  12    1.70    1.10
  -2   4  12   -0.20    1.50
   0  -4  12    8.80    2.60
   0  -4  12   10.80    2.70
   0  -4 -12   12.40    1.70
   0  -4 -12   10.20    1.90
   0   4 -12    8.20    1.30
   0   4 -12   15.70    2.60
   0   4  12   10.80    2.60
   0   4  12   13.40    2.00
  -2  -4 -12    2.50    1.20
  -2  -4 -12    3.50    1.20
   2  -4  12    0.20    1.50
   2  -4  12    2.70    1.90
   2   4  12    2.00    1.80
  -2   4 -12    3.50    1.10
  -2   4 -12    2.50    1.50
   4  -4  12    0.20    1.60
  -4  -4 -12    0.50    1.00
   4  -4  12   -1.20    1.30
   4   4  12    1.50    1.90
  -4   4 -12   -0.80    1.30
  -4   4 -12    0.10    0.90
   6  -4  12    8.80    3.00
   6  -4  12   16.30    3.70
  -6  -4 -12   12.70    2.20
  -6   4 -12    9.30    1.90
   8  -4  12    7.00    2.90
  -8  -4 -12    6.40    1.90
  -8   4 -12    9.70    2.00
   8   4  12    9.70    2.70
 -25  -5  12   48.30    3.40
  25  -5 -12   43.80    4.70
 -25  -5  12   37.00    3.80
 -25  -5  12   38.50    4.90
 -25   5  12   51.89    5.80
 -23  -5  12   73.59    4.30
 -23  -5  12   77.69    5.00
  23  -5 -12   84.19    5.70
 -23  -5  12   79.39    6.40
 -23   5  12   74.19    6.40
 -21  -5  12   93.79    6.80
  21  -5 -12  109.79    6.30
 -21  -5  12   89.39    4.80
 -21  -5  12   99.79    5.30
  21   5 -12   98.19    7.00
 -21   5  12   90.29    6.90
 -19  -5  12  164.08    7.00
 -19  -5  12  160.48    6.90
  19  -5 -12  165.48    7.80
  19   5 -12  164.28    9.20
 -19   5  12  159.48    9.30
 -17  -5  12  172.28    7.20
 -17  -5  12  167.38    6.80
  17  -5 -12  160.38    7.50
  17   5 -12  176.38    9.40
  17   5 -12  165.18    6.80
 -17   5  12  176.18    9.40
 -15  -5  12   88.89    4.60
  15  -5 -12   74.49    4.40
  15   5 -12   86.39    4.00
 -15   5  12   72.29    5.70
  15   5 -12   82.39    6.00
  13  -5 -12   29.50    2.70
 -13  -5  12   31.70    2.70
  13   5 -12   29.90    3.90
 -13   5  12   31.80    3.90
  13   5 -12   31.70    2.00
 -11  -5  12   52.29    3.70
  11  -5 -12   54.39    3.40
  11   5 -12   59.09    2.60
 -11   5  12   54.69    3.10
  11   5 -12   51.99    4.80
 -11   5  12   53.59    4.60
   9  -5 -12  136.89    6.10
  -9  -5  12  137.69    6.80
  -9   5  12  142.69    7.60
   9   5 -12  130.79    7.70
   9   5 -12  152.28    4.90
  -9   5  12  152.88    6.40
  -7  -5  12   56.19    4.10
   7  -5 -12   61.19    3.30
   7  -5 -12   59.59    3.50
   7   5 -12   62.99    2.50
  -7   5  12   60.79    4.50
   7   5 -12   61.19    4.80
  -7   5  12   54.79    3.80
   5  -5 -12   62.39    3.50
  -5  -5  12   62.69    4.60
   5  -5 -12   70.99    3.90
   5   5 -12   71.09    2.60
  -5   5  12   65.59    4.50
   5   5 -12   62.49    4.90
   5   5 -12   65.89    2.70
  -5   5  12   62.99    4.40
   3  -5 -12   44.10    3.20
   3  -5 -12   51.79    3.10
  -3  -5  12   39.10    4.00
  -3  -5  12   43.60    4.30
   3   5 -12   51.59    2.30
  -3   5  12   43.70    3.90
  -3   5  12   54.09    3.90
   3   5 -12   50.79    4.50
   3   5 -12   43.80    2.30
  -1  -5  12   60.69    5.20
   1  -5 -12   62.99    3.80
   1  -5 -12   64.69    4.10
  -1  -5  12   65.89    5.20
   1   5 -12   71.79    3.40
  -1   5  12   65.69    5.10
   1   5 -12   68.49    3.20
  -1   5  12   67.79    4.30
   1   5 -12   71.39    5.10
  -1  -5 -12   63.99    4.00
   1  -5  12   64.19    5.40
  -1  -5 -12   62.19    4.20
   1  -5  12   58.19    5.50
   1   5  12   52.29    4.90
  -1   5 -12   72.39    3.60
  -1   5 -12   73.39    5.10
   3  -5  12    2.30    1.90
   3  -5  12    8.00    2.60
  -3  -5 -12    5.20    1.70
  -3  -5 -12    8.40    1.70
  -3   5 -12    6.80    2.10
  -3   5 -12    4.70    1.30
  -5  -5 -12   54.79    4.00
   5  -5  12   59.49    6.00
   5  -5  12   57.69    5.80
   5   5  12   61.49    5.10
  -5   5 -12   58.69    3.90
  -5   5 -12   63.09    4.80
   7  -5  12   32.70    4.90
  -7  -5 -12   49.80    4.00
   7  -5  12   49.40    5.70
   7   5  12   40.90    4.50
  24  -6 -12   63.09    5.50
 -24  -6  12   68.89    4.30
 -24  -6  12   71.09    6.10
 -24   6  12   71.79    6.60
  22  -6 -12   90.59    5.90
 -22  -6  12   87.49    6.60
 -22  -6  12   73.19    4.50
 -22   6  12   87.89    6.90
  22   6 -12   83.39    6.50
 -20  -6  12  204.98    8.40
  20  -6 -12  199.98    9.30
  20   6 -12  208.58   10.80
 -20   6  12  209.48   11.10
 -18  -6  12   59.89    3.90
  18  -6 -12   69.49    4.60
  18   6 -12   75.49    5.80
 -18   6  12   71.39    5.90
 -16  -6  12  307.77   11.60
 -16  -6  12  312.37   10.70
  16  -6 -12  318.97   12.10
  16   6 -12  338.37   14.30
 -16   6  12  315.87   14.00
 -14  -6  12  142.59    6.40
 -14   6  12  142.69    8.10
  14   6 -12  118.49    7.70
  12  -6 -12   82.19    4.50
 -12  -6  12   84.69    4.80
  12   6 -12   92.69    6.20
 -12   6  12   82.39    5.80
 -10  -6  12  186.28    8.20
  10  -6 -12  186.78    7.70
 -10   6  12  188.68    9.30
  10   6 -12  186.28    9.50
  -8  -6  12  127.59    6.50
   8  -6 -12  128.69    5.80
   8   6 -12  130.39    7.60
  -8   6  12  120.99    6.90
   6  -6 -12   86.09    4.30
   6  -6 -12   85.89    4.60
  -6  -6  12   80.59    5.30
   6   6 -12   97.79    6.20
   4  -6 -12  100.89    5.20
   4  -6 -12  102.29    4.90
  -4  -6  12  110.19    6.40
  -4   6  12  111.29    6.00
   4   6 -12  107.99    6.60
   2  -6 -12  202.88    8.00
  -2  -6  12  207.48    9.90
   2  -6 -12  196.88    8.50
  -2  -6  12  188.38   10.00
  -2   6  12  207.28    8.80
   2   6 -12  198.88    9.70
   0  -6 -12  121.79    5.80
   0  -6 -12  114.39    6.10
   0  -6  12  125.49    7.60
   0  -6  12  122.49    7.80
   0   6 -12  134.89    7.40
   2  -6  12   94.29    7.10
  -2  -6 -12   97.69    5.60
   2  -6  12   97.89    6.90
  -2  -6 -12   95.99    5.20
  -2   6 -12   93.49    6.20
   2   6  12   97.69    5.90
   4  -6  12   83.89    6.60
  -4  -6 -12   84.49    5.00
   4  -6  12   80.59    6.80
  -4  -6 -12   80.19    5.30
   4   6  12   82.99    5.70
  -4   6 -12   95.09    6.00
   6  -6  12   55.59    5.80
   6  -6  12   53.59    5.90
  -6  -6 -12   46.40    3.90
   6   6  12   54.39    4.90
 -23  -7  12   50.99    3.70
 -23  -7  12   44.50    5.20
  23  -7 -12   49.90    4.90
  23   7 -12   56.39    5.70
 -23   7  12   51.29    5.90
 -21  -7  12   36.10    3.10
  21  -7 -12   38.40    4.00
 -21   7  12   43.40    5.30
  21   7 -12   39.30    4.90
 -19  -7  12   55.19    3.80
  19  -7 -12   57.79    4.40
  19   7 -12   66.39    5.90
 -19   7  12   62.79    6.00
  17  -7 -12   27.40    3.00
 -17  -7  12   30.20    2.80
  17   7 -12   25.10    4.00
 -17   7  12   37.40    4.60
  15  -7 -12  256.57   10.20
 -15  -7  12  251.17   10.00
 -15   7  12  261.47   12.20
  15   7 -12  245.88   12.10
 -13  -7  12  368.76   13.50
  13  -7 -12  353.66   13.40
 -13   7  12  382.56   15.60
  13   7 -12  379.36   15.70
  11  -7 -12  374.56   13.60
 -11  -7  12  389.36   14.10
 -11   7  12  378.86   15.50
  11   7 -12  389.16   15.90
  -9  -7  12  199.68    8.70
   9  -7 -12  176.38    7.70
  -9   7  12  183.38    9.20
   9   7 -12  187.78    9.70
  -9   7  12  194.48    6.90
   7  -7 -12  283.27   10.90
  -7  -7  12  303.17   12.10
   7  -7 -12  296.87   10.60
  -7   7  12  293.17   10.40
  -7   7  12  290.37   12.30
   7   7 -12  304.47   13.20
  -5  -7  12   24.70    3.20
   5  -7 -12   18.00    2.20
   5  -7 -12   23.00    2.20
   5   7 -12   19.60    3.30
  -5   7  12   22.20    2.30
  -5   7  12   22.00    3.00
  -3  -7  12   97.29    6.30
   3  -7 -12   93.89    4.80
   3  -7 -12   90.09    5.10
   3   7 -12  101.09    6.50
  -3   7  12  102.79    5.30
  -3   7  12  101.79    5.80
   1  -7 -12  208.48    8.70
  -1  -7  12  214.48   11.10
   1  -7 -12  232.28    9.50
  -1  -7  12  221.48   10.80
   1   7 -12  214.18   10.50
  -1   7  12  226.48    9.50
  -1   7  12  236.88    9.50
   1  -7  12   87.09    6.40
  -1  -7 -12   84.79    4.70
   1  -7  12   83.89    6.50
  -1  -7 -12   74.29    4.90
   1   7  12   67.89    4.90
  -1   7 -12   99.49    6.30
  -3  -7 -12  127.59    7.00
  -3  -7 -12  135.89    6.70
   3  -7  12  125.89    8.60
   3  -7  12  149.79    8.80
  -3   7 -12  124.09    7.60
   3   7  12  150.68    7.70
  -5  -7 -12   76.39    5.30
   5  -7  12   75.29    6.80
   5  -7  12   84.89    6.90
  -5  -7 -12   83.19    5.10
  -5   7 -12   81.09    5.90
   5   7  12   78.39    5.70
 -22  -8  12   17.40    2.40
  22  -8 -12   23.20    3.50
  22   8 -12   19.40    4.00
 -22   8  12   28.10    4.70
 -20  -8  12   26.10    2.80
  20  -8 -12   25.90    3.40
 -20   8  12   23.40    4.30
  20   8 -12   31.90    4.50
 -18  -8  12   28.60    2.90
  18  -8 -12   32.20    3.40
 -18   8  12   36.20    4.80
  18   8 -12   39.80    4.80
 -16  -8  12  105.69    5.70
  16  -8 -12  110.09    6.00
  16   8 -12  104.09    7.40
 -16   8  12  112.39    7.50
 -14  -8  12  143.89    6.90
 -14   8  12  140.49    8.40
  14   8 -12  159.48    9.00
 -12  -8  12   14.00    2.30
  12  -8 -12   11.50    2.00
 -12   8  12   17.60    3.30
  12   8 -12    9.30    2.70
 -10  -8  12    7.10    1.80
  10  -8 -12    5.80    1.50
 -10   8  12    3.90    1.90
  10   8 -12    3.40    1.90
   8  -8 -12   61.59    3.90
  -8  -8  12   71.19    4.80
   8   8 -12   59.59    5.40
  -8   8  12   67.69    3.30
  -8   8  12   67.29    5.10
   6  -8 -12  183.48    7.50
  -6  -8  12  190.88    9.00
   6  -8 -12  183.18    7.90
   6   8 -12  182.58    9.70
  -6   8  12  188.08    9.10
  -6   8  12  193.58    7.50
   4  -8 -12  164.38    6.80
  -4  -8  12  153.38    8.30
   4  -8 -12  141.69    6.90
  -4   8  12  161.88    7.00
  -4   8  12  155.58    7.80
   4   8 -12  162.88    8.90
   2  -8 -12   87.99    5.10
   2  -8 -12   97.59    4.90
  -2  -8  12   81.49    6.00
  -2   8  12   84.99    5.00
  -2   8  12   79.49    5.20
   2   8 -12   88.99    6.30
   0  -8 -12   98.09    5.10
   0  -8  12  103.19    6.90
   0  -8 -12   83.59    5.20
   0  -8  12   97.89    7.00
   0   8  12   97.69    5.60
   0   8 -12   82.99    6.20
  -2  -8 -12  115.59    6.40
   2  -8  12  120.99    8.00
   2  -8  12  119.69    8.20
  -2  -8 -12  120.49    6.00
   2   8  12  116.69    6.60
  -2   8 -12  112.89    7.30
  -4  -8 -12   67.99    4.80
   4  -8  12   69.59    6.40
   4  -8  12   64.59    6.20
  -4  -8 -12   64.09    4.40
  -4   8 -12   64.59    5.50
   4   8  12   63.09    5.00
  -6  -8 -12   42.90    4.20
  -6  -8 -12   43.80    3.80
   6  -8  12   40.50    5.40
   6   8  12   48.40    4.60
 -21  -9  12    0.60    1.30
  21  -9 -12    2.50    1.80
  21   9 -12    1.30    2.10
 -21   9  12   -0.20    2.10
  19  -9 -12    0.40    1.30
 -19  -9  12    1.40    1.20
 -19   9  12   -0.30    1.80
  19   9 -12    2.60    2.10
 -17  -9  12    2.90    1.40
  17  -9 -12   -1.10    1.20
  17   9 -12   -0.20    1.70
 -17   9  12    0.80    1.70
  15  -9 -12    5.80    1.70
 -15  -9  12    3.10    1.50
 -15   9  12    7.20    2.50
  15   9 -12    5.90    2.50
 -13  -9  12   49.10    3.80
  13  -9 -12   54.49    3.90
  13   9 -12   51.99    5.40
 -13   9  12   69.89    5.60
  11  -9 -12    1.60    1.00
 -11  -9  12    2.90    1.50
  11   9 -12    3.00    1.80
 -11   9  12    4.50    2.20
   9  -9 -12   14.70    2.10
  -9  -9  12   15.00    2.60
  -9   9  12   15.80    3.10
   9   9 -12   14.90    3.20
   7  -9 -12   20.50    2.40
  -7  -9  12   22.50    3.20
  -7   9  12   18.10    3.20
   7   9 -12   24.10    3.80
  -7   9  12   25.60    2.00
   5  -9 -12   68.09    4.10
  -5  -9  12   72.39    5.40
   5  -9 -12   72.49    4.50
  -5   9  12   83.79    5.60
  -5   9  12   82.39    4.30
   5   9 -12   76.99    6.00
   3  -9 -12   25.40    2.80
   3  -9 -12   24.20    2.40
  -3  -9  12   28.10    3.80
  -3   9  12   29.30    3.40
  -3   9  12   25.50    2.70
   3   9 -12   26.20    3.90
  -1  -9  12    5.20    2.40
  -1  -9  12    7.10    2.40
   1  -9 -12    6.00    1.60
   1  -9 -12    4.30    1.50
  -1   9  12    6.80    2.00
   1   9 -12    7.00    2.50
  -1  -9 -12   26.50    2.70
   1  -9  12   22.70    3.90
  -1  -9 -12   23.70    3.00
   1  -9  12   28.30    4.20
   1   9  12   29.80    3.30
  -1   9 -12   24.80    3.80
   3  -9  12   40.60    5.10
   3  -9  12   45.70    5.30
  -3  -9 -12   38.90    3.40
  -3  -9 -12   44.10    4.00
  -3   9 -12   34.80    4.50
   3   9  12   42.90    4.10
  -5  -9 -12    1.10    1.40
 -20 -10  12    8.90    2.10
  20 -10 -12    6.90    2.30
  20  10 -12    9.90    3.10
 -20  10  12    3.40    2.60
  18 -10 -12    8.00    2.20
 -18 -10  12    7.70    1.90
  18  10 -12    9.80    3.00
 -18  10  12    7.30    2.80
 -16 -10  12   20.20    2.70
  16 -10 -12   17.20    2.80
 -16  10  12   18.30    3.90
  16  10 -12   22.90    4.20
 -14 -10  12   13.80    2.40
 -14  10  12   10.20    2.90
  14  10 -12    9.70    3.00
 -12 -10  12    4.00    1.70
  12 -10 -12    4.20    1.50
 -12  10  12    5.70    2.30
  12  10 -12    2.80    2.10
  10 -10 -12    0.90    1.00
 -10 -10  12    0.40    1.20
  10  10 -12    2.70    1.80
 -10  10  12   -1.00    1.40
  -8 -10  12   11.80    2.50
   8 -10 -12    9.60    1.90
   8  10 -12   16.00    3.30
  -8  10  12   16.80    3.20
  -6 -10  12   16.40    3.00
   6 -10 -12   17.40    2.30
  -6  10  12   20.20    3.30
   6  10 -12   18.60    3.60
   4 -10 -12    1.20    1.00
   4 -10 -12   -0.40    0.80
  -4 -10  12   -0.30    1.40
  -4  10  12   -0.30    0.90
   4  10 -12    0.00    1.70
  -4  10  12   -0.10    1.30
  -2 -10  12   28.20    4.00
   2 -10 -12   14.60    2.40
   2 -10 -12   21.10    2.40
  -2  10  12   27.40    2.80
   2  10 -12   23.00    3.90
   0 -10  12    3.10    2.00
   0 -10  12    1.00    1.90
   0 -10 -12    0.50    1.00
   0 -10 -12    0.20    1.10
   0  10 -12    1.60    1.80
   0  10  12    2.10    1.50
  -2 -10 -12    9.70    2.20
  -2 -10 -12    5.50    1.60
   2 -10  12    7.70    2.90
   2 -10  12    8.60    3.10
  -2  10 -12   10.60    3.00
   2  10  12    8.80    2.30
  19 -11 -12    4.00    2.00
 -19 -11  12    2.80    1.70
 -19  11  12    1.60    2.40
  19  11 -12    3.50    2.50
 -17 -11  12   11.00    2.30
  17 -11 -12    5.30    2.10
  17  11 -12   11.00    3.30
 -17  11  12    3.60    2.40
  15 -11 -12  129.49    6.80
 -15 -11  12  133.69    6.90
 -15  11  12  112.99    8.10
  15  11 -12   97.09    7.80
 -13 -11  12  116.89    6.50
  13 -11 -12  103.79    6.10
 -13  11  12  114.49    7.80
  13  11 -12   99.99    7.60
 -11 -11  12  141.19    7.40
  11 -11 -12  126.49    6.80
 -11  11  12  153.08    8.90
  11  11 -12  149.19    9.10
   9 -11 -12   66.49    4.50
  -9 -11  12   73.49    5.30
  -9  11  12   84.89    6.20
   9  11 -12   78.69    6.50
   7 -11 -12   54.09    4.00
  -7 -11  12   64.29    5.10
  -7  11  12   60.89    5.20
   7  11 -12   63.89    6.10
  -5 -11  12    4.30    2.10
   5 -11 -12    2.00    1.20
   5 -11 -12    0.90    1.00
   5  11 -12   -0.20    2.00
  -5  11  12    3.30    2.00
   3 -11 -12   10.50    1.90
   3 -11 -12   10.60    2.20
  -3 -11  12   14.00    3.00
  -3  11  12   14.80    2.80
   3  11 -12   12.00    3.20
  -1 -11  12   74.79    6.20
   1 -11 -12   68.49    4.70
   1  11 -12   74.79    6.50
  -1  11  12   67.89    4.40
  -1 -11 -12   31.50    3.50
   1 -11  12   26.00    4.50
   1 -11  12   33.50    4.70
  -1 -11 -12   29.20    3.00
   1  11  12   31.00    3.30
  -1  11 -12   24.70    4.20
 -16 -12  12   71.69    5.10
  16 -12 -12   81.49    5.40
 -16  12  12   82.59    6.90
  16  12 -12   68.69    6.80
  14 -12 -12   75.39    5.10
 -14 -12  12   76.89    5.20
 -14  12  12   75.99    6.60
  14  12 -12   67.39    6.70
 -12 -12  12   66.69    4.90
  12 -12 -12   64.69    4.60
  12  12 -12   51.79    5.90
 -12  12  12   67.79    6.20
 -10 -12  12   36.40    3.80
  10 -12 -12   30.10    3.20
 -10  12  12   41.00    4.80
  10  12 -12   31.00    4.80
  -8 -12  12   27.20    3.60
   8 -12 -12   26.10    3.00
   8  12 -12   26.50    4.40
  -8  12  12   26.20    4.00
  -6 -12  12  187.88    9.60
   6 -12 -12  176.68    8.40
   6  12 -12  185.98   10.80
  -6  12  12  202.88   10.00
   4 -12 -12   88.69    5.00
  -4 -12  12   75.19    6.10
   4 -12 -12   91.29    5.40
   4  12 -12   99.59    7.60
  -4  12  12   89.39    6.30
  -2 -12  12   95.79    7.10
   2 -12 -12   93.39    5.70
   2 -12 -12   99.09    5.40
   2  12 -12  102.69    7.60
   0 -12 -12   81.29    5.40
 -13 -13  12   74.89    5.40
 -13  13  12   85.29    6.90
  13  13 -12   77.09    7.10
  11 -13 -12   32.70    3.50
 -11 -13  12   37.60    4.00
  11  13 -12   45.70    5.60
 -11  13  12   44.10    5.30
  -9 -13  12   80.79    5.80
   9 -13 -12   68.09    4.80
   9  13 -12   77.99    7.20
  -9  13  12   80.39    6.40
   7 -13 -12   50.39    4.10
  -7 -13  12   58.99    5.10
   7  13 -12   68.79    6.70
  -7  13  12   56.59    5.60
   5 -13 -12  227.28   10.10
  -5 -13  12  227.08   11.50
   5  13 -12  242.88   13.00
  -5  13  12  257.67   11.70
 -26   0  13   -1.00    1.80
  26   0 -13    0.00    1.70
  24   0 -13   -0.80    1.40
 -24   0  13    2.10    2.00
  22   0 -13    0.30    1.40
 -22   0  13    0.90    1.80
  20   0 -13   -0.80    1.10
 -20   0  13   -0.90    0.80
 -20   0  13    1.20    1.60
 -18   0  13    0.50    1.40
  18   0 -13    0.20    1.00
 -18   0  13   -0.50    0.90
 -16   0  13   -1.90    0.80
 -16   0  13    1.30    1.50
  16   0 -13   -0.80    0.70
 -14   0  13    1.50    1.40
  14   0 -13   -0.20    0.80
 -14   0  13   -0.50    0.90
  12   0 -13    0.40    0.60
 -12   0  13    0.20    1.00
 -12   0  13    2.80    1.50
  10   0 -13   -0.30    0.50
 -10   0  13   -0.70    1.00
 -10   0  13    1.40    1.20
  10   0 -13   -1.20    0.90
 -10   0  13   -1.00    1.00
   8   0 -13   -0.40    1.10
  -8   0  13   -0.40    1.00
  -8   0  13    0.90    1.00
   8   0 -13   -0.20    0.50
  -8   0  13   -0.30    1.00
  -6   0  13   -0.70    1.10
  -6   0  13    0.60    1.20
  -6   0  13   -0.60    1.00
   6   0 -13   -0.80    0.40
   6   0 -13   -0.30    1.10
   6   0 -13    0.40    0.60
   4   0 -13   -0.60    0.50
  -4   0  13   -0.70    0.90
   4   0 -13    0.40    0.70
  -4   0  13    0.20    1.30
   4   0 -13   -0.40    1.10
  -4   0  13    1.30    1.30
   2   0 -13    0.30    0.70
  -2   0  13   -1.40    1.30
   2   0 -13   -0.60    1.00
   2   0 -13   -0.50    0.60
  -2   0  13   -0.30    1.00
  -2   0  13    0.80    1.40
   0   0 -13    0.90    1.20
   0   0 -13    1.60    1.00
   0   0 -13    0.60    0.80
   0   0  13    2.70    1.80
   0   0  13    3.60    1.90
   0   0  13    1.30    1.10
  -2   0 -13   -0.40    0.80
   2   0  13   -0.50    1.50
   4   0  13    0.20    1.70
  -4   0 -13    0.10    0.90
  -6   0 -13    0.40    1.20
   6   0  13    3.30    2.40
  25  -1 -13    0.30    1.70
 -25  -1  13   -0.40    1.90
 -25   1  13   -1.80    1.60
  25   1 -13    1.10    1.60
  23  -1 -13    2.40    1.60
 -23  -1  13    0.80    0.90
 -23  -1  13    2.60    2.10
  23   1 -13   -1.00    1.30
 -23   1  13   -0.60    1.80
 -21  -1  13    6.50    2.50
  21  -1 -13    4.10    1.80
 -21  -1  13    5.00    1.30
 -21   1  13    6.30    2.40
  21   1 -13    6.90    2.00
  19  -1 -13   57.19    3.80
 -19  -1  13   58.79    5.40
 -19  -1  13   47.30    3.00
  19   1 -13   42.50    3.40
 -19   1  13   48.80    2.90
 -19   1  13   51.39    5.10
 -17  -1  13  129.99    5.60
 -17  -1  13  129.39    7.70
  17  -1 -13  119.59    5.80
 -17   1  13  126.49    7.70
 -17   1  13  121.09    5.30
  17   1 -13  128.49    5.80
 -15  -1  13   79.89    5.70
 -15  -1  13   72.99    4.00
  15  -1 -13   71.49    4.00
  15   1 -13   73.69    3.90
 -15   1  13   69.39    5.50
 -15   1  13   82.89    4.10
 -13  -1  13  162.08    8.60
 -13  -1  13  164.68    7.00
 -13   1  13  161.18    6.80
 -13   1  13  168.88    8.70
  13   1 -13  166.18    6.40
  13   1 -13  165.68    8.60
 -11  -1  13   52.79    3.60
 -11  -1  13   53.49    4.50
  11  -1 -13   50.39    3.00
 -11   1  13   53.19    3.70
  11   1 -13   60.09    4.70
  11   1 -13   52.09    2.80
 -11   1  13   52.79    4.40
 -11   1  13   51.69    3.50
   9  -1 -13    4.40    1.00
  -9  -1  13    3.90    1.50
  -9  -1  13    3.90    1.60
   9   1 -13    2.70    1.50
  -9   1  13    4.70    1.70
   9   1 -13    6.40    1.00
  -9   1  13    5.90    1.90
  -9   1  13    4.60    1.50
  -7  -1  13    0.60    1.30
   7  -1 -13    2.00    0.90
   7  -1 -13    0.80    0.60
  -7  -1  13    2.30    1.40
  -7   1  13   -0.80    0.90
   7   1 -13    1.90    0.70
  -7   1  13    0.70    1.20
  -7   1  13   -0.50    1.00
   7   1 -13    0.10    1.10
   7   1 -13    1.80    0.60
   5  -1 -13    9.80    1.30
  -5  -1  13   10.80    2.40
  -5  -1  13   11.40    2.50
   5  -1 -13   13.40    1.70
  -5   1  13   14.30    2.60
   5   1 -13    9.90    1.20
  -5   1  13   11.30    2.30
   5   1 -13   12.30    2.40
   5   1 -13   11.70    1.40
  -5   1  13   13.10    2.40
   3  -1 -13   13.30    1.60
  -3  -1  13    7.10    2.30
   3  -1 -13    9.60    1.60
  -3  -1  13    9.90    2.40
   3   1 -13   12.00    1.40
  -3   1  13   12.10    2.20
  -3   1  13   18.10    2.90
  -3   1  13   10.90    2.60
   3   1 -13   13.10    1.60
   3   1 -13    9.90    2.20
  -1  -1  13    3.90    2.00
   1  -1 -13    3.80    1.10
   1  -1 -13    2.50    1.10
  -1  -1  13    3.40    1.80
   1   1 -13    4.00    1.20
   1   1 -13    2.10    0.90
  -1   1  13    1.40    1.20
  -1   1  13    3.20    1.80
  -1   1  13    3.80    1.90
   1   1 -13    1.40    1.30
   1  -1  13    7.30    2.40
  -1  -1 -13    3.10    1.30
   1  -1  13   -0.30    1.30
  -1  -1 -13    1.80    1.00
  -1   1 -13    1.70    1.30
  -1   1 -13    2.10    1.00
   1   1  13    4.10    2.10
  -3  -1 -13   11.90    1.90
   3  -1  13   14.00    3.20
  -3   1 -13   11.70    1.90
   3   1  13   20.70    3.70
  -5  -1 -13    1.10    1.20
   5  -1  13    1.80    1.90
   5   1  13    0.20    1.70
  -5   1 -13    3.10    1.30
  -7  -1 -13    7.50    1.90
   7  -1  13    6.10    2.80
   7   1  13    5.30    2.60
  -7   1 -13    5.10    1.70
 -26  -2  13    8.10    2.90
  26  -2 -13   13.60    3.20
 -26  -2  13   16.70    3.00
  26   2 -13   13.10    2.90
 -26   2  13   19.60    4.00
 -24  -2  13   29.70    2.50
 -24  -2  13   26.70    4.20
  24  -2 -13   33.70    3.70
 -24   2  13   29.80    4.50
  24   2 -13   26.60    3.40
  22  -2 -13   90.49    5.60
 -22  -2  13   91.79    4.50
 -22  -2  13   85.49    6.60
  22   2 -13   80.79    5.20
 -22   2  13   85.89    6.70
 -20  -2  13  129.09    5.50
  20  -2 -13  115.49    6.20
 -20  -2  13  124.69    7.80
  20   2 -13  109.69    5.90
 -20   2  13  115.69    7.70
 -18  -2  13   61.19    5.30
 -18  -2  13   68.59    3.80
  18  -2 -13   70.89    4.30
 -18   2  13   71.19    3.50
  18   2 -13   69.99    4.10
 -18   2  13   70.99    5.70
  16  -2 -13   23.70    2.40
 -16  -2  13   21.80    3.50
 -16  -2  13   22.60    2.30
  16   2 -13   26.20    3.70
 -16   2  13   24.70    2.10
 -16   2  13   29.00    3.90
  16   2 -13   28.80    2.40
  14  -2 -13    8.60    1.50
 -14  -2  13    7.80    1.60
 -14   2  13    5.50    2.00
  14   2 -13    7.10    1.30
  14   2 -13    3.50    1.80
 -14   2  13    8.30    1.50
 -14   2  13    5.20    1.30
  12  -2 -13    0.00    0.60
 -12  -2  13    2.20    1.20
 -12   2  13    0.60    1.20
  12   2 -13    1.00    1.40
 -12   2  13    0.50    1.10
  12   2 -13    0.10    0.60
 -12   2  13    0.20    0.90
  10  -2 -13    3.20    1.00
 -10  -2  13    5.20    1.60
  10   2 -13    6.20    2.00
  10   2 -13    5.30    0.90
 -10   2  13    4.00    1.40
 -10   2  13    6.40    1.70
 -10   2  13    4.80    1.70
  -8  -2  13   -0.80    0.90
  -8  -2  13   -0.70    1.10
   8  -2 -13   -0.70    0.50
  -8   2  13    0.00    1.00
   8   2 -13    0.30    0.50
   8   2 -13   -1.00    1.00
  -8   2  13    1.20    1.10
  -8   2  13    0.40    1.20
   6  -2 -13    0.80    0.70
   6  -2 -13    1.90    0.90
  -6  -2  13    1.80    1.40
  -6  -2  13    2.10    1.40
   6   2 -13    0.80    0.60
  -6   2  13    1.00    1.00
   6   2 -13    1.60    0.60
  -6   2  13    1.40    1.30
   6   2 -13    0.10    1.20
  -6   2  13    1.80    1.20
  -4  -2  13  223.88   10.20
  -4  -2  13  215.38   10.30
   4  -2 -13  211.38    8.50
   4  -2 -13  226.48    8.20
   4   2 -13  214.58    7.60
   4   2 -13  225.68    9.90
   4   2 -13  214.88    8.00
  -4   2  13  216.18    9.50
  -4   2  13  218.58    9.90
  -4   2  13  230.48   10.30
  -2  -2  13   58.89    4.80
  -2  -2  13   52.99    4.80
   2  -2 -13   58.49    3.40
   2  -2 -13   53.09    3.50
   2   2 -13   61.39    3.10
  -2   2  13   55.09    4.80
   2   2 -13   56.89    4.30
  -2   2  13   46.00    3.70
   2   2 -13   51.29    3.20
   0  -2  13   50.09    4.90
   0  -2 -13   58.69    3.60
   0  -2 -13   55.59    3.80
   0  -2  13   56.79    5.30
   0   2 -13   56.09    4.30
   0   2 -13   51.69    3.40
   0   2  13   61.79    4.00
   0   2 -13   56.09    3.30
   0   2  13   56.09    5.10
   2  -2  13    4.60    2.30
   2  -2  13    4.60    2.20
  -2  -2 -13    5.00    1.50
  -2  -2 -13    1.90    1.00
  -2   2 -13    5.00    1.30
   2   2  13    2.40    2.10
  -2   2 -13    4.00    1.60
  -4  -2 -13   90.99    5.30
   4  -2  13  105.49    7.70
   4  -2  13   91.79    7.00
   4   2  13   96.09    7.30
  -4   2 -13  103.09    5.30
   6  -2  13    0.40    1.90
  -6  -2 -13    0.00    1.10
  -6   2 -13    0.20    1.10
   6   2  13   -2.00    1.60
 -25  -3  13   97.49    7.00
 -25  -3  13   72.99    4.20
  25  -3 -13   78.49    5.70
 -25  -3  13   78.09    5.40
 -25   3  13   72.49    6.70
 -23  -3  13   31.10    3.40
 -23  -3  13   25.70    2.50
  23  -3 -13   36.50    3.80
 -23  -3  13   25.60    4.20
 -23   3  13   32.80    4.70
  23   3 -13   25.40    3.10
 -21  -3  13   30.20    4.40
 -21  -3  13   31.40    2.50
  21  -3 -13   36.30    3.60
  21   3 -13   36.70    3.30
 -21   3  13   32.20    4.50
 -19  -3  13  195.38    7.80
 -19  -3  13  187.48   10.10
  19  -3 -13  193.58    8.50
  19   3 -13  199.68   10.30
 -19   3  13  205.68   10.60
  19   3 -13  192.58    8.20
  17  -3 -13   47.00    3.40
 -17  -3  13   53.49    3.40
 -17  -3  13   48.40    5.00
  17   3 -13   43.70    4.70
  17   3 -13   51.99    3.30
 -17   3  13   46.10    4.90
 -15  -3  13   57.69    3.60
  15  -3 -13   56.19    3.60
  15   3 -13   50.99    5.00
 -15   3  13   54.99    5.00
 -15   3  13   56.09    3.30
 -15   3  13   53.89    3.10
  15   3 -13   64.49    3.40
  13  -3 -13   69.49    3.80
 -13  -3  13   63.59    4.00
  13   3 -13   62.39    3.20
 -13   3  13   66.99    5.20
  13   3 -13   68.19    5.40
 -13   3  13   63.89    3.70
 -13   3  13   61.99    3.50
  11  -3 -13   95.69    4.60
 -11  -3  13   90.69    5.10
 -11   3  13  100.69    5.00
  11   3 -13   93.99    3.90
  11   3 -13   87.29    6.00
 -11   3  13   90.69    4.70
 -11   3  13   89.49    6.00
  -9  -3  13   74.19    4.80
   9  -3 -13   79.19    4.00
  -9   3  13   81.29    4.60
  -9   3  13   67.79    5.10
  -9   3  13   76.69    4.60
   9   3 -13   78.69    3.30
   9   3 -13   80.29    5.60
  -7  -3  13    2.80    1.40
   7  -3 -13    2.20    0.90
   7  -3 -13    1.30    0.80
  -7   3  13    1.00    1.10
  -7   3  13    2.20    1.40
  -7   3  13    0.40    1.20
   7   3 -13    0.20    1.30
   7   3 -13    2.10    0.60
   5  -3 -13  100.79    4.50
   5  -3 -13   99.59    4.80
  -5  -3  13   80.29    5.80
  -5  -3  13   98.09    6.00
   5   3 -13   96.79    4.10
  -5   3  13   94.29    5.90
   5   3 -13   99.49    3.90
   5   3 -13   87.49    5.80
  -5   3  13   94.39    5.70
   3  -3 -13   40.00    2.70
  -3  -3  13   38.40    4.10
   3  -3 -13   37.10    2.90
  -3  -3  13   37.60    4.20
   3   3 -13   40.30    2.30
   3   3 -13   43.10    4.00
   3   3 -13   36.70    2.40
  -3   3  13   38.30    3.50
  -3   3  13   36.70    4.00
  -1  -3  13   57.19    5.00
   1  -3 -13   49.70    3.20
  -1  -3  13   46.20    4.80
   1  -3 -13   45.20    3.40
  -1   3  13   47.00    3.60
  -1   3  13   42.90    4.40
   1   3 -13   44.90    2.70
   1   3 -13   49.10    4.20
   1   3 -13   49.00    3.00
  -1  -3 -13   45.20    3.60
   1  -3  13   51.29    5.10
  -1  -3 -13   52.99    3.50
   1  -3  13   47.00    5.00
   1   3  13   53.19    5.10
  -1   3 -13   49.70    3.10
  -1   3 -13   50.29    4.30
   3  -3  13   13.30    3.30
  -3  -3 -13   15.30    2.40
  -3  -3 -13    9.30    1.90
   3  -3  13   11.30    3.00
  -3   3 -13   15.30    2.00
  -3   3 -13   14.00    2.50
   3   3  13    7.10    2.60
   5  -3  13   72.19    6.40
  -5  -3 -13   62.49    4.30
   5  -3  13   48.90    5.60
   5   3  13   58.79    5.90
  -5   3 -13   56.99    3.90
  -7  -3 -13   28.40    3.20
   7  -3  13   34.80    5.10
   7   3  13   29.70    4.70
  -7   3 -13   29.30    3.10
 -24  -4  13   37.10    4.90
 -24  -4  13   35.50    2.90
  24  -4 -13   34.00    4.00
 -24  -4  13   34.30    3.50
 -24   4  13   38.30    5.20
  22  -4 -13   70.39    5.00
 -22  -4  13   58.99    5.80
 -22  -4  13   65.19    4.40
 -22  -4  13   62.19    3.80
 -22   4  13   71.69    6.10
 -20  -4  13   63.89    5.80
  20  -4 -13   63.79    4.50
 -20  -4  13   58.29    3.70
  20   4 -13   58.99    4.00
 -20   4  13   48.00    5.30
  20   4 -13   60.09    5.60
 -18  -4  13   63.59    3.80
  18  -4 -13   62.09    4.20
  18   4 -13   62.29    3.70
 -18   4  13   59.19    5.60
  18   4 -13   64.79    5.80
 -16  -4  13   29.70    2.60
  16  -4 -13   31.40    2.80
  16   4 -13   30.30    4.10
 -16   4  13   18.00    3.40
  16   4 -13   28.70    2.30
 -14  -4  13   93.89    4.90
 -14   4  13   88.69    4.10
  14   4 -13   95.09    6.40
 -14   4  13   87.99    4.20
 -14   4  13   98.79    6.50
  14   4 -13   88.89    4.10
  12  -4 -13  182.08    7.40
 -12  -4  13  176.88    7.80
  12   4 -13  184.38    6.50
 -12   4  13  183.58    9.30
 -12   4  13  180.68    7.30
  12   4 -13  178.38    9.30
 -12   4  13  172.58    7.00
  10  -4 -13   81.79    4.40
 -10  -4  13   95.79    5.30
  10   4 -13   87.09    3.60
 -10   4  13   85.49    5.80
  10   4 -13   88.19    6.10
 -10   4  13   96.29    4.90
   8  -4 -13   41.60    2.90
  -8  -4  13   41.90    3.60
   8   4 -13   44.60    4.40
  -8   4  13   39.30    3.40
   8   4 -13   43.10    2.10
  -8   4  13   47.00    4.00
   6  -4 -13   60.29    3.60
  -6  -4  13   62.99    4.60
   6  -4 -13   58.49    3.30
   6   4 -13   60.19    2.70
  -6   4  13   58.89    4.50
  -6   4  13   60.19    4.40
   6   4 -13   56.99    4.80
  -4  -4  13   41.60    4.10
   4  -4 -13   49.00    3.30
   4  -4 -13   42.80    2.80
  -4  -4  13   41.70    4.20
   4   4 -13   40.20    2.30
  -4   4  13   37.80    3.80
   4   4 -13   52.79    4.50
   4   4 -13   38.80    2.10
  -4   4  13   36.90    3.50
  -2  -4  13   63.19    5.20
  -2  -4  13   63.09    5.50
   2  -4 -13   66.59    3.80
   2  -4 -13   61.89    4.00
   2   4 -13   73.79    5.20
   2   4 -13   69.49    3.20
  -2   4  13   62.89    4.30
   2   4 -13   65.99    3.40
  -2   4  13   69.19    5.30
   0  -4 -13   26.20    2.80
   0  -4  13   31.80    4.20
   0  -4 -13   22.90    2.40
   0  -4  13   26.90    3.90
   0   4 -13   35.10    3.70
   0   4 -13   30.80    2.30
   0   4  13   36.00    4.00
  -2  -4 -13   88.59    5.40
   2  -4  13  102.59    7.20
   2  -4  13   95.89    7.20
  -2  -4 -13   97.99    5.20
  -2   4 -13   97.29    6.10
  -2   4 -13   98.59    4.80
   2   4  13   93.39    6.80
   4  -4  13    4.10    2.40
   4  -4  13    2.90    2.10
  -4  -4 -13    4.10    1.50
  -4  -4 -13    5.10    1.70
   4   4  13    1.50    2.10
  -4   4 -13    3.50    1.30
  -6  -4 -13  101.09    5.80
   6  -4  13  103.59    8.10
   6  -4  13   93.09    7.50
  -6   4 -13  101.49    5.50
 -25  -5  13   15.40    2.20
 -25  -5  13   22.90    4.20
  25  -5 -13   18.70    3.50
 -25   5  13   16.60    3.90
  23  -5 -13   58.09    5.00
 -23  -5  13   54.49    3.70
 -23  -5  13   72.39    6.10
 -23   5  13   70.89    6.50
  21  -5 -13   71.19    5.00
 -21  -5  13   71.69    4.20
 -21  -5  13   64.89    6.00
 -21   5  13   61.09    6.10
  21   5 -13   66.29    6.10
 -19  -5  13    5.70    1.60
 -19  -5  13    2.90    1.30
  19  -5 -13    6.90    1.80
  19   5 -13   10.00    2.80
 -19   5  13    6.90    2.50
 -17  -5  13   -0.40    1.00
  17  -5 -13   -0.20    1.10
  17   5 -13    2.10    1.90
 -17   5  13   -0.30    1.50
  15  -5 -13  175.38    7.50
 -15  -5  13  164.48    7.40
 -15   5  13  161.38    9.20
  15   5 -13  178.88    9.50
 -13  -5  13    5.40    1.60
  13  -5 -13    4.70    1.40
 -13   5  13    4.60    2.10
  13   5 -13    2.90    1.70
 -11  -5  13   10.50    2.10
  11  -5 -13    7.40    1.50
 -11   5  13    7.70    2.40
 -11   5  13    6.20    1.50
  11   5 -13    7.40    2.30
  -9  -5  13   79.49    5.00
   9  -5 -13   83.39    4.40
  -9   5  13   89.49    4.80
  -9   5  13   69.69    5.20
   9   5 -13   87.59    6.00
   7  -5 -13  178.68    7.60
   7  -5 -13  186.48    7.30
  -7  -5  13  197.18    9.00
  -7   5  13  183.98    9.00
  -7   5  13  192.88    8.40
   7   5 -13  184.88    9.40
   5  -5 -13    7.10    1.60
   5  -5 -13    6.90    1.30
  -5  -5  13    6.90    2.20
  -5  -5  13    7.60    2.20
  -5   5  13    7.30    2.00
   5   5 -13    6.10    2.20
  -5   5  13    3.30    1.60
  -3  -5  13  134.79    8.10
  -3  -5  13  149.69    8.10
   3  -5 -13  135.89    6.50
   3  -5 -13  141.99    6.20
   3   5 -13  132.59    7.70
  -3   5  13  137.99    7.00
  -3   5  13  146.49    7.70
  -1  -5  13   27.70    4.00
   1  -5 -13   34.40    2.70
   1  -5 -13   34.30    3.10
  -1  -5  13   42.50    4.60
  -1   5  13   37.90    3.30
   1   5 -13   34.10    3.90
  -1   5  13   33.00    3.90
  -1  -5 -13   24.70    2.50
   1  -5  13   20.50    3.80
  -1  -5 -13   21.80    2.70
   1  -5  13   21.10    3.80
  -1   5 -13   29.40    3.50
   1   5  13   25.10    3.70
   3  -5  13   74.49    6.20
  -3  -5 -13   64.99    4.30
   3  -5  13   71.09    6.30
  -3  -5 -13   64.89    4.60
  -3   5 -13   64.49    5.10
  -5  -5 -13   25.30    3.20
   5  -5  13   16.30    3.70
  -5  -5 -13   17.50    2.50
   5  -5  13   20.90    4.20
   5   5  13   13.90    3.10
 -24  -6  13    2.90    1.40
 -24  -6  13    3.20    2.30
  24  -6 -13    4.10    2.20
 -24   6  13    2.30    2.50
  22  -6 -13    4.60    1.90
 -22  -6  13    1.30    1.20
 -22  -6  13    2.30    2.10
  22   6 -13    6.00    2.50
 -22   6  13    2.30    2.20
  20  -6 -13    1.70    1.60
 -20  -6  13    3.50    1.40
  20   6 -13    6.70    2.50
 -20   6  13    1.90    2.20
 -18  -6  13   -0.30    1.00
  18  -6 -13    2.10    1.20
  18   6 -13    0.20    1.60
 -18   6  13   -1.80    1.40
 -16  -6  13  111.29    5.70
  16  -6 -13  110.69    5.80
 -16   6  13  119.29    7.70
  16   6 -13  118.49    7.70
  14  -6 -13   64.49    4.10
 -14  -6  13   59.79    4.10
 -14   6  13   61.19    5.50
  14   6 -13   57.49    5.50
  12  -6 -13   75.29    4.30
 -12  -6  13   81.59    4.90
  12   6 -13   78.29    6.00
 -12   6  13   61.39    5.30
 -10  -6  13   99.69    5.70
  10  -6 -13   92.09    4.80
 -10   6  13   86.89    6.00
  10   6 -13   88.39    6.30
   8  -6 -13   70.19    4.10
  -8  -6  13   74.99    5.10
   8   6 -13   70.99    5.60
  -8   6  13   72.89    5.30
  -8   6  13   74.59    4.50
   6  -6 -13  112.49    5.40
  -6  -6  13  104.19    6.30
   6  -6 -13   96.19    4.90
  -6   6  13  103.19    6.20
  -6   6  13  115.49    6.10
   6   6 -13  105.89    6.80
   4  -6 -13   38.50    3.10
   4  -6 -13   34.40    2.70
  -4  -6  13   29.20    3.80
  -4  -6  13   32.50    3.80
   4   6 -13   39.90    4.30
  -4   6  13   36.30    3.60
   2  -6 -13   10.80    1.70
  -2  -6  13   13.70    3.10
  -2  -6  13   13.60    2.90
   2  -6 -13   13.60    2.20
  -2   6  13   13.90    2.30
   2   6 -13   10.80    2.70
   0  -6  13   30.30    4.30
   0  -6 -13   24.40    2.50
   0  -6 -13   29.20    3.00
   0  -6  13   28.30    4.10
   0   6 -13   30.90    3.90
   2  -6  13   18.00    3.70
  -2  -6 -13   16.60    2.30
  -2  -6 -13   24.70    3.00
   2  -6  13   16.30    3.50
   2   6  13   12.50    2.70
  -2   6 -13   21.80    3.40
  -4  -6 -13   10.30    2.00
   4  -6  13   18.40    3.80
  -4  -6 -13   12.00    2.50
   4  -6  13   12.10    3.40
  -4   6 -13   17.20    3.10
   4   6  13   11.20    2.70
 -23  -7  13   -0.10    1.20
  23  -7 -13    1.00    1.70
 -23  -7  13    0.80    2.00
  23   7 -13    3.90    2.50
 -23   7  13    1.70    2.30
  21  -7 -13    5.80    2.00
 -21  -7  13    2.70    1.40
 -21   7  13    4.00    2.40
  21   7 -13    0.30    1.90
  19  -7 -13   15.40    2.70
 -19  -7  13   12.20    2.10
  19   7 -13    6.50    2.60
 -19   7  13    7.60    2.60
 -17  -7  13    7.10    1.80
  17  -7 -13    5.90    1.80
  17   7 -13    1.40    1.70
 -17   7  13    7.60    2.60
  15  -7 -13    0.80    1.30
 -15  -7  13    1.70    1.30
 -15   7  13   -0.40    1.50
  15   7 -13    3.60    2.00
  13  -7 -13   14.40    2.20
 -13  -7  13   14.40    2.40
  13   7 -13   16.20    3.30
 -13   7  13   17.40    3.20
  11  -7 -13    1.60    1.00
 -11  -7  13    2.50    1.60
 -11   7  13    1.40    1.60
  11   7 -13   -0.40    1.50
   9  -7 -13    5.60    1.50
  -9  -7  13    2.10    1.50
  -9   7  13    4.40    1.10
   9   7 -13    7.00    2.40
  -9   7  13    2.00    1.60
  -7  -7  13   44.90    4.20
   7  -7 -13   46.00    3.30
   7  -7 -13   51.19    3.20
   7   7 -13   42.00    4.60
  -7   7  13   46.00    4.40
  -7   7  13   42.40    3.10
  -5  -7  13    2.30    1.70
   5  -7 -13    1.90    1.10
   5  -7 -13    0.90    0.90
  -5   7  13    2.50    1.30
   5   7 -13    0.00    1.30
  -5   7  13   -0.60    1.10
  -3  -7  13   -1.20    1.40
   3  -7 -13   -0.60    0.70
   3  -7 -13   -0.20    0.80
  -3  -7  13   -1.30    1.40
   3   7 -13    0.60    1.70
  -3   7  13   -0.90    1.10
  -3   7  13    1.00    1.50
  -1  -7  13    0.50    1.80
   1  -7 -13   -0.30    0.80
  -1  -7  13    1.20    1.70
   1  -7 -13   -0.20    0.80
   1   7 -13    0.70    1.50
  -1   7  13    0.30    1.30
  -1  -7 -13    4.30    1.60
   1  -7  13    5.40    2.50
   1  -7  13    3.60    2.10
  -1  -7 -13    4.50    1.40
  -1   7 -13    2.00    1.80
   1   7  13    3.60    1.80
   3  -7  13    7.70    2.70
  -3  -7 -13    4.20    1.50
  -3  -7 -13    6.20    1.90
   3  -7  13    4.80    2.50
   3   7  13    7.00    2.30
  -3   7 -13    6.50    2.50
  22  -8 -13   18.40    3.30
 -22  -8  13   19.00    2.60
 -22   8  13   12.30    3.40
  22   8 -13   14.90    3.70
 -20  -8  13    6.30    1.80
  20  -8 -13    7.00    2.20
 -20   8  13    5.70    2.50
  20   8 -13   10.00    2.90
  18  -8 -13    3.40    1.60
 -18  -8  13    4.60    1.60
 -18   8  13    5.10    2.30
  18   8 -13    1.90    1.90
  16  -8 -13    7.50    2.00
 -16  -8  13    6.50    1.80
  16   8 -13    2.40    2.10
 -16   8  13    4.20    2.20
  14  -8 -13   16.70    2.40
 -14  -8  13   15.50    2.50
  14   8 -13   13.90    3.10
 -14   8  13   18.30    3.60
 -12  -8  13   54.89    4.20
  12  -8 -13   59.79    4.00
 -12   8  13   63.09    5.30
  12   8 -13   52.09    5.30
  10  -8 -13   43.60    3.40
 -10  -8  13   41.50    4.00
  10   8 -13   48.20    5.10
 -10   8  13   53.69    5.00
  -8  -8  13   -0.40    1.20
   8  -8 -13    1.10    1.00
   8   8 -13   -1.30    1.30
  -8   8  13    0.70    1.50
   6  -8 -13   14.00    1.90
  -6  -8  13   10.80    2.60
   6  -8 -13   18.40    2.40
  -6   8  13   11.80    2.70
  -6   8  13   13.00    1.90
   6   8 -13   13.90    3.20
  -4  -8  13   20.80    3.50
   4  -8 -13   22.80    2.60
   4  -8 -13   17.20    2.10
   4   8 -13   18.90    3.40
  -4   8  13   24.70    2.70
  -4   8  13   20.30    3.00
   2  -8 -13   39.10    3.50
  -2  -8  13   42.20    4.70
  -2  -8  13   33.40    4.40
   2  -8 -13   40.70    3.10
   2   8 -13   40.60    4.60
  -2   8  13   40.40    3.60
   0  -8 -13    1.90    1.20
   0  -8  13    6.90    2.70
   0  -8  13    0.90    2.00
   0  -8 -13    5.20    1.70
   0   8  13    3.90    1.80
   0   8 -13    3.50    2.10
  -2  -8 -13    9.90    2.20
   2  -8  13    5.90    2.60
  -2  -8 -13    9.30    1.90
   2  -8  13    4.40    2.50
   2   8  13    9.00    2.40
  -2   8 -13    8.90    2.70
  -4  -8 -13   -2.00    1.00
  21  -9 -13   83.89    5.90
  21   9 -13   83.49    7.20
 -21   9  13   89.99    7.50
 -19  -9  13    2.30    1.40
  19  -9 -13    2.10    1.50
 -19   9  13    1.00    1.80
  19   9 -13    2.50    1.90
 -17  -9  13   22.90    2.90
  17  -9 -13   20.30    2.90
 -17   9  13   20.70    4.00
  17   9 -13   25.30    4.30
 -15  -9  13   36.90    3.50
  15  -9 -13   37.50    3.50
  15   9 -13   34.20    4.80
 -15   9  13   38.30    4.80
 -13  -9  13   21.80    2.90
  13  -9 -13   18.60    2.50
 -13   9  13   12.40    3.10
  13   9 -13   21.10    3.80
 -11  -9  13   13.20    2.50
  11  -9 -13   11.90    2.10
  11   9 -13    9.70    2.90
 -11   9  13   11.00    2.80
  -9  -9  13   16.40    2.80
   9  -9 -13   14.80    2.20
  -9   9  13   14.10    3.10
   9   9 -13   21.80    3.90
  -7  -9  13  163.58    8.50
   7  -9 -13  147.09    7.10
  -7   9  13  164.28    8.70
   7   9 -13  153.68    9.10
   5  -9 -13    1.20    1.10
  -5  -9  13    0.20    1.60
   5  -9 -13    0.80    1.00
  -5   9  13    1.10    1.40
   5   9 -13    0.60    1.80
  -5   9  13   -0.60    1.00
  -3  -9  13  121.49    7.90
   3  -9 -13  132.39    6.30
   3  -9 -13  135.09    6.80
  -3   9  13  137.39    6.60
   3   9 -13  142.19    8.60
  -3   9  13  138.99    7.40
  -1  -9  13   31.50    4.50
  -1  -9  13   33.30    4.50
   1  -9 -13   32.30    3.00
   1  -9 -13   30.40    3.30
  -1   9  13   33.40    3.40
   1   9 -13   32.90    4.40
  -1  -9 -13   12.50    2.40
   1  -9  13    8.60    3.00
  -1  -9 -13   11.50    2.00
   1  -9  13   12.30    3.20
   1   9  13   10.30    2.40
  -1   9 -13   12.00    2.90
  20 -10 -13   20.10    3.30
 -20 -10  13   17.60    2.70
 -20  10  13   14.20    3.70
  20  10 -13   17.40    4.00
  18 -10 -13   20.50    3.10
 -18 -10  13   26.00    3.10
  18  10 -13   27.10    4.60
 -18  10  13   30.40    4.80
 -16 -10  13  101.69    6.00
  16 -10 -13  106.69    6.10
  16  10 -13   97.89    7.60
 -16  10  13  102.89    7.70
 -14 -10  13  113.19    6.40
  14 -10 -13  110.79    6.30
  14  10 -13  120.79    8.20
 -14  10  13  113.59    7.80
  12 -10 -13  121.09    6.40
 -12  10  13  119.79    7.90
  12  10 -13  125.89    8.40
  10 -10 -13   98.09    5.60
 -10 -10  13   96.59    6.20
 -10  10  13  103.79    7.00
  10  10 -13  103.69    7.50
   8 -10 -13  142.09    7.00
  -8 -10  13  158.38    8.30
   8  10 -13  131.59    8.80
  -8  10  13  153.38    8.50
  -6 -10  13   59.29    5.10
   6 -10 -13   59.09    3.80
   6 -10 -13   46.20    3.70
   6  10 -13   51.99    5.50
  -6  10  13   62.29    5.20
   4 -10 -13   26.50    2.60
  -4 -10  13   20.20    3.60
   4 -10 -13   27.70    3.00
   4  10 -13   26.10    4.20
  -4  10  13   31.20    3.70
  -2 -10  13   28.60    4.30
   2 -10 -13   33.40    2.90
  -2 -10  13   32.20    4.50
   2 -10 -13   26.60    3.10
  -2  10  13   24.60    2.90
   2  10 -13   21.30    3.90
   0 -10 -13   43.40    4.10
   0 -10  13   53.39    5.80
   0 -10  13   49.20    5.50
   0 -10 -13   61.89    4.10
   0  10  13   57.29    4.40
   0  10 -13   55.89    5.70
  17 -11 -13   42.60    4.10
 -17 -11  13   36.20    3.80
  17  11 -13   35.10    5.20
 -17  11  13   36.20    5.30
 -15 -11  13   75.39    5.30
  15 -11 -13   82.99    5.30
  15  11 -13   75.29    6.90
 -15  11  13   83.29    6.90
  13 -11 -13   66.29    4.70
 -13 -11  13   68.89    5.10
 -13  11  13   83.89    6.60
  13  11 -13   66.59    6.50
 -11 -11  13   31.90    3.80
  11 -11 -13   36.40    3.50
  11  11 -13   36.60    5.00
 -11  11  13   38.60    4.80
   9 -11 -13  155.68    7.60
  -9 -11  13  156.58    8.50
  -9  11  13  160.98    9.20
   9  11 -13  164.28    9.90
  -7 -11  13   46.10    4.70
   7 -11 -13   48.20    3.80
  -7  11  13   55.79    5.20
   7  11 -13   48.80    5.70
   5 -11 -13  157.08    7.10
   5 -11 -13  149.39    7.40
  -5 -11  13  153.18    8.90
  -5  11  13  149.39    8.40
   5  11 -13  157.78    9.70
  -3 -11  13    2.80    2.20
   3 -11 -13    3.10    1.30
   3 -11 -13    4.20    1.60
   3  11 -13    5.80    2.60
   1 -11 -13   64.99    4.70
   1 -11 -13   63.29    4.20
  -1 -11  13   60.39    6.00
  -1 -11  13   54.49    6.00
   1  11 -13   60.59    6.10
  -1  11  13   67.79    4.60
 -14 -12  13   11.00    2.50
 -14  12  13    6.70    2.70
  14  12 -13   10.50    3.50
  12 -12 -13    2.10    1.50
 -12 -12  13    1.10    1.60
  12  12 -13    0.30    2.00
 -12  12  13    0.60    2.10
 -10 -12  13    2.90    2.00
  10 -12 -13    3.80    1.70
 -10  12  13    4.50    2.40
  10  12 -13    5.00    2.70
   8 -12 -13   60.09    4.40
  -8 -12  13   65.69    5.40
   8  12 -13   66.89    6.60
  -8  12  13   66.09    6.00
  -6 -12  13   49.20    5.10
   6 -12 -13   51.29    4.10
  -6  12  13   55.59    5.20
   6  12 -13   59.59    6.30
   4 -12 -13  111.29    6.40
  -4 -12  13  112.69    7.80
   4 -12 -13  123.79    6.20
   4  12 -13  123.79    8.60
  26   0 -14   58.59    5.10
 -26   0  14   54.89    6.00
 -24   0  14  167.48   10.00
  24   0 -14  172.08    8.60
  22   0 -14   79.59    5.30
 -22   0  14   93.49    7.00
 -20   0  14  152.48    9.00
 -20   0  14  140.49    6.10
  20   0 -14  156.28    7.20
 -18   0  14  344.47   12.30
  18   0 -14  357.66   12.90
 -18   0  14  372.46   15.60
 -16   0  14  210.78    8.30
  16   0 -14  206.68    8.30
 -16   0  14  219.78   10.80
 -14   0  14  278.37   10.40
  14   0 -14  264.67    9.80
 -14   0  14  278.17   12.50
 -12   0  14  596.84   19.70
  12   0 -14  589.74   18.70
 -12   0  14  576.94   19.90
 -12   0  14  561.54   21.40
  10   0 -14  324.07   10.90
 -10   0  14  324.77   12.60
 -10   0  14  314.37   13.30
 -10   0  14  302.27   12.10
   8   0 -14   78.29    5.40
  -8   0  14   76.19    5.10
  -8   0  14   71.29    5.10
  -8   0  14   73.99    5.20
   8   0 -14   77.29    3.80
  -6   0  14  281.37   12.10
   6   0 -14  287.47   10.30
   6   0 -14  291.97   10.00
  -6   0  14  300.67   12.30
   6   0 -14  296.97   12.30
  -6   0  14  297.57   12.50
  -4   0  14  199.58   10.10
   4   0 -14  218.58    9.50
   4   0 -14  208.38    7.60
  -4   0  14  202.68    9.30
  -4   0  14  201.28    9.80
   4   0 -14  199.88    8.00
  -2   0  14  248.08   11.80
  -2   0  14  244.48   11.50
   2   0 -14  244.78   10.40
   2   0 -14  246.28    9.00
  -2   0  14  233.88   10.20
   2   0 -14  240.38    9.40
   0   0  14  192.58   10.40
   0   0 -14  184.58    7.60
   0   0  14  194.98   10.10
   0   0 -14  181.08    8.00
   2   0  14   91.09    7.10
  -2   0 -14   93.79    5.20
  -2   0 -14   89.29    4.90
   4   0  14  102.89    7.90
  -4   0 -14  102.49    5.60
 -25  -1  14  128.99    8.60
  25  -1 -14  128.69    7.40
  25   1 -14  125.69    7.20
 -25   1  14  109.59    8.10
 -23  -1  14   60.59    6.00
  23  -1 -14   58.29    4.60
 -23   1  14   60.59    6.00
  23   1 -14   58.29    4.50
 -21  -1  14   99.59    4.80
  21  -1 -14  103.49    5.90
 -21  -1  14  101.09    7.30
 -21   1  14  112.79    7.70
  21   1 -14  100.19    5.70
 -19  -1  14  195.08   10.40
  19  -1 -14  197.48    8.50
 -19  -1  14  198.78    7.80
  19   1 -14  198.88    8.40
 -19   1  14  200.18   10.60
 -19   1  14  191.48    7.50
 -17  -1  14  101.39    5.00
  17  -1 -14   95.19    5.00
 -17  -1  14   80.39    6.30
  17   1 -14   92.09    4.80
 -17   1  14   97.99    4.70
 -17   1  14  104.29    6.90
  15  -1 -14  190.08    7.70
 -15  -1  14  196.18    8.10
 -15  -1  14  211.48   10.30
  15   1 -14  192.08    7.60
 -15   1  14  193.58   10.00
 -15   1  14  193.08    7.90
  13  -1 -14  187.48    7.50
 -13  -1  14  188.08    8.20
 -13  -1  14  192.18    9.70
  13   1 -14  192.58    7.30
 -13   1  14  192.68    8.30
 -13   1  14  192.58    9.80
  13   1 -14  216.28   10.10
 -13   1  14  190.98    8.00
  11  -1 -14  161.98    6.50
 -11  -1  14  149.69    8.40
 -11  -1  14  167.98    7.60
  11   1 -14  168.08    6.30
  11   1 -14  164.78    8.70
 -11   1  14  154.98    7.50
 -11   1  14  160.98    8.50
 -11   1  14  155.78    7.30
  -9  -1  14  101.39    5.70
   9  -1 -14   96.19    4.40
  -9  -1  14   90.69    5.70
  -9   1  14   89.49    5.40
  -9   1  14   91.99    6.00
   9   1 -14   88.19    6.00
   9   1 -14   91.49    4.10
  -9   1  14   93.09    5.70
   7  -1 -14  152.08    6.00
   7  -1 -14  152.38    6.30
  -7  -1  14  152.98    7.80
  -7  -1  14  154.98    8.10
  -7   1  14  149.69    7.90
   7   1 -14  156.58    5.80
  -7   1  14  162.88    8.10
  -7   1  14  148.29    7.60
   7   1 -14  155.98    6.10
   7   1 -14  146.59    8.00
   5  -1 -14  392.86   13.90
  -5  -1  14  424.86   16.10
   5  -1 -14  419.16   13.60
  -5  -1  14  393.76   16.10
   5   1 -14  401.56   13.20
  -5   1  14  387.66   15.30
  -5   1  14  434.76   16.10
   5   1 -14  422.26   15.90
  -5   1  14  401.46   16.10
   5   1 -14  404.56   13.60
  -3  -1  14  195.28   10.30
  -3  -1  14  209.28   10.20
   3  -1 -14  211.88    7.90
   3  -1 -14  204.58    8.30
  -3   1  14  203.28   10.30
   3   1 -14  209.58    8.10
  -3   1  14  215.08   10.30
   3   1 -14  210.48    7.70
   3   1 -14  211.48    9.60
  -3   1  14  202.68    9.20
  -1  -1  14  103.19    6.90
  -1  -1  14  100.79    7.10
   1  -1 -14  111.19    5.10
   1  -1 -14  102.09    5.30
   1   1 -14  107.49    4.90
   1   1 -14  101.69    5.10
   1   1 -14  103.49    6.10
  -1   1  14   95.09    5.70
  -1   1  14  102.19    7.10
   1  -1  14   79.19    6.40
   1  -1  14   80.69    6.70
  -1  -1 -14   82.09    4.90
  -1  -1 -14   86.89    4.60
   1   1  14   83.09    6.60
  -1   1 -14   83.89    4.70
  -1   1 -14   79.69    5.20
  -1   1 -14   81.79    4.40
  -3  -1 -14  103.49    5.60
   3  -1  14  105.69    7.90
   3   1  14  111.39    8.00
  -3   1 -14  107.09    5.50
   5  -1  14   70.49    6.80
  -5  -1 -14   74.49    4.70
  -5   1 -14   68.49    4.50
   5   1  14   69.69    6.70
 -24  -2  14   21.30    4.00
  24  -2 -14   23.20    3.30
 -24   2  14   15.60    3.60
 -22  -2  14   82.29    4.30
 -22  -2  14   70.49    6.10
  22  -2 -14   73.29    5.10
  22   2 -14   73.39    4.90
 -22   2  14   70.89    6.50
  20  -2 -14   47.00    3.70
 -20  -2  14   45.80    5.20
 -20  -2  14   49.90    3.30
 -20   2  14   41.90    5.00
  20   2 -14   50.29    3.70
 -18  -2  14   28.80    4.10
  18  -2 -14   25.40    2.70
 -18  -2  14   25.50    2.50
  18   2 -14   28.50    2.60
 -18   2  14   29.80    4.20
 -16  -2  14   36.00    4.40
  16  -2 -14   42.50    3.10
 -16  -2  14   37.80    3.10
  16   2 -14   38.20    4.50
 -16   2  14   41.20    4.60
 -16   2  14   37.20    2.70
  16   2 -14   40.20    2.80
 -16   2  14   39.60    3.00
 -14  -2  14   69.29    5.50
 -14  -2  14   67.19    4.20
  14   2 -14   67.79    5.50
 -14   2  14   67.69    3.90
  14   2 -14   66.59    3.50
 -14   2  14   57.39    5.30
 -14   2  14   75.09    4.30
  12  -2 -14   64.69    3.60
 -12  -2  14   65.69    4.30
  12   2 -14   69.89    3.30
 -12   2  14   60.59    4.00
  12   2 -14   65.59    5.30
 -12   2  14   56.29    4.90
 -12   2  14   64.99    4.30
 -10  -2  14   35.30    3.40
  10  -2 -14   33.60    2.50
 -10   2  14   29.60    3.00
 -10   2  14   33.70    3.20
  10   2 -14   36.60    4.10
  10   2 -14   30.70    2.10
 -10   2  14   31.80    3.80
  -8  -2  14   76.89    5.00
   8  -2 -14   64.59    3.40
  -8  -2  14   65.99    5.00
   8  -2 -14   63.29    3.60
   8   2 -14   62.99    5.10
  -8   2  14   68.79    5.00
  -8   2  14   68.39    4.80
   8   2 -14   66.69    3.20
  -8   2  14   76.19    4.80
  -6  -2  14   70.09    5.40
   6  -2 -14   75.19    4.00
  -6  -2  14   67.69    5.10
   6  -2 -14   72.99    3.70
  -6   2  14   82.39    5.30
  -6   2  14   75.79    5.20
   6   2 -14   72.59    3.30
  -6   2  14   69.39    5.20
   6   2 -14   71.69    3.50
   6   2 -14   75.99    5.40
  -4  -2  14   71.39    5.60
   4  -2 -14   67.19    4.00
  -4  -2  14   57.89    5.00
   4  -2 -14   67.99    3.70
  -4   2  14   66.29    4.70
  -4   2  14   65.09    5.30
  -4   2  14   69.39    5.20
   4   2 -14   66.19    3.50
   4   2 -14   68.09    5.00
   4   2 -14   66.69    3.30
  -2  -2  14   45.70    4.80
   2  -2 -14   39.50    2.80
  -2  -2  14   35.90    4.20
   2  -2 -14   43.30    3.20
  -2   2  14   37.40    4.30
   2   2 -14   43.60    2.70
   2   2 -14   37.10    2.70
   2   2 -14   46.30    4.10
  -2   2  14   43.10    3.60
   0  -2  14   39.60    4.70
   0  -2 -14   32.20    2.70
   0  -2  14   28.70    4.10
   0  -2 -14   36.70    3.20
   0   2 -14   34.30    3.60
   0   2 -14   32.80    2.80
   0   2  14   30.60    4.20
   0   2 -14   33.70    2.60
  -2  -2 -14   37.50    3.10
  -2  -2 -14   40.00    3.50
   2  -2  14   34.60    4.80
   2  -2  14   30.20    4.50
   2   2  14   30.10    4.40
  -2   2 -14   37.20    2.90
  -4  -2 -14   21.30    2.60
   4  -2  14   23.40    4.30
  -4   2 -14   21.00    2.50
   4   2  14   26.50    4.30
  25  -3 -14    1.10    1.80
 -25  -3  14   -2.70    1.70
 -25  -3  14   -0.50    1.60
 -25   3  14    1.40    2.30
  23  -3 -14    1.80    1.60
 -23  -3  14    4.10    1.30
 -23  -3  14    0.10    1.90
 -23   3  14    2.30    2.20
  21  -3 -14    4.50    1.80
 -21  -3  14    4.80    2.30
 -21  -3  14    3.70    1.40
 -21   3  14    5.70    2.50
  21   3 -14    6.90    1.90
 -19  -3  14    5.40    2.30
  19  -3 -14    4.80    1.60
 -19  -3  14    2.70    1.40
  19   3 -14    5.00    1.50
  19   3 -14    9.30    2.70
 -19   3  14    4.30    2.20
 -17  -3  14    1.10    1.80
  17  -3 -14    1.80    1.20
 -17  -3  14    1.50    1.10
  17   3 -14    1.90    1.10
 -17   3  14    0.90    1.60
  17   3 -14    2.80    1.90
  15  -3 -14    1.30    0.90
 -15  -3  14    1.60    1.20
 -15   3  14    0.60    1.40
 -15   3  14    0.50    1.00
  15   3 -14    1.50    0.90
 -15   3  14    0.70    1.00
  15   3 -14   -0.60    1.40
 -13  -3  14    0.30    1.20
  13  -3 -14   -0.20    0.70
 -13   3  14   -0.20    0.90
 -13   3  14   -1.30    1.20
  13   3 -14    0.20    0.80
  13   3 -14   -0.10    1.40
 -13   3  14    0.60    1.10
  11  -3 -14    2.00    1.00
 -11  -3  14    1.70    1.40
 -11   3  14    1.30    1.40
  11   3 -14    2.90    0.90
 -11   3  14    1.90    1.40
 -11   3  14    2.50    1.30
  11   3 -14    1.20    1.60
  -9  -3  14   32.70    3.40
   9  -3 -14   22.30    2.20
   9   3 -14   26.30    1.80
  -9   3  14   28.90    3.50
  -9   3  14   30.50    3.00
   9   3 -14   22.00    3.40
  -9   3  14   30.50    3.10
  -7  -3  14   -0.30    1.40
   7  -3 -14    1.40    0.80
   7  -3 -14    0.10    0.70
  -7  -3  14   -1.50    1.10
   7   3 -14   -0.50    0.50
   7   3 -14   -0.60    1.30
  -7   3  14   -0.70    1.20
  -7   3  14    0.70    1.20
  -5  -3  14   41.80    4.50
   5  -3 -14   49.50    3.10
  -5  -3  14   56.09    4.60
   5  -3 -14   51.49    3.40
   5   3 -14   46.40    4.50
  -5   3  14   59.79    4.80
   5   3 -14   53.59    2.80
   5   3 -14   50.49    2.60
  -5   3  14   43.10    4.00
  -3  -3  14    3.70    1.90
   3  -3 -14    1.20    1.00
   3  -3 -14    1.20    0.90
  -3  -3  14    3.50    2.10
   3   3 -14    1.50    0.70
  -3   3  14    0.80    1.20
   3   3 -14   -0.10    1.40
   3   3 -14    2.40    0.90
  -3   3  14   -0.10    1.50
  -1  -3  14   -0.70    1.50
   1  -3 -14    0.90    1.00
  -1  -3  14   -0.40    1.50
   1  -3 -14   -0.70    0.70
   1   3 -14   -0.50    0.60
  -1   3  14   -1.80    1.40
   1   3 -14   -0.20    0.60
   1   3 -14    0.60    1.40
   1  -3  14    6.10    2.40
  -1  -3 -14    4.70    1.50
   1  -3  14    2.00    2.00
  -1  -3 -14    6.00    1.50
  -1   3 -14    6.40    2.10
   1   3  14    4.30    2.20
  -1   3 -14    3.70    1.20
  -3  -3 -14    6.30    1.70
   3  -3  14    8.70    3.00
  -3  -3 -14    5.40    1.80
   3  -3  14    2.60    2.20
   3   3  14    7.20    2.60
  -3   3 -14    6.30    1.50
  -5  -3 -14    0.60    1.10
   5  -3  14   -0.40    2.10
   5   3  14    2.10    2.30
  24  -4 -14   26.20    3.60
 -24  -4  14   21.30    2.40
 -24  -4  14   21.10    4.10
 -24   4  14   28.00    4.70
 -22  -4  14   13.60    2.40
  22  -4 -14   10.10    2.40
 -22  -4  14   16.70    3.80
 -22  -4  14   10.10    1.80
 -22   4  14   10.40    3.20
 -20  -4  14   57.79    3.80
 -20  -4  14   55.29    5.60
  20  -4 -14   56.79    4.20
  20   4 -14   57.99    5.70
 -20   4  14   49.80    5.60
 -18  -4  14   60.09    3.80
  18  -4 -14   61.39    4.10
  18   4 -14   54.89    5.50
 -18   4  14   50.29    5.40
 -16  -4  14   26.50    2.70
  16  -4 -14   23.40    2.60
  16   4 -14   29.80    4.20
 -16   4  14   27.00    4.00
 -14  -4  14   99.69    5.40
  14  -4 -14   88.39    4.90
 -14   4  14   93.09    6.60
  14   4 -14   97.49    6.70
  12  -4 -14  164.78    7.30
 -12  -4  14  190.98    8.30
 -12   4  14  189.68    7.70
  12   4 -14  186.38    9.70
 -12   4  14  173.88    9.30
 -10  -4  14   64.99    4.60
  10  -4 -14   62.89    3.70
 -10   4  14   65.59    4.30
  10   4 -14   63.09    5.30
 -10   4  14   62.39    5.00
  -8  -4  14   -0.60    1.20
   8  -4 -14    0.10    0.70
   8  -4 -14    1.00    0.80
  -8   4  14    1.40    1.40
   8   4 -14   -0.30    1.40
  -8   4  14    1.30    1.40
   6  -4 -14   65.99    3.90
  -6  -4  14   67.89    5.10
   6  -4 -14   66.39    3.70
  -6  -4  14   65.29    5.40
   6   4 -14   77.59    5.70
  -6   4  14   67.79    5.00
  -6   4  14   72.39    5.20
   4  -4 -14   42.40    3.00
  -4  -4  14   46.30    4.80
   4  -4 -14   49.60    3.50
  -4  -4  14   52.89    4.90
  -4   4  14   53.39    4.20
  -4   4  14   52.89    4.60
   4   4 -14   50.19    4.70
  -2  -4  14   31.50    4.30
   2  -4 -14   37.40    3.20
  -2  -4  14   33.40    4.30
   2  -4 -14   32.10    2.70
   2   4 -14   32.10    3.80
  -2   4  14   32.10    3.30
  -2   4  14   38.10    4.10
   0  -4  14   41.00    4.90
   0  -4  14   38.10    4.80
   0  -4 -14   42.40    3.20
   0  -4 -14   48.50    3.70
   0   4  14   37.30    4.40
   0   4 -14   51.09    4.60
   2  -4  14   29.60    4.50
  -2  -4 -14   27.50    3.10
  -2  -4 -14   21.70    2.50
   2  -4  14   16.50    3.70
   2   4  14   19.40    3.60
  -2   4 -14   24.10    3.30
  -4  -4 -14   10.90    2.40
  -4  -4 -14    9.50    2.00
   4  -4  14    8.90    3.30
   4  -4  14   15.60    3.70
   4   4  14   16.00    3.70
  23  -5 -14   53.39    4.80
 -23  -5  14   57.39    3.90
 -23  -5  14   57.39    6.00
 -23   5  14   63.19    6.40
 -21  -5  14   66.79    6.30
 -21  -5  14   61.39    4.10
  21  -5 -14   80.79    5.20
 -21   5  14   68.39    6.50
  21   5 -14   61.09    6.10
  19  -5 -14   94.29    5.60
 -19  -5  14   95.89    5.20
  19   5 -14   97.09    7.10
 -19   5  14   97.99    7.20
  17  -5 -14   95.39    5.30
 -17  -5  14   98.69    5.20
 -17   5  14   85.99    6.70
  17   5 -14   92.29    6.90
 -15  -5  14  111.59    5.80
  15   5 -14   99.09    7.10
 -15   5  14   99.49    7.00
  13  -5 -14  139.49    6.40
 -13  -5  14  137.29    6.90
 -13   5  14  139.99    8.20
  13   5 -14  139.09    8.40
 -11  -5  14  129.29    6.80
  11  -5 -14  124.29    6.00
 -11   5  14  126.29    7.60
  11   5 -14  127.19    7.90
 -11   5  14  139.39    6.20
  -9  -5  14   64.19    4.80
   9  -5 -14   67.59    4.00
   9   5 -14   63.59    5.60
  -9   5  14   69.29    4.50
  -9   5  14   63.19    5.10
  -7  -5  14  129.39    7.40
   7  -5 -14  137.79    5.90
   7  -5 -14  128.89    6.20
  -7   5  14  143.99    7.60
  -7   5  14  135.29    7.00
   7   5 -14  134.59    7.90
   5  -5 -14  219.78    9.10
  -5  -5  14  232.38   10.90
   5  -5 -14  230.48    8.80
  -5  -5  14  218.68   11.00
  -5   5  14  235.78   10.40
   5   5 -14  224.48   10.90
  -5   5  14  229.98   10.20
  -3  -5  14  138.79    8.70
   3  -5 -14  144.49    7.00
  -3  -5  14  155.78    8.70
   3  -5 -14  158.98    6.80
  -3   5  14  148.89    8.30
  -3   5  14  160.48    7.70
   3   5 -14  161.88    8.60
  -1  -5  14   72.69    6.40
   1  -5 -14   77.29    4.40
   1  -5 -14   81.59    4.90
  -1  -5  14   77.09    6.20
  -1   5  14   81.79    6.20
   1   5 -14   84.19    6.00
   1  -5  14   40.30    5.10
  -1  -5 -14   47.30    3.50
   1  -5  14   44.50    5.20
  -1  -5 -14   44.70    3.70
  -1   5 -14   44.90    4.40
   1   5  14   37.00    4.50
  -3  -5 -14   43.70    3.60
   3  -5  14   49.70    5.80
  -3  -5 -14   46.70    4.20
   3  -5  14   51.69    5.70
  22  -6 -14  174.28    9.00
 -22  -6  14  179.08   10.50
 -22   6  14  183.58   10.80
  22   6 -14  188.08   10.70
 -20  -6  14  124.99    6.20
  20  -6 -14  111.09    6.60
  20   6 -14  134.59    8.70
 -20   6  14  136.89    8.70
 -18  -6  14   61.39    4.10
  18  -6 -14   63.29    4.30
  18   6 -14   58.29    5.80
 -18   6  14   57.69    5.80
 -16  -6  14   98.39    5.50
  16  -6 -14   96.29    5.40
 -16   6  14  107.09    7.40
  16   6 -14  115.19    7.60
  14  -6 -14  137.79    6.60
 -14  -6  14  142.89    7.00
  14   6 -14  124.09    8.20
 -14   6  14  143.89    8.50
 -12  -6  14  133.49    6.80
  12  -6 -14  123.09    6.00
 -12   6  14  139.29    8.00
  12   6 -14  112.19    7.70
  10  -6 -14   92.69    5.00
 -10  -6  14   85.69    5.70
  10   6 -14   90.09    6.60
 -10   6  14  110.59    6.70
  -8  -6  14  197.78    9.60
   8  -6 -14  195.08    8.30
  -8   6  14  207.88    8.90
  -8   6  14  206.68    9.90
   8   6 -14  200.78   10.40
   6  -6 -14  137.49    6.70
   6  -6 -14  148.89    6.50
  -6  -6  14  155.08    8.40
   6   6 -14  172.48    9.10
  -6   6  14  149.29    8.00
  -6   6  14  158.78    7.80
   4  -6 -14  207.28    8.20
  -4  -6  14  183.28   10.30
  -4  -6  14  191.78   10.00
   4  -6 -14  202.38    8.60
  -4   6  14  202.08    9.30
  -4   6  14  202.48    9.70
   4   6 -14  193.68   10.10
  -2  -6  14  129.89    8.40
   2  -6 -14  128.09    6.10
   2  -6 -14  119.99    6.40
  -2  -6  14  124.09    8.00
   2   6 -14  138.09    7.90
   0  -6  14   70.99    6.20
   0  -6  14   73.79    6.50
   0  -6 -14   70.59    4.40
   0  -6 -14   81.19    5.00
   0   6 -14   68.09    5.60
  -2  -6 -14   87.59    5.10
  -2  -6 -14   83.69    5.50
   2  -6  14   97.79    7.50
   2  -6  14   91.09    7.40
  -2   6 -14   85.09    6.20
   2   6  14   83.79    6.00
 -23  -7  14  105.59    5.80
  23  -7 -14  101.99    6.80
 -23  -7  14   99.09    7.80
  23   7 -14  116.79    8.30
 -23   7  14  104.59    8.10
 -21  -7  14  151.58    7.20
  21  -7 -14  132.89    7.70
  21   7 -14  160.18    9.70
 -21   7  14  151.58    9.60
 -19  -7  14   46.40    3.70
  19  -7 -14   49.90    4.20
  19   7 -14   45.10    5.40
 -19   7  14   41.70    5.30
 -17  -7  14   61.79    4.30
  17  -7 -14   62.99    4.50
  17   7 -14   69.09    6.30
 -17   7  14   71.49    6.40
 -15  -7  14  124.79    6.40
  15   7 -14  103.79    7.60
 -15   7  14  123.69    8.00
 -13  -7  14  132.79    7.00
  13  -7 -14  138.99    6.60
 -13   7  14  130.49    8.10
  13   7 -14  127.69    8.40
  11  -7 -14  113.19    5.80
 -11  -7  14  110.09    6.50
  11   7 -14  127.29    8.00
 -11   7  14  119.49    7.40
  -9  -7  14  192.98    9.40
   9  -7 -14  191.48    8.20
  -9   7  14  207.68   10.00
   9   7 -14  185.48   10.30
  -7  -7  14  108.79    6.80
   7  -7 -14   99.99    5.50
  -7   7  14  113.29    5.50
   7   7 -14  109.49    7.30
  -7   7  14  108.09    6.80
   5  -7 -14   23.40    2.60
  -5  -7  14   31.00    3.90
   5  -7 -14   23.00    2.40
  -5   7  14   26.90    3.40
  -5   7  14   29.10    2.90
   5   7 -14   21.40    3.70
   3  -7 -14   55.19    3.60
  -3  -7  14   41.60    4.90
   3  -7 -14   53.09    3.90
  -3  -7  14   48.70    5.00
  -3   7  14   58.99    4.30
   3   7 -14   63.19    5.50
   1  -7 -14   50.69    3.90
  -1  -7  14   48.50    5.30
  -1  -7  14   51.69    5.40
   1  -7 -14   48.30    3.50
   1   7 -14   48.20    5.00
  -1   7  14   42.50    4.10
  -1  -7 -14  106.09    6.10
   1  -7  14   90.39    7.20
   1  -7  14   94.89    7.70
  -1  -7 -14  106.49    5.60
  -1   7 -14   93.49    6.80
   1   7  14  103.39    6.40
 -22  -8  14   43.20    3.60
  22  -8 -14   34.70    4.10
 -22   8  14   35.30    5.40
  20  -8 -14    8.90    2.40
 -20  -8  14    7.50    1.90
  20   8 -14    6.20    2.70
 -20   8  14    6.70    2.80
 -18  -8  14   33.30    3.40
  18  -8 -14   39.20    3.70
  18   8 -14   37.30    5.10
 -18   8  14   36.10    5.00
  16  -8 -14   33.20    3.30
 -16  -8  14   47.10    3.70
  16   8 -14   40.40    5.20
 -16   8  14   30.00    4.60
  14  -8 -14    7.10    1.70
 -14  -8  14    8.40    2.10
 -14   8  14    7.40    2.50
  14   8 -14    7.40    2.80
 -12  -8  14    9.70    2.40
  12  -8 -14   10.50    2.00
  12   8 -14    7.00    2.70
 -12   8  14    9.40    2.60
 -10  -8  14   31.20    3.60
  10  -8 -14   29.20    2.90
  10   8 -14   41.60    4.90
 -10   8  14   33.30    4.20
   8  -8 -14   91.29    5.20
  -8  -8  14  103.49    6.40
  -8   8  14   90.49    6.30
   8   8 -14   88.79    6.90
   6  -8 -14   40.50    3.00
   6  -8 -14   33.40    3.20
  -6  -8  14   31.50    4.00
  -6   8  14   30.10    3.80
   6   8 -14   28.00    4.20
  -6   8  14   38.00    3.10
  -4  -8  14   19.80    3.50
   4  -8 -14   17.00    2.10
   4  -8 -14   12.00    2.20
  -4  -8  14   13.20    3.10
  -4   8  14   14.90    2.80
  -4   8  14   17.60    2.50
   4   8 -14   16.80    3.50
  -2  -8  14   33.90    4.60
  -2  -8  14   33.60    4.50
   2  -8 -14   47.80    3.80
   2  -8 -14   42.00    3.20
   2   8 -14   32.40    4.50
  -2   8  14   41.10    3.70
   0  -8  14   11.90    3.40
   0  -8  14    9.30    2.90
   0  -8 -14   14.10    2.10
   0  -8 -14   11.30    2.40
   0   8 -14   15.00    3.20
   0   8  14   14.40    2.70
  19  -9 -14    4.70    1.70
 -19  -9  14    2.00    1.60
 -19   9  14    5.00    2.70
  19   9 -14    5.70    2.70
  17  -9 -14    7.70    2.00
 -17  -9  14    7.10    2.00
  17   9 -14    8.70    3.00
 -17   9  14    7.20    2.80
 -15  -9  14    4.60    1.70
 -15   9  14    2.40    2.20
  15   9 -14    6.40    2.50
  13  -9 -14    3.40    1.50
 -13  -9  14    0.50    1.50
  13   9 -14   -1.50    1.70
 -13   9  14    2.90    2.10
 -11  -9  14    4.30    2.00
  11  -9 -14    2.70    1.30
 -11   9  14    3.80    2.20
  11   9 -14    3.20    2.30
  -9  -9  14   23.90    3.40
   9  -9 -14   25.90    2.90
   9   9 -14   30.00    4.50
  -9   9  14   24.70    3.80
  -7  -9  14    3.00    2.00
   7  -9 -14    1.40    1.20
   7   9 -14   -0.30    1.70
  -7   9  14   -1.50    1.30
  -5  -9  14    4.80    2.30
   5  -9 -14    8.60    1.70
   5  -9 -14    8.70    2.00
   5   9 -14    5.90    2.40
  -5   9  14    8.30    2.60
  -3  -9  14    1.50    2.00
  -3  -9  14    1.20    1.90
   3  -9 -14    0.20    0.90
   3  -9 -14   -0.30    0.90
   3   9 -14    1.30    1.80
  -3   9  14    1.00    1.30
   1  -9 -14    3.60    1.30
   1  -9 -14    5.10    1.80
  -1  -9  14    4.00    2.50
  -1  -9  14    3.90    2.30
   1   9 -14    4.80    2.50
  -1   9  14    7.40    2.10
 -18 -10  14    0.80    1.30
  18 -10 -14    0.30    1.50
  18  10 -14    2.50    2.40
 -18  10  14    2.10    2.40
 -16 -10  14    1.00    1.40
  16 -10 -14    1.00    1.40
  16  10 -14   -0.10    2.00
 -16  10  14    3.10    2.30
 -14 -10  14   -0.70    1.40
  14 -10 -14    3.80    1.50
 -14  10  14    1.40    2.00
  14  10 -14    2.30    2.20
  12 -10 -14   -0.50    1.00
 -12 -10  14    0.40    1.50
  12  10 -14    0.10    1.90
 -12  10  14    2.50    2.10
 -10 -10  14   -1.00    1.40
  10 -10 -14    1.80    1.30
  10  10 -14    0.10    2.00
 -10  10  14    2.10    2.10
   8 -10 -14   17.80    2.60
  -8 -10  14   17.60    3.30
  -8  10  14   15.80    3.30
   8  10 -14   11.30    3.30
   6 -10 -14    5.70    1.70
   6 -10 -14    7.40    1.70
  -6 -10  14    6.00    2.40
  -6  10  14    6.40    2.40
   6  10 -14    9.80    3.00
   4 -10 -14   30.30    3.20
  -4 -10  14   29.70    4.40
   4 -10 -14   30.30    2.90
   4  10 -14   32.10    4.70
   2 -10 -14   10.50    2.30
  -2 -10  14   10.80    3.20
   2 -10 -14   14.60    2.20
  -2 -10  14   14.70    3.60
   2  10 -14    8.50    2.90
 -15 -11  14   20.80    3.20
 -15  11  14   25.30    4.50
  15  11 -14   21.00    4.30
  13 -11 -14   38.50    3.70
 -13 -11  14   29.50    3.80
  13  11 -14   38.30    5.40
 -13  11  14   39.40    5.10
  11 -11 -14   41.60    3.80
 -11 -11  14   52.19    4.90
 -11  11  14   53.29    5.60
  11  11 -14   46.80    5.70
  -9 -11  14   59.49    5.40
   9 -11 -14   63.79    4.50
   9  11 -14   67.59    6.60
  -9  11  14   65.29    6.00
   7 -11 -14   35.30    3.40
  -7 -11  14   28.60    4.20
  -7  11  14   36.70    4.50
   7  11 -14   31.50    4.90
  -5 -11  14    2.10    2.20
   5 -11 -14    2.20    1.30
   5 -11 -14   -0.20    1.00
   5  11 -14    0.70    1.90
  24   0 -15   -1.00    1.40
 -24   0  15   -0.80    1.70
  22   0 -15   -1.10    1.00
 -22   0  15   -1.60    1.60
  20   0 -15    0.50    1.20
 -20   0  15    0.40    1.80
 -18   0  15    3.00    2.00
 -18   0  15    0.70    1.20
  18   0 -15   -0.80    0.90
 -16   0  15   -0.70    1.00
  16   0 -15   -0.20    0.80
 -16   0  15   -0.80    1.20
  14   0 -15   -0.80    0.70
 -14   0  15   -0.90    1.20
 -14   0  15    0.10    1.20
 -14   0  15    2.00    1.60
 -12   0  15    1.00    1.40
 -12   0  15   -0.60    1.10
  12   0 -15   -0.70    0.60
 -12   0  15   -0.20    1.30
 -10   0  15   -1.30    1.10
 -10   0  15    0.40    1.50
  10   0 -15   -0.20    0.60
 -10   0  15    0.20    1.40
   8   0 -15    0.40    0.70
  -8   0  15    2.00    1.70
  -8   0  15    0.00    1.20
  -8   0  15    2.10    1.50
   6   0 -15   -0.30    0.60
  -6   0  15    0.30    1.60
   6   0 -15   -0.20    0.60
  -6   0  15   -0.40    1.20
  -6   0  15   -0.30    1.40
   4   0 -15   -0.10    0.70
  -4   0  15    2.30    1.70
  -4   0  15   -0.50    1.60
  -4   0  15    0.60    1.20
   4   0 -15   -0.10    0.70
   2   0 -15    0.60    0.90
  -2   0  15    3.00    2.10
   2   0 -15   -0.30    0.70
  -2   0  15    0.50    1.30
  -2   0  15    4.90    2.20
   0   0 -15    1.50    1.00
   0   0 -15    2.10    1.00
   0   0  15   -0.50    1.70
  -2   0 -15    0.10    0.90
  -2   0 -15    0.90    1.10
   2   0  15    3.30    2.30
 -25  -1  15   11.40    3.40
  25  -1 -15   18.30    3.10
 -25   1  15   13.20    3.50
  25   1 -15   11.10    2.70
 -23  -1  15    7.40    2.80
  23  -1 -15    6.10    2.00
 -23   1  15    3.00    2.20
  23   1 -15    3.90    1.90
 -21  -1  15    5.70    1.50
  21  -1 -15    2.50    1.50
 -21  -1  15    4.70    2.40
  21   1 -15    5.30    1.80
 -21   1  15    6.10    2.50
 -19  -1  15    0.70    1.80
 -19  -1  15   -0.50    1.20
  19  -1 -15   -1.40    0.90
  19   1 -15    0.80    1.30
 -19   1  15    0.20    1.50
  17  -1 -15   61.39    3.90
 -17  -1  15   63.99    4.10
 -17  -1  15   66.29    6.00
  17   1 -15   74.19    4.10
 -17   1  15   65.29    4.00
 -17   1  15   64.49    5.60
  15  -1 -15    0.20    1.00
 -15  -1  15   -0.40    1.20
 -15  -1  15    1.70    1.50
 -15   1  15    0.90    1.30
  15   1 -15   -0.60    0.80
 -15   1  15    0.50    1.40
 -15   1  15    0.70    1.30
  13  -1 -15  137.09    5.90
 -13  -1  15  128.99    7.80
 -13  -1  15  142.39    6.90
  13   1 -15  137.79    8.10
  13   1 -15  138.29    5.70
 -13   1  15  135.49    8.00
 -13   1  15  135.59    6.60
 -13   1  15  117.69    6.60
 -11  -1  15   18.60    2.80
  11  -1 -15   14.90    1.80
 -11  -1  15   15.70    3.10
 -11   1  15   17.50    2.60
 -11   1  15   21.20    2.90
 -11   1  15   20.40    3.30
  11   1 -15   23.00    3.60
  11   1 -15   20.00    1.80
  -9  -1  15    1.80    1.50
  -9  -1  15   -2.10    1.20
   9  -1 -15   -0.40    0.60
  -9  -1  15    1.80    1.50
   9   1 -15    0.30    0.60
   9   1 -15   -1.70    1.20
  -9   1  15   -0.90    1.30
  -9   1  15    1.80    1.50
  -9   1  15    0.50    1.30
  -7  -1  15  129.29    7.50
  -7  -1  15  129.99    7.70
   7  -1 -15  131.29    5.50
   7  -1 -15  133.29    5.90
  -7  -1  15  142.09    7.60
  -7   1  15  131.89    7.40
  -7   1  15  122.29    7.30
  -7   1  15  134.59    7.30
   7   1 -15  130.49    7.50
   7   1 -15  131.99    5.50
   7   1 -15  134.49    5.30
   5  -1 -15    7.30    1.30
  -5  -1  15    6.40    2.20
  -5  -1  15    7.00    2.40
   5  -1 -15    8.20    1.50
   5   1 -15    7.60    1.20
  -5   1  15    6.60    2.00
   5   1 -15    6.40    2.20
   5   1 -15    5.90    1.30
  -5   1  15    7.40    2.30
  -3  -1  15    5.90    1.90
  -3  -1  15    3.60    2.10
   3  -1 -15    2.30    1.00
  -3  -1  15    3.00    1.90
   3  -1 -15   -0.90    0.70
   3   1 -15    2.30    1.00
  -3   1  15    1.20    1.40
  -3   1  15    5.00    2.10
  -3   1  15    4.40    2.20
   3   1 -15    2.60    0.90
   3   1 -15    3.10    1.70
  -1  -1  15    3.80    1.70
   1  -1 -15    6.90    1.60
   1  -1 -15    6.50    1.50
  -1  -1  15    9.30    2.70
  -1  -1  15    8.70    2.70
  -1   1  15    8.10    2.70
   1   1 -15    7.50    1.60
   1   1 -15    9.30    2.30
   1   1 -15   11.30    1.60
  -1  -1 -15    2.70    1.20
  -1  -1 -15    3.70    1.40
   1  -1  15    7.30    2.70
  -1   1 -15    4.90    1.40
  -1   1 -15    5.40    1.60
   1   1  15    7.70    2.80
   3  -1  15    1.00    2.00
  -3  -1 -15   -0.40    0.90
  -3  -1 -15    1.40    1.20
  -3   1 -15    1.70    1.10
   3   1  15    1.40    2.10
  -3   1 -15   -0.50    1.00
  24  -2 -15   42.10    4.20
 -24  -2  15   54.89    5.90
 -24   2  15   35.60    5.10
  22  -2 -15   16.40    2.70
 -22  -2  15    8.90    1.80
 -22  -2  15   12.70    3.40
 -22   2  15   16.50    3.90
  22   2 -15   17.70    2.60
  20  -2 -15   30.00    3.10
 -20  -2  15   32.80    2.90
 -20  -2  15   27.00    4.30
 -20   2  15   41.90    5.10
  20   2 -15   27.20    2.90
 -18  -2  15    3.30    2.00
 -18  -2  15    3.40    1.50
  18  -2 -15    1.50    1.30
  18   2 -15    3.10    1.40
 -18   2  15    4.70    2.10
 -16  -2  15  105.09    7.20
  16  -2 -15  102.59    5.30
 -16  -2  15  113.39    5.70
  16   2 -15  106.59    5.00
 -16   2  15  105.89    5.40
 -16   2  15  107.59    7.30
  16   2 -15   99.49    7.10
 -16   2  15  101.99    5.20
 -14  -2  15   49.60    3.80
 -14  -2  15   54.49    5.20
  14  -2 -15   47.60    3.20
 -14   2  15   47.20    4.90
  14   2 -15   49.40    2.90
  14   2 -15   46.00    4.90
 -14   2  15   49.10    3.70
 -14   2  15   42.40    3.40
  12  -2 -15  165.68    6.70
 -12  -2  15  160.88    7.70
 -12   2  15  160.58    8.70
 -12   2  15  146.59    7.20
  12   2 -15  164.28    9.00
 -12   2  15  145.49    7.30
  10  -2 -15   47.70    3.10
 -10  -2  15   44.80    4.20
 -10  -2  15   42.20    4.00
 -10   2  15   49.10    4.10
  10   2 -15   52.69    4.90
  10   2 -15   50.09    2.70
 -10   2  15   55.29    4.10
 -10   2  15   46.60    4.50
  -8  -2  15   64.59    4.80
   8  -2 -15   57.59    3.50
  -8  -2  15   50.49    4.70
   8  -2 -15   55.59    3.20
  -8   2  15   60.59    4.80
  -8   2  15   62.29    4.60
   8   2 -15   57.29    3.00
   8   2 -15   61.29    5.20
  -8   2  15   59.39    4.80
   6  -2 -15   57.49    3.60
   6  -2 -15   66.09    3.50
  -6  -2  15   57.69    5.20
  -6  -2  15   52.09    4.90
  -6   2  15   61.79    4.90
  -6   2  15   65.39    5.30
  -6   2  15   52.39    4.50
   6   2 -15   64.29    5.20
   6   2 -15   60.79    3.10
   6   2 -15   69.49    3.40
  -4  -2  15   70.69    5.70
  -4  -2  15   64.69    5.60
   4  -2 -15   63.79    3.70
   4  -2 -15   66.59    4.10
   4   2 -15   68.69    5.30
   4   2 -15   67.39    3.70
  -4   2  15   72.09    5.00
  -4   2  15   75.49    5.80
   4   2 -15   72.79    3.50
   2  -2 -15   65.69    3.90
  -2  -2  15   64.59    5.80
   2  -2 -15   67.19    4.30
  -2  -2  15   57.69    5.60
   2   2 -15   69.89    3.70
   2   2 -15   77.19    4.00
  -2   2  15   73.59    6.10
   2   2 -15   65.99    5.10
   0  -2 -15   18.20    2.20
   0  -2 -15   19.60    2.60
   0  -2  15   23.70    4.10
   0  -2  15   23.00    4.00
   0   2  15   17.10    3.60
   0   2 -15   24.10    3.20
   0   2 -15   18.00    2.00
   0   2 -15   19.90    2.30
  -2  -2 -15   16.50    2.30
   2  -2  15   12.40    3.40
   2  -2  15   12.70    3.50
  -2  -2 -15   17.90    2.70
   2   2  15   16.50    3.70
  -2   2 -15   24.60    2.70
  -2   2 -15   19.30    2.20
  23  -3 -15    3.10    1.70
 -23  -3  15    5.20    2.40
 -23  -3  15    2.70    1.30
 -23   3  15   -0.30    2.10
 -21  -3  15   48.60    5.50
 -21  -3  15   45.90    3.40
  21  -3 -15   45.80    4.00
 -21   3  15   50.79    5.70
  19  -3 -15   69.39    4.60
 -19  -3  15   77.09    4.50
 -19  -3  15   75.39    6.30
  19   3 -15   68.89    6.30
 -19   3  15   78.99    6.40
 -17  -3  15   37.50    3.20
  17  -3 -15   31.40    3.00
 -17  -3  15   41.30    4.90
 -17   3  15   38.90    4.70
  17   3 -15   41.90    5.00
 -15  -3  15  134.09    6.70
  15   3 -15  132.89    8.30
 -15   3  15  135.59    8.30
 -13  -3  15   81.09    5.10
  13  -3 -15   83.89    4.40
 -13   3  15   85.89    4.90
 -13   3  15   63.19    5.50
  13   3 -15   86.39    6.30
 -13   3  15   75.79    4.50
 -11  -3  15  110.49    6.30
  11  -3 -15  115.29    5.30
 -11   3  15  103.69    5.80
 -11   3  15  108.29    6.90
 -11   3  15  106.39    6.00
  11   3 -15  105.29    7.10
  -9  -3  15   73.19    5.20
   9  -3 -15   85.19    4.30
  -9  -3  15   70.59    5.40
  -9   3  15   75.99    5.20
  -9   3  15   69.39    5.40
   9   3 -15   75.19    5.80
  -9   3  15   81.29    5.20
  -7  -3  15   96.69    6.50
   7  -3 -15   85.89    4.70
   7  -3 -15   89.59    4.40
  -7  -3  15   88.79    6.00
   7   3 -15   87.29    6.20
  -7   3  15   94.39    6.10
  -7   3  15   85.19    5.80
  -5  -3  15  153.78    8.50
   5  -3 -15  147.79    6.30
   5  -3 -15  144.59    6.70
  -5  -3  15  133.59    8.40
  -5   3  15  151.68    7.80
   5   3 -15  148.99    8.20
  -5   3  15  154.58    8.40
  -3  -3  15   25.60    4.00
   3  -3 -15   26.20    2.70
  -3  -3  15   17.30    3.50
   3  -3 -15   20.10    2.10
   3   3 -15   20.40    3.30
  -3   3  15   26.80    3.20
  -3   3  15   23.70    3.60
  -1  -3  15   46.00    5.20
  -1  -3  15   55.99    5.50
   1  -3 -15   44.10    3.50
   1  -3 -15   41.80    3.20
  -1   3  15   39.30    4.70
   1   3 -15   50.89    4.60
  -1  -3 -15   31.80    3.00
   1  -3  15   42.70    5.20
  -1  -3 -15   39.40    3.60
   1  -3  15   30.60    4.70
   1   3  15   34.20    4.60
  -3  -3 -15    4.10    1.60
  24  -4 -15   39.90    4.30
 -24  -4  15   47.70    3.60
 -24  -4  15   40.20    5.50
 -24   4  15   40.20    5.50
  22  -4 -15   59.79    4.60
 -22  -4  15   65.59    6.40
 -22  -4  15   58.79    3.90
 -22   4  15   51.19    6.00
  20  -4 -15   34.20    3.40
 -20  -4  15   24.20    2.70
 -20  -4  15   31.30    4.60
  20   4 -15   27.40    4.40
 -20   4  15   25.10    4.40
  18  -4 -15   90.19    5.10
 -18  -4  15   79.79    4.80
  18   4 -15   85.19    6.70
 -18   4  15   91.59    6.90
  16  -4 -15   15.40    2.20
 -16  -4  15   13.90    2.30
  16   4 -15   11.60    3.10
 -16   4  15   16.20    3.30
  14  -4 -15  155.78    7.00
 -14  -4  15  162.18    7.60
 -14   4  15  148.59    8.80
  14   4 -15  145.09    8.90
  12  -4 -15   49.99    3.30
 -12  -4  15   41.10    3.90
 -12   4  15   49.00    3.70
  12   4 -15   56.09    5.30
 -12   4  15   46.90    4.80
 -10  -4  15   38.20    3.80
  10  -4 -15   32.50    2.80
 -10   4  15   30.60    3.90
  10   4 -15   24.30    3.80
 -10   4  15   27.60    3.10
   8  -4 -15  104.49    5.00
  -8  -4  15  102.19    6.40
   8  -4 -15  110.69    5.40
  -8  -4  15   91.29    6.60
   8   4 -15  112.49    7.20
  -8   4  15  118.99    6.60
  -8   4  15  111.79    6.80
   6  -4 -15   64.09    4.00
  -6  -4  15   66.39    5.30
   6  -4 -15   61.99    3.60
  -6  -4  15   70.69    5.70
  -6   4  15   54.89    4.80
   6   4 -15   59.19    5.30
  -6   4  15   70.69    5.10
  -4  -4  15   44.60    4.90
  -4  -4  15   52.79    5.10
   4  -4 -15   43.50    3.40
   4  -4 -15   49.80    3.20
  -4   4  15   41.60    4.40
  -4   4  15   48.70    4.10
   4   4 -15   40.50    4.40
  -2  -4  15   22.70    4.00
   2  -4 -15   29.30    3.00
   2  -4 -15   24.70    2.40
  -2  -4  15   30.80    4.30
  -2   4  15   25.10    3.70
   2   4 -15   28.90    3.70
   0  -4 -15   60.29    3.90
   0  -4 -15   60.89    4.30
   0  -4  15   47.50    5.50
   0  -4  15   52.49    5.60
   0   4  15   50.29    5.30
   0   4 -15   62.89    5.20
   2  -4  15   61.79    6.30
  -2  -4 -15   62.09    4.20
  -2  -4 -15   63.09    4.60
   2  -4  15   51.69    6.00
   2   4  15   57.29    5.90
 -23  -5  15   70.59    6.70
  23  -5 -15   73.79    5.40
 -23  -5  15   70.79    4.50
 -23   5  15   66.29    6.80
 -21  -5  15   57.99    4.00
  21  -5 -15   58.09    4.50
 -21  -5  15   60.19    6.20
 -21   5  15   53.09    5.90
  21   5 -15   48.10    5.60
 -19  -5  15   13.70    2.30
  19  -5 -15   12.50    2.40
  19   5 -15    9.50    3.10
 -19   5  15   13.80    3.30
  17  -5 -15   24.60    2.80
 -17  -5  15   19.50    2.70
 -17   5  15   18.50    3.70
  17   5 -15   15.30    3.50
 -15  -5  15   62.59    4.50
  15   5 -15   68.19    6.10
 -15   5  15   57.69    5.60
 -13  -5  15   -0.80    1.20
  13  -5 -15    0.30    0.80
  13   5 -15    0.40    1.60
 -13   5  15    0.20    1.50
  11  -5 -15   11.70    1.90
 -11  -5  15   18.00    2.90
  11   5 -15   14.80    3.30
 -11   5  15   14.50    3.00
  -9  -5  15   62.79    4.90
   9  -5 -15   50.89    3.60
   9   5 -15   62.89    5.70
  -9   5  15   62.09    4.50
  -9   5  15   58.99    4.90
   7  -5 -15    7.00    1.60
  -7  -5  15    5.80    2.30
   7  -5 -15    7.30    1.40
  -7  -5  15    6.70    2.40
  -7   5  15    5.40    2.00
   7   5 -15    3.30    2.00
  -7   5  15    8.90    2.50
   5  -5 -15   22.10    2.30
  -5  -5  15   22.00    3.70
   5  -5 -15   25.60    2.70
  -5  -5  15   28.40    3.90
   5   5 -15   22.80    3.70
  -5   5  15   24.70    3.30
  -5   5  15   21.80    3.20
   3  -5 -15   67.59    4.40
  -3  -5  15   60.49    5.90
  -3  -5  15   69.59    6.00
   3  -5 -15   63.79    4.00
   3   5 -15   65.99    5.60
  -3   5  15   69.49    5.60
   1  -5 -15   25.40    2.90
  -1  -5  15   16.90    3.70
  -1  -5  15   15.90    3.60
   1  -5 -15   21.90    2.40
  -1   5  15   22.00    3.70
   1   5 -15   29.00    3.90
   1  -5  15   33.00    4.90
  -1  -5 -15   39.30    3.70
   1  -5  15   41.20    5.30
  -1  -5 -15   41.40    3.40
   1   5  15   31.80    4.50
  -1   5 -15   37.20    4.30
 -22  -6  15    9.20    2.10
  22  -6 -15    9.10    2.30
 -22  -6  15   14.20    3.60
  22   6 -15   13.10    3.50
 -22   6  15    4.90    2.80
  20  -6 -15   14.30    2.70
 -20  -6  15   10.30    2.20
 -20   6  15   12.10    3.20
  20   6 -15   14.00    3.40
 -18  -6  15   43.40    3.60
  18  -6 -15   43.40    3.80
  18   6 -15   39.30    5.10
 -18   6  15   40.70    5.20
  16  -6 -15   -0.30    1.10
 -16  -6  15    0.60    1.40
  16   6 -15   -1.70    1.40
 -16   6  15    2.00    1.80
  14  -6 -15    6.70    1.70
 -14  -6  15    6.60    2.00
  14   6 -15    5.90    2.40
 -14   6  15    2.30    1.90
  12  -6 -15    0.80    1.00
 -12  -6  15   -0.30    1.30
 -12   6  15    1.30    1.50
  12   6 -15    0.40    1.70
 -10  -6  15   15.10    2.90
  10  -6 -15    8.90    1.80
 -10   6  15   19.80    3.40
  10   6 -15   13.70    3.30
   8  -6 -15   -0.10    0.80
  -8  -6  15    1.80    1.70
   8   6 -15    0.20    1.60
  -8   6  15    0.40    1.50
  -8   6  15    0.60    1.30
   6  -6 -15    9.30    1.90
   6  -6 -15    7.20    1.50
  -6  -6  15    7.30    2.60
  -6  -6  15   13.30    2.90
   6   6 -15    7.10    2.40
  -6   6  15   11.20    2.60
  -6   6  15   14.50    2.60
  -4  -6  15   -1.60    1.70
  -4  -6  15    1.50    1.70
   4  -6 -15    0.90    1.10
   4  -6 -15    0.00    0.80
   4   6 -15    1.40    1.90
  -2  -6  15   14.70    3.50
  -2  -6  15   21.20    4.00
   2  -6 -15   16.80    2.20
   2  -6 -15   17.60    2.70
   2   6 -15   14.40    3.30
   0  -6 -15    2.10    1.40
   0  -6  15    2.40    2.30
   0  -6 -15    2.20    1.20
   0  -6  15    1.80    2.00
   0   6  15    4.00    2.00
   0   6 -15    4.90    2.30
 -21  -7  15   -1.40    1.10
  21  -7 -15    1.10    1.60
  21   7 -15    0.00    2.00
 -21   7  15   -0.10    2.20
  19  -7 -15    0.00    1.30
 -19  -7  15   -1.30    1.20
  19   7 -15    2.50    2.00
 -19   7  15    3.60    2.30
 -17  -7  15    2.60    1.60
  17  -7 -15    1.40    1.40
 -17   7  15    0.10    1.80
  17   7 -15    2.20    2.10
 -15  -7  15   17.60    2.80
  15  -7 -15   15.10    2.40
 -15   7  15   14.40    3.30
  15   7 -15   17.80    3.60
  13  -7 -15    1.00    1.00
 -13  -7  15    1.80    1.60
 -13   7  15    1.90    1.90
  13   7 -15    2.30    2.00
  11  -7 -15   -0.10    0.90
 -11  -7  15    0.70    1.50
  11   7 -15    0.30    1.60
 -11   7  15    0.70    1.60
   9  -7 -15    2.40    1.30
  -9  -7  15    2.40    1.80
   9   7 -15    3.60    2.10
  -9   7  15    3.40    1.90
   7  -7 -15    6.90    1.50
  -7  -7  15    3.00    1.90
   7  -7 -15    6.20    1.70
   7   7 -15    7.30    2.70
  -7   7  15   10.40    2.00
  -7   7  15   13.20    3.00
  -5  -7  15    9.70    2.90
  -5  -7  15    8.10    2.80
   5  -7 -15    8.20    1.70
   5  -7 -15    5.80    1.70
   5   7 -15    9.70    2.80
  -5   7  15   14.50    2.40
  -5   7  15    9.90    2.60
   3  -7 -15   -0.30    1.00
  -3  -7  15   -1.00    1.60
  -3  -7  15   -0.90    1.70
   3  -7 -15   -0.20    0.90
  -3   7  15    0.00    1.30
   3   7 -15   -0.50    1.70
   1  -7 -15    0.60    1.00
  -1  -7  15   -0.30    1.90
   1  -7 -15   -0.70    1.00
  -1  -7  15    3.60    2.40
  -1   7  15   -1.90    1.20
   1   7 -15   -0.10    1.60
 -20  -8  15    5.50    2.00
  20  -8 -15    4.60    2.00
  20   8 -15    7.20    2.70
 -20   8  15    5.50    2.90
  18  -8 -15   18.60    2.90
 -18  -8  15   15.40    2.60
 -18   8  15   13.70    3.60
  18   8 -15   25.60    4.50
  16  -8 -15    1.40    1.40
 -16  -8  15    0.10    1.30
  16   8 -15   -0.10    1.70
 -16   8  15    1.30    2.10
  14  -8 -15   16.90    2.50
 -14  -8  15   25.80    3.30
 -14   8  15   23.90    4.00
  14   8 -15   22.10    4.10
  12  -8 -15   14.80    2.30
 -12  -8  15   16.10    2.90
  12   8 -15   10.70    3.10
 -12   8  15    9.40    2.80
 -10  -8  15   16.60    3.00
  10  -8 -15   13.80    2.20
 -10   8  15   15.50    3.30
  10   8 -15   16.60    3.60
  -8  -8  15    5.20    2.30
   8  -8 -15    8.10    1.80
   8   8 -15    5.00    2.40
  -8   8  15    9.30    2.60
  -6  -8  15   59.09    5.50
   6  -8 -15   58.99    4.20
   6  -8 -15   62.69    3.90
   6   8 -15   60.69    5.80
  -6   8  15   52.79    4.90
  -4  -8  15    0.40    1.80
   4  -8 -15   -0.50    0.80
   4  -8 -15    0.30    1.00
  -4  -8  15    0.70    1.80
   4   8 -15   -0.90    1.60
  -4   8  15    0.00    1.40
  -2  -8  15    8.00    3.00
  -2  -8  15    6.00    2.60
   2  -8 -15    8.50    1.80
   2  -8 -15   12.40    2.40
  -2   8  15    9.70    2.40
   2   8 -15   13.40    3.20
 -19  -9  15    0.10    1.30
  19  -9 -15    3.20    1.80
 -19   9  15    3.40    2.50
 -17  -9  15   47.00    4.00
  17  -9 -15   40.60    3.90
 -17   9  15   45.50    5.70
  17   9 -15   43.00    5.70
  15  -9 -15   17.40    2.70
 -15  -9  15   14.30    2.80
  15   9 -15   18.90    4.00
 -15   9  15   14.00    3.40
  13  -9 -15   12.00    2.30
 -13  -9  15   10.40    2.50
 -13   9  15   18.60    3.70
  13   9 -15   13.70    3.40
  11  -9 -15    7.60    1.90
 -11  -9  15    6.00    2.30
 -11   9  15    6.30    2.50
  11   9 -15    8.50    3.10
   9  -9 -15   36.10    3.40
  -9  -9  15   33.80    4.30
  -9   9  15   44.70    4.80
   9   9 -15   35.50    4.90
  -7  -9  15   32.30    4.40
   7  -9 -15   32.50    3.20
   7   9 -15   31.10    4.70
  -7   9  15   45.00    4.70
  -5  -9  15    8.60    2.90
  -5  -9  15   10.60    3.10
   5  -9 -15   11.80    2.30
   5  -9 -15   12.20    2.00
   5   9 -15   11.80    3.40
   3  -9 -15   67.09    4.70
   3  -9 -15   64.19    4.20
  -3  -9  15   59.99    6.00
  -3  -9  15   56.39    6.10
   3   9 -15   64.09    6.10
  16 -10 -15   35.20    3.70
 -16  10  15   27.20    4.70
  16  10 -15   35.20    5.30
  14 -10 -15    9.90    2.10
 -14 -10  15   12.40    2.70
 -14  10  15   15.00    3.60
  14  10 -15   10.30    3.30
 -12 -10  15   11.60    2.70
  12 -10 -15   10.90    2.20
 -12  10  15   10.40    3.10
  12  10 -15    7.40    2.90
 -10 -10  15   45.40    4.80
  10 -10 -15   38.50    3.70
 -10  10  15   57.59    5.60
  10  10 -15   47.80    5.80
   8 -10 -15   40.10    3.70
  -8 -10  15   38.80    4.70
  -8  10  15   43.50    4.80
   8  10 -15   35.60    5.10
  -6 -10  15   16.00    3.60
   6 -10 -15   13.70    2.40
   6 -10 -15   16.70    2.30
   6  10 -15   13.70    3.50
  24   0 -16   97.09    6.30
 -24   0  16  123.39    8.60
  22   0 -16   52.59    4.10
 -22   0  16   53.59    6.00
  20   0 -16  110.69    5.90
 -20   0  16  110.89    7.90
 -18   0  16   82.99    4.80
  18   0 -16   77.59    4.60
 -18   0  16   82.39    6.50
 -16   0  16  145.69    7.10
 -16   0  16  155.78    9.10
  16   0 -16  154.78    6.60
 -14   0  16   69.69    4.70
 -14   0  16   74.79    5.10
 -14   0  16   72.89    5.90
 -12   0  16  375.56   15.60
 -12   0  16  368.26   14.10
  12   0 -16  363.56   12.50
 -12   0  16  345.67   14.20
  10   0 -16  150.08    6.40
 -10   0  16  166.68    8.60
 -10   0  16  155.28    8.70
 -10   0  16  166.58    8.30
  -8   0  16  139.89    8.00
   8   0 -16  148.89    6.10
  -8   0  16  133.19    7.90
  -8   0  16  134.69    7.70
   6   0 -16  144.59    5.80
  -6   0  16  140.59    8.30
  -6   0  16  133.69    7.90
  -6   0  16  128.39    7.60
   6   0 -16  141.59    6.10
  -4   0  16   58.19    5.50
  -4   0  16   51.99    5.20
   4   0 -16   49.50    3.40
   4   0 -16   57.99    3.30
  -4   0  16   60.19    4.80
   2   0 -16  121.29    5.50
  -2   0  16  119.19    8.20
  -2   0  16  121.39    8.00
   2   0 -16  115.59    5.90
   0   0 -16   47.30    3.40
   0   0 -16   51.29    3.80
   0   0  16   51.39    5.80
  23  -1 -16   63.39    4.70
 -23  -1  16   63.89    6.40
 -23   1  16   65.19    6.60
  21  -1 -16   95.09    5.70
 -21  -1  16  116.79    8.10
 -21   1  16  107.59    7.90
  21   1 -16  104.59    5.80
 -19  -1  16   75.49    6.40
 -19  -1  16   81.69    4.70
  19  -1 -16   73.39    4.50
 -19   1  16   72.69    6.30
  19   1 -16   71.89    4.50
 -17  -1  16  101.49    5.50
 -17  -1  16   93.99    7.00
  17  -1 -16   95.69    5.00
  17   1 -16   92.49    4.90
 -17   1  16   82.39    6.70
  15  -1 -16  201.18    8.20
 -15  -1  16  207.58   10.90
 -15  -1  16  199.98    9.00
 -15   1  16  208.58    9.10
  15   1 -16  214.58    8.10
 -15   1  16  202.88    8.80
 -15   1  16  206.68   10.80
 -13  -1  16  113.19    6.40
 -13  -1  16  109.69    7.30
  13  -1 -16  122.39    5.60
 -13  -1  16  113.29    6.70
 -13   1  16  123.69    6.50
 -13   1  16  120.99    6.60
 -13   1  16  115.99    7.60
 -11  -1  16  115.79    7.10
 -11  -1  16  128.49    7.10
  11  -1 -16  122.49    5.60
 -11  -1  16  132.69    7.90
 -11   1  16  117.39    7.50
  11   1 -16  128.69    7.80
 -11   1  16  129.09    7.20
 -11   1  16  129.09    6.90
  11   1 -16  125.49    5.40
  -9  -1  16  102.59    6.50
  -9  -1  16   99.89    6.60
  -9  -1  16  101.49    6.70
   9  -1 -16   99.29    4.80
  -9   1  16   97.59    6.20
  -9   1  16   90.39    6.30
   9   1 -16   95.19    6.60
   9   1 -16  102.19    4.60
  -9   1  16  100.29    6.50
  -7  -1  16  136.79    7.80
  -7  -1  16  118.59    7.40
   7  -1 -16  121.59    5.80
  -7  -1  16  137.49    8.10
   7  -1 -16  128.49    5.50
   7   1 -16  140.69    5.70
   7   1 -16  125.59    7.60
  -7   1  16  128.59    7.50
   7   1 -16  131.99    5.40
  -7   1  16  133.59    7.60
  -7   1  16  134.49    7.90
  -5  -1  16   58.59    5.60
   5  -1 -16   64.39    4.00
  -5  -1  16   81.59    6.10
  -5  -1  16   71.99    5.30
   5  -1 -16   68.99    3.80
   5   1 -16   71.99    5.50
   5   1 -16   79.09    3.80
  -5   1  16   74.69    5.80
  -5   1  16   79.39    5.50
  -5   1  16   68.69    5.90
   5   1 -16   71.79    4.00
  -3  -1  16  135.19    7.40
  -3  -1  16  125.19    8.10
  -3  -1  16  111.59    8.00
   3  -1 -16  123.79    6.10
   3  -1 -16  126.89    5.70
   3   1 -16  123.09    5.90
   3   1 -16  124.69    5.50
   3   1 -16  140.19    7.50
  -3   1  16  128.29    8.30
  -1  -1  16  121.39    8.00
   1  -1 -16   92.89    5.00
  -1  -1  16   91.19    7.40
   1  -1 -16   94.89    5.40
  -1   1  16   96.19    7.40
   1   1 -16   99.09    4.90
   1   1 -16   99.69    5.30
  -1  -1 -16   59.89    4.30
  -1  -1 -16   58.79    3.90
  -1   1 -16   65.69    4.30
  -1   1 -16   52.69    3.70
  24  -2 -16   50.69    4.50
 -24  -2  16   43.70    5.70
 -24   2  16   55.19    6.30
 -22  -2  16   35.90    5.20
  22  -2 -16   32.70    3.50
 -22   2  16   32.10    5.00
 -20  -2  16   30.20    4.60
  20  -2 -16   28.00    3.00
 -20  -2  16   30.00    3.00
 -20   2  16   26.50    4.50
 -18  -2  16   61.79    4.20
 -18  -2  16   46.00    5.40
  18  -2 -16   53.99    3.80
 -18   2  16   51.39    5.60
 -16  -2  16   29.80    4.30
 -16  -2  16   22.90    2.90
  16  -2 -16   25.60    2.60
  16   2 -16   22.40    4.00
 -16   2  16   20.00    3.80
 -14  -2  16  118.39    6.50
 -14  -2  16  113.99    7.60
  14  -2 -16  126.39    5.80
 -14   2  16  122.09    6.20
 -14   2  16  113.09    7.60
 -14   2  16  125.09    6.50
  14   2 -16  114.99    7.80
 -12  -2  16   12.60    2.60
  12  -2 -16   12.20    1.80
 -12  -2  16   13.60    3.10
 -12  -2  16   14.90    2.80
  12   2 -16   14.20    3.30
 -12   2  16   10.10    2.70
 -12   2  16   13.80    2.60
 -12   2  16   14.10    2.50
 -10  -2  16   60.79    4.70
 -10  -2  16   52.39    4.70
  10  -2 -16   47.50    3.20
 -10   2  16   55.29    4.60
  10   2 -16   42.50    4.70
 -10   2  16   56.29    5.00
 -10   2  16   46.10    4.10
   8  -2 -16   81.79    4.10
  -8  -2  16   77.59    5.80
   8  -2 -16   74.49    4.20
  -8  -2  16   79.59    6.10
  -8   2  16   86.29    5.90
  -8   2  16   81.49    5.90
   8   2 -16   84.89    6.20
  -8   2  16   80.39    5.60
   6  -2 -16   18.70    2.20
   6  -2 -16   14.90    1.80
  -6  -2  16   19.00    3.40
  -6  -2  16   14.30    3.20
  -6   2  16   11.40    2.60
  -6   2  16   12.50    2.90
   6   2 -16   15.60    3.10
  -4  -2  16   45.80    5.20
   4  -2 -16   46.60    3.10
   4  -2 -16   47.20    3.50
  -4  -2  16   47.00    5.00
   4   2 -16   48.10    4.70
  -4   2  16   52.99    4.40
  -4   2  16   48.20    5.00
   2  -2 -16   29.40    3.00
  -2  -2  16   32.00    4.60
  -2  -2  16   36.40    4.70
   2  -2 -16   25.10    2.50
   2   2 -16   28.70    3.70
  -2   2  16   29.30    4.30
   0  -2 -16   38.00    3.10
   0  -2  16   30.10    4.80
   0  -2  16   39.10    5.10
   0  -2 -16   36.50    3.40
   0   2  16   36.70    4.90
  23  -3 -16    2.00    1.60
 -23  -3  16    1.60    2.20
 -23   3  16    1.50    2.30
 -21  -3  16    4.10    1.60
  21  -3 -16    2.20    1.50
 -21  -3  16   -1.20    1.70
 -21   3  16    3.40    2.10
 -19  -3  16    0.30    1.70
 -19  -3  16    1.20    1.40
  19  -3 -16    0.10    1.10
 -19   3  16   -0.20    1.70
 -17  -3  16   11.10    3.00
  17  -3 -16   11.80    2.10
 -17  -3  16   14.10    2.40
  17   3 -16   15.00    3.60
 -17   3  16   13.90    3.20
 -15  -3  16   12.40    2.40
 -15   3  16   10.90    2.90
  15   3 -16   12.30    3.20
 -13  -3  16    6.80    2.10
  13  -3 -16    5.10    1.40
 -13   3  16    4.30    2.10
 -13   3  16    8.30    2.10
 -13   3  16    6.00    1.90
  13   3 -16    4.10    2.30
  11  -3 -16    2.70    1.10
 -11  -3  16    1.20    1.70
 -11  -3  16    4.90    2.00
 -11   3  16    3.10    1.60
  11   3 -16    3.80    2.10
 -11   3  16    4.10    2.10
 -11   3  16    2.10    1.70
  -9  -3  16    1.70    1.70
  -9  -3  16    1.30    1.60
   9  -3 -16    1.40    1.00
   9   3 -16    2.40    1.80
  -9   3  16    2.90    1.80
  -9   3  16    2.20    1.80
   7  -3 -16    0.10    0.80
   7  -3 -16    0.00    0.80
  -7  -3  16   -0.30    1.40
  -7  -3  16    0.10    1.60
  -7   3  16    1.00    1.70
  -7   3  16    0.20    1.30
   7   3 -16   -0.70    1.60
   5  -3 -16   10.50    1.90
  -5  -3  16   11.70    2.90
   5  -3 -16   10.00    1.60
  -5  -3  16    8.40    2.80
  -5   3  16   11.60    2.90
  -5   3  16   12.30    2.60
   5   3 -16   10.20    2.80
   3  -3 -16    4.80    1.50
  -3  -3  16    8.60    2.80
   3  -3 -16    7.10    1.60
  -3  -3  16    4.20    2.30
   3   3 -16    4.60    2.10
  -3   3  16    8.00    2.60
  -1  -3  16    0.30    2.00
   1  -3 -16    1.90    1.30
   1  -3 -16   -1.00    0.80
  -1  -3  16   -0.10    1.90
   1   3 -16    0.60    1.50
  -1   3  16   -0.60    1.80
 -22  -4  16    2.30    1.50
 -22  -4  16    2.40    2.40
  22  -4 -16    1.70    1.50
 -22   4  16    2.30    2.30
 -20  -4  16    1.20    1.40
  20  -4 -16    1.50    1.30
 -20  -4  16    2.30    2.10
 -20   4  16    2.90    2.10
  20   4 -16    1.30    2.00
 -18  -4  16   12.70    2.30
  18  -4 -16   10.00    2.10
 -18  -4  16   10.40    2.80
 -18   4  16   17.10    3.70
  18   4 -16    4.50    2.30
 -16  -4  16   14.60    2.60
  16  -4 -16   16.90    2.30
 -16   4  16   20.30    3.70
  16   4 -16   13.90    3.50
  14  -4 -16   18.60    2.30
 -14  -4  16   14.50    2.70
  14   4 -16   21.70    3.90
 -14   4  16   16.60    3.30
  12  -4 -16   45.80    3.30
 -12  -4  16   45.70    4.30
 -12   4  16   46.10    4.80
  12   4 -16   47.20    5.10
 -10  -4  16   23.70    3.50
  10  -4 -16   27.50    2.60
 -10  -4  16   22.70    3.40
 -10   4  16   25.40    3.20
 -10   4  16   26.70    3.70
  10   4 -16   21.90    3.80
  -8  -4  16   36.80    4.40
   8  -4 -16   35.20    2.70
  -8  -4  16   42.20    4.40
   8  -4 -16   42.80    3.10
  -8   4  16   32.70    3.90
   8   4 -16   46.70    4.90
  -8   4  16   30.10    3.70
  -6  -4  16    7.60    2.60
   6  -4 -16    5.00    1.30
  -6  -4  16   11.10    3.00
   6  -4 -16    9.40    1.80
   6   4 -16   11.20    2.80
  -6   4  16    7.10    2.40
  -6   4  16    8.30    2.40
  -4  -4  16    6.60    2.70
   4  -4 -16    3.20    1.20
   4  -4 -16    4.60    1.50
  -4  -4  16    5.20    2.60
   4   4 -16    5.70    2.20
  -4   4  16    2.40    1.90
  -2  -4  16   10.70    3.10
   2  -4 -16   12.20    1.90
  -2  -4  16    9.90    3.20
   2  -4 -16   12.70    2.30
  -2   4  16    8.10    2.80
   2   4 -16   11.20    2.90
  21  -5 -16   65.39    4.80
 -21  -5  16   67.89    4.60
 -21  -5  16   55.99    6.30
 -21   5  16   75.09    7.00
  21   5 -16   71.19    6.80
  19  -5 -16   59.29    4.30
 -19  -5  16   55.59    4.20
 -19   5  16   55.29    6.00
  19   5 -16   55.19    6.00
  17  -5 -16   91.79    5.20
 -17  -5  16   87.49    5.50
 -17   5  16   94.39    7.20
  17   5 -16   87.29    7.00
 -15  -5  16   84.49    5.40
  15  -5 -16   65.99    4.50
 -15   5  16   74.19    6.20
  15   5 -16   88.49    6.80
 -13  -5  16  162.48    8.40
  13  -5 -16  166.78    7.40
 -13   5  16  164.38    9.40
  13   5 -16  154.28    9.40
 -11  -5  16   72.79    5.40
  11  -5 -16   69.19    4.30
 -11   5  16   77.79    5.90
  11   5 -16   63.09    5.90
  -9  -5  16   55.19    5.00
   9  -5 -16   50.69    3.60
  -9  -5  16   44.30    4.80
   9   5 -16   59.69    5.60
  -9   5  16   55.09    4.50
  -9   5  16   54.69    5.00
   7  -5 -16   93.69    5.20
  -7  -5  16   85.59    6.70
  -7  -5  16   99.49    6.80
   7  -5 -16   88.69    4.70
  -7   5  16   85.69    6.10
  -7   5  16   98.99    6.30
   7   5 -16   91.89    6.80
  -5  -5  16   33.70    4.60
  -5  -5  16   47.10    5.10
   5  -5 -16   40.00    3.30
   5  -5 -16   37.30    3.00
   5   5 -16   41.20    4.80
  -5   5  16   42.00    4.30
   3  -5 -16   76.99    5.00
  -3  -5  16   80.59    7.10
   3  -5 -16   93.69    5.00
  -3  -5  16   99.59    7.30
  -3   5  16   80.99    6.40
   3   5 -16   89.09    6.60
   1  -5 -16   55.99    4.30
  -1  -5  16   46.30    5.60
  -1  -5  16   44.80    5.70
   1  -5 -16   54.69    3.80
   1   5 -16   54.29    5.30
  -1   5  16   52.09    5.50
  20  -6 -16  104.99    6.30
 -20  -6  16   95.79    5.80
 -20   6  16  110.79    8.20
  20   6 -16  115.59    8.30
 -18  -6  16  105.09    6.20
  18  -6 -16  112.09    6.20
  18   6 -16  105.49    8.00
 -18   6  16  111.49    8.10
 -16  -6  16   97.59    6.00
 -16   6  16  105.29    7.60
  16   6 -16  103.09    7.60
  14  -6 -16  233.38    9.70
 -14  -6  16  225.48   10.40
 -14   6  16  235.88   11.90
  14   6 -16  218.18   11.90
  12  -6 -16   76.19    4.70
 -12  -6  16   75.79    5.60
  12   6 -16   78.59    6.50
 -12   6  16   89.09    6.50
 -10  -6  16  140.59    8.10
  10  -6 -16  131.49    6.60
 -10   6  16  153.98    8.60
  10   6 -16  134.89    8.70
  -8  -6  16  141.79    8.30
  -8  -6  16  127.09    8.30
   8  -6 -16  134.99    6.60
   8   6 -16  142.89    8.80
  -8   6  16  147.39    8.30
   6  -6 -16   64.99    4.00
  -6  -6  16   80.09    6.20
   6  -6 -16   61.49    4.30
  -6  -6  16   54.69    5.60
  -6   6  16   65.49    5.30
   6   6 -16   60.49    5.90
  -6   6  16   64.39    5.20
   4  -6 -16  100.59    5.30
  -4  -6  16  104.09    7.90
   4  -6 -16  104.59    5.90
  -4  -6  16  102.99    7.50
   4   6 -16   98.59    7.20
   2  -6 -16   85.49    4.90
  -2  -6  16   77.09    7.10
  -2  -6  16   81.59    6.80
   2  -6 -16   83.49    5.40
   2   6 -16   97.39    7.00
 -19  -7  16   59.99    4.60
  19  -7 -16   75.89    5.10
 -19   7  16   69.89    6.80
  19   7 -16   62.69    6.60
  17  -7 -16  145.89    7.30
 -17  -7  16  147.19    7.70
  17   7 -16  139.79    9.30
 -17   7  16  137.69    9.20
  15  -7 -16   79.99    5.10
 -15  -7  16   92.69    5.90
  15   7 -16   94.79    7.30
 -15   7  16   77.59    6.60
 -13  -7  16   57.79    4.90
  13  -7 -16   63.39    4.40
  13   7 -16   72.69    6.70
 -13   7  16   75.79    6.20
 -11  -7  16  116.69    7.30
  11  -7 -16  126.69    6.40
 -11   7  16  121.69    7.90
  11   7 -16  127.29    8.50
   9  -7 -16  137.39    6.90
  -9  -7  16  149.09    8.60
   9   7 -16  144.29    9.20
  -9   7  16  153.68    8.60
   7  -7 -16   61.99    3.90
  -7  -7  16   50.69    5.50
  -7  -7  16   63.19    5.70
   7  -7 -16   52.69    4.00
   7   7 -16   52.69    5.60
  -7   7  16   70.09    5.40
  -5  -7  16  131.39    8.60
   5  -7 -16  146.39    7.10
   5  -7 -16  143.69    6.60
  -5   7  16  135.59    7.10
   5   7 -16  127.79    8.50
  -3  -7  16    6.30    2.60
   3  -7 -16    6.50    1.70
   3  -7 -16    5.10    1.70
  -3   7  16    9.70    2.40
 -18  -8  16   50.69    4.30
  18  -8 -16   49.10    4.30
 -18   8  16   43.70    5.70
  18   8 -16   59.09    6.30
 -16  -8  16   53.49    4.70
  16   8 -16   62.49    6.50
 -16   8  16   69.79    6.60
 -14  -8  16   25.30    3.60
  14  -8 -16   26.50    3.10
 -14   8  16   31.40    4.60
  14   8 -16   32.10    5.00
  12  -8 -16   40.60    3.60
 -12  -8  16   36.50    4.20
  12   8 -16   36.50    5.20
 -12   8  16   49.30    5.30
  10  -8 -16   36.20    3.40
 -10  -8  16   24.80    3.90
  10   8 -16   35.00    4.90
 -10   8  16   30.30    4.30
   8  -8 -16   23.20    2.80
  -8  -8  16   16.10    3.50
  -8   8  16   23.30    3.80
   8   8 -16   21.40    4.10
   6  -8 -16   65.89    4.60
   6  -8 -16   68.99    4.30
  -6  -8  16   77.39    6.30
  -6  -8  16   55.59    6.00
   6   8 -16   72.59    6.60
 -15  -9  16   -0.10    1.60
  15  -9 -16   -1.20    0.90
 -15   9  16    0.40    1.90
  15   9 -16    0.90    2.10
 -13  -9  16    0.30    1.70
  13  -9 -16   -0.70    0.90
 -13   9  16   -0.70    1.80
  13   9 -16    2.20    2.40
 -11  -9  16   21.30    3.60
  11  -9 -16   18.00    2.70
  11   9 -16   20.80    4.30
 -11   9  16   28.50    4.30
  -9  -9  16    1.30    2.10
   9  -9 -16   -0.40    0.90
  -9   9  16    1.80    2.10
   9   9 -16    0.10    2.00
 -22   0  17    3.10    2.30
  22   0 -17    0.30    1.40
  20   0 -17   -0.10    1.20
 -20   0  17    1.10    1.80
 -18   0  17   -0.10    1.60
  18   0 -17    0.60    1.10
 -16   0  17    0.40    1.50
 -16   0  17    2.00    1.80
  16   0 -17   -0.50    1.00
 -16   0  17   -0.40    1.50
 -14   0  17   -0.20    1.40
 -14   0  17    0.70    1.50
 -14   0  17    0.00    1.40
 -12   0  17    0.40    1.70
  12   0 -17    0.40    0.90
 -12   0  17   -1.50    1.50
 -12   0  17    1.70    1.70
 -10   0  17    1.00    1.70
  10   0 -17    0.10    0.70
 -10   0  17    0.40    1.60
 -10   0  17    1.00    1.50
  -8   0  17   -1.80    1.10
  -8   0  17    0.70    1.60
   8   0 -17   -1.60    0.60
  -8   0  17    1.60    1.90
  -6   0  17    0.00    1.80
  -6   0  17    1.10    1.50
   6   0 -17   -0.70    0.70
  -6   0  17   -0.50    1.70
   6   0 -17   -0.90    0.70
  -4   0  17    4.50    2.40
   4   0 -17    1.00    0.90
   4   0 -17   -0.10    0.90
  -4   0  17    2.40    2.10
   2   0 -17    1.00    1.10
  -2   0  17    0.20    2.10
   2   0 -17   -0.10    0.90
  21  -1 -17    2.40    1.60
 -21  -1  17   -0.90    1.70
 -21   1  17    2.60    2.10
  19  -1 -17   -1.40    1.00
 -19  -1  17   -0.10    1.70
 -19   1  17    0.70    1.80
 -17  -1  17   26.20    4.30
 -17  -1  17   33.20    3.40
  17  -1 -17   35.90    3.00
 -17   1  17   33.20    4.70
 -15  -1  17    2.80    1.90
 -15  -1  17    0.90    1.50
  15  -1 -17    2.50    1.30
 -15  -1  17    2.80    1.70
 -15   1  17    1.30    1.70
 -15   1  17    0.50    1.50
 -15   1  17    1.60    1.60
 -13  -1  17   13.80    3.20
 -13  -1  17   15.80    2.90
  13  -1 -17   10.90    1.80
 -13  -1  17   12.40    2.60
 -13   1  17   12.40    2.60
 -13   1  17   14.90    2.70
 -13   1  17   10.90    2.90
  11  -1 -17    0.00    0.70
 -11  -1  17   -0.20    1.60
 -11  -1  17   -1.50    1.50
 -11  -1  17    1.00    1.70
 -11   1  17   -1.70    1.40
 -11   1  17    0.70    1.50
 -11   1  17   -1.60    1.40
   9  -1 -17    0.70    0.90
  -9  -1  17    1.30    1.60
  -9  -1  17    2.70    1.80
  -9  -1  17    0.20    1.70
  -9   1  17    0.30    1.50
  -9   1  17    2.60    1.80
  -9   1  17    3.40    1.90
  -7  -1  17   11.60    2.80
  -7  -1  17   10.50    2.90
  -7  -1  17    9.40    2.70
   7  -1 -17    9.30    1.50
   7  -1 -17    7.00    1.60
  -7   1  17    9.20    2.50
  -7   1  17   13.10    2.90
  -7   1  17   11.10    2.90
  -5  -1  17    0.80    1.90
   5  -1 -17    0.50    0.80
  -5  -1  17   -1.80    1.30
   5  -1 -17   -0.20    0.90
  -5  -1  17    2.30    2.10
  -5   1  17   -0.40    1.80
  -5   1  17    1.20    1.90
  -5   1  17   -1.10    1.30
  -3  -1  17   30.20    4.60
  -3  -1  17   30.20    4.50
   3  -1 -17   27.60    2.50
   3  -1 -17   28.30    2.90
  -3   1  17   31.90    4.60
 -22  -2  17   64.29    6.70
  22  -2 -17   64.59    4.70
 -22   2  17   51.59    6.10
 -20  -2  17   45.10    3.80
  20  -2 -17   50.29    3.90
 -20  -2  17   46.30    5.70
 -20   2  17   43.20    5.50
 -18  -2  17    5.70    2.00
  18  -2 -17    1.80    1.30
 -18  -2  17   -0.70    1.70
 -18   2  17    3.50    2.10
 -16  -2  17   41.60    5.10
  16  -2 -17   43.20    3.20
 -16  -2  17   34.20    3.60
 -16   2  17   31.80    4.60
 -14  -2  17   13.50    2.70
 -14  -2  17   21.10    3.10
  14  -2 -17   18.40    2.20
 -14  -2  17   15.90    3.50
 -14   2  17   23.00    3.90
  14   2 -17   20.40    3.80
 -12  -2  17   40.40    4.20
 -12  -2  17   37.90    4.70
 -12  -2  17   35.10    3.90
  12  -2 -17   39.80    2.90
 -12   2  17   32.20    3.50
 -12   2  17   30.40    4.20
  12   2 -17   36.30    4.60
 -12   2  17   36.00    3.80
 -10  -2  17   24.50    3.90
  10  -2 -17   17.90    2.10
 -10  -2  17   18.70    3.30
 -10  -2  17   19.70    3.40
 -10   2  17   18.00    3.30
 -10   2  17   22.20    3.30
  10   2 -17   23.40    3.90
 -10   2  17   23.10    3.20
  -8  -2  17    8.80    2.70
  -8  -2  17    5.80    2.40
  -8  -2  17   11.10    2.90
   8  -2 -17    8.90    1.70
  -8   2  17    6.20    2.30
  -8   2  17   11.40    2.80
  -8   2  17    9.50    2.60
   8   2 -17   10.00    2.60
  -6  -2  17    0.30    1.70
  -6  -2  17    2.00    1.70
   6  -2 -17    4.70    1.50
   6  -2 -17    2.30    1.10
  -6  -2  17    5.10    2.40
  -6   2  17    0.70    2.00
  -6   2  17    0.70    1.60
   6   2 -17    1.30    1.90
  -4  -2  17   66.99    5.60
   4  -2 -17   80.19    4.40
   4  -2 -17   73.49    4.60
  -4  -2  17   78.09    6.80
  -4  -2  17   79.89    6.60
   4   2 -17   86.39    6.30
  -4   2  17   78.59    6.40
  21  -3 -17   17.80    2.80
 -21  -3  17   18.60    4.00
 -21  -3  17   20.20    2.80
 -21   3  17   20.80    4.20
  19  -3 -17   23.00    2.80
 -19  -3  17   21.30    2.90
 -19  -3  17   19.80    4.10
 -19   3  17   16.70    3.80
 -17  -3  17   30.10    4.50
 -17  -3  17   26.10    3.20
  17  -3 -17   28.70    2.90
 -17   3  17   23.00    4.10
  17   3 -17   22.80    4.20
 -15  -3  17   72.09    5.00
 -15  -3  17   55.09    5.90
  15  -3 -17   67.59    4.20
  15   3 -17   65.99    6.20
 -15   3  17   68.29    6.20
 -13  -3  17   37.10    4.10
 -13  -3  17   39.90    4.10
  13  -3 -17   44.40    3.20
  13   3 -17   39.00    4.90
 -13   3  17   40.90    4.80
  11  -3 -17   21.70    2.40
 -11  -3  17   24.10    3.50
 -11  -3  17   22.00    3.50
 -11   3  17   19.50    3.50
  11   3 -17   26.80    4.10
 -11   3  17   18.90    3.00
  -9  -3  17   10.50    2.90
   9  -3 -17   15.40    2.10
  -9  -3  17   15.60    3.20
  -9   3  17   18.80    3.30
  -9   3  17   25.10    3.50
   9   3 -17   17.90    3.60
  -7  -3  17   28.10    4.10
  -7  -3  17   22.80    3.90
   7  -3 -17   25.70    2.30
   7  -3 -17   22.80    2.50
  -7   3  17   17.40    3.30
   7   3 -17   25.10    4.00
  -7   3  17   24.40    3.50
   5  -3 -17   49.90    3.70
   5  -3 -17   45.50    3.30
  -5  -3  17   52.39    5.60
  -5  -3  17   57.79    5.70
   5   3 -17   48.10    5.00
  -5   3  17   55.79    5.40
  -3  -3  17   33.70    4.90
  -3  -3  17   39.50    5.10
   3  -3 -17   38.80    3.10
   3  -3 -17   37.70    3.50
   3   3 -17   39.40    4.60
  -3   3  17   39.30    4.90
  20  -4 -17   26.30    3.10
 -20  -4  17   29.20    3.30
 -20  -4  17   27.80    4.70
 -20   4  17   29.60    4.70
  20   4 -17   30.50    4.90
 -18  -4  17   50.79    4.30
  18  -4 -17   51.89    3.90
 -18  -4  17   59.09    6.10
 -18   4  17   45.90    5.50
  18   4 -17   54.89    6.00
 -16  -4  17   24.20    3.30
 -16   4  17   15.90    3.50
  16   4 -17   19.90    4.10
  14  -4 -17   81.89    4.80
 -14  -4  17   78.79    5.50
 -14   4  17   83.59    6.60
  14   4 -17   77.19    6.80
  12  -4 -17   18.40    2.30
 -12  -4  17   19.20    3.20
  12   4 -17   23.10    4.10
 -12   4  17   19.90    3.60
 -10  -4  17   48.60    5.00
  10  -4 -17   45.80    3.50
 -10  -4  17   59.49    5.00
 -10   4  17   53.59    5.20
  10   4 -17   56.49    5.60
  -8  -4  17   34.60    4.50
  -8  -4  17   34.10    4.40
   8  -4 -17   29.60    2.90
  -8   4  17   40.00    4.20
   8   4 -17   38.10    4.70
  -8   4  17   31.30    4.00
   6  -4 -17   32.20    2.70
   6  -4 -17   23.20    2.70
  -6  -4  17   32.10    4.50
  -6  -4  17   32.60    4.50
   6   4 -17   23.20    3.90
  -6   4  17   30.80    4.00
   4  -4 -17   38.50    3.50
   4  -4 -17   41.90    3.20
  -4  -4  17   39.60    5.10
  -4  -4  17   40.40    5.00
  -4   4  17   42.50    4.90
   4   4 -17   52.39    5.20
 -19  -5  17   42.00    4.00
  19  -5 -17   39.00    3.70
  19   5 -17   46.10    5.70
 -19   5  17   34.70    5.20
 -17  -5  17   32.50    3.60
  17  -5 -17   36.10    3.40
  17   5 -17   35.80    5.10
 -17   5  17   43.00    5.30
 -15  -5  17   22.30    3.30
  15  -5 -17   23.40    2.80
  15   5 -17   20.90    4.20
 -15   5  17   31.10    4.60
  13  -5 -17   32.80    3.00
 -13  -5  17   29.30    3.80
  13   5 -17   27.80    4.40
 -13   5  17   30.40    4.40
  11  -5 -17   55.99    4.00
 -11  -5  17   65.39    5.30
 -11   5  17   71.89    5.90
  11   5 -17   61.99    6.00
  -9  -5  17   34.30    4.50
  -9  -5  17   35.60    4.30
   9  -5 -17   41.10    3.30
  -9   5  17   41.00    4.60
   9   5 -17   43.30    5.10
   7  -5 -17   34.60    3.20
  -7  -5  17   31.10    4.50
   7  -5 -17   29.30    2.70
  -7  -5  17   37.20    4.70
   7   5 -17   26.60    4.20
  -7   5  17   27.00    3.80
  -7   5  17   28.00    3.70
  -5  -5  17   24.80    4.30
   5  -5 -17   25.70    2.90
   5  -5 -17   30.50    2.80
  -5  -5  17   21.70    4.20
  -5   5  17   27.60    3.90
   5   5 -17   29.50    4.30
 -18  -6  17    9.10    2.40
  18  -6 -17    9.20    2.30
 -18   6  17    8.20    2.90
  18   6 -17   11.70    3.50
 -16  -6  17   11.70    2.70
  16   6 -17   20.60    4.10
 -16   6  17   17.30    3.80
  14  -6 -17    8.30    2.00
 -14  -6  17   10.50    2.70
 -14   6  17    8.60    2.80
  14   6 -17   11.50    3.30
  12  -6 -17    8.90    1.90
 -12  -6  17   13.50    2.90
  12   6 -17   11.20    3.30
 -12   6  17   13.50    3.20
  10  -6 -17    8.30    1.90
 -10  -6  17   13.20    3.00
 -10   6  17   10.90    2.90
  10   6 -17    7.20    2.80
  -8  -6  17   25.00    4.00
   8  -6 -17   17.00    2.40
  -8  -6  17    7.40    2.90
   8   6 -17   17.30    3.70
  -8   6  17   15.90    3.30
   6  -6 -17   45.80    3.80
  -6  -6  17   36.60    5.00
   6  -6 -17   55.19    3.70
  -6  -6  17   55.09    5.70
   6   6 -17   62.09    6.00
 -17  -7  17    6.90    2.30
  17  -7 -17    9.20    2.20
  17   7 -17    7.50    2.90
 -17   7  17    6.90    2.90
  15  -7 -17    6.10    1.80
 -15  -7  17    8.20    2.50
  15   7 -17    5.30    2.70
 -15   7  17    3.00    2.30
  13  -7 -17   -0.70    0.90
 -13  -7  17    0.00    1.80
  13   7 -17   -1.50    1.80
 -13   7  17    1.30    2.00
  11  -7 -17    2.20    1.30
 -11  -7  17    4.60    2.30
 -11   7  17    2.20    2.10
  11   7 -17    5.40    2.60
   9  -7 -17    0.90    1.10
  -9  -7  17    0.40    1.80
  -9  -7  17    0.40    1.80
   9   7 -17    1.30    2.10
  -9   7  17   -0.10    1.70
 -20   0  18   63.09    6.50
 -18   0  18   44.90    5.50
 -16   0  18  256.77   13.10
 -14   0  18   47.30    4.70
 -14   0  18   56.69    4.80
 -14   0  18   57.59    5.70
 -12   0  18  163.38    8.50
 -12   0  18  148.79    8.50
 -12   0  18  144.19    8.90
 -10   0  18   49.40    4.80
 -10   0  18   39.80    4.70
 -10   0  18   41.50    4.80
  -8   0  18   51.59    5.10
  -8   0  18   59.59    5.60
  -8   0  18   40.60    4.70
  -6   0  18  193.68   11.00
  -6   0  18  204.98   10.30
  -6   0  18  202.48   10.90
 -19  -1  18   71.69    6.80
  19  -1 -18   79.69    4.80
 -19   1  18   86.19    7.10
 -17  -1  18   64.79    5.20
 -17  -1  18   60.99    6.30
 -17  -1  18   68.89    4.90
  17  -1 -18   63.49    4.10
 -17   1  18   71.49    6.60
 -15  -1  18  161.78    8.70
 -15  -1  18  162.78    8.40
 -15  -1  18  160.58    9.80
 -15   1  18  166.58    9.80
  13  -1 -18   66.69    4.00
 -13  -1  18   66.69    6.10
 -13  -1  18   69.59    5.40
 -13  -1  18   67.69    5.60
 -13   1  18   65.89    5.40
 -13   1  18   68.29    5.10
 -13   1  18   60.39    5.90
  11  -1 -18  100.09    5.10
 -11  -1  18   93.39    6.60
 -11  -1  18   98.59    7.00
 -11  -1  18   97.59    7.20
 -11   1  18  111.69    6.90
 -11   1  18  111.89    7.40
 -11   1  18  110.69    7.10
  -9  -1  18   95.19    6.90
  -9  -1  18   87.09    6.40
   9  -1 -18   81.09    4.50
  -9  -1  18   78.09    6.30
  -9   1  18   83.79    6.30
  -9   1  18   80.19    6.10
  -9   1  18   88.09    6.50
   7  -1 -18   81.99    4.60
   7  -1 -18   76.99    4.30
  -7  -1  18   89.29    6.50
  -7  -1  18   82.19    6.80
  -7  -1  18   91.79    6.80
  -7   1  18   83.09    6.50
  -7   1  18   93.59    7.00
  -7   1  18   81.19    6.10
 -20  -2  18   42.50    5.60
  20  -2 -18   34.00    3.40
 -20   2  18   37.40    5.30
 -18  -2  18   48.10    5.70
  18  -2 -18   37.10    3.40
 -18  -2  18   51.99    4.30
 -18   2  18   42.60    5.50
 -16  -2  18    7.80    2.90
  16  -2 -18   10.30    2.00
 -16  -2  18    9.80    2.60
 -16  -2  18    9.30    2.50
 -16   2  18   13.70    3.50
  14  -2 -18   65.89    4.20
 -14  -2  18   58.49    5.30
 -14  -2  18   69.09    5.30
 -14  -2  18   66.69    6.20
 -14   2  18   74.59    6.20
  12  -2 -18   13.90    2.00
 -12  -2  18   17.20    3.30
 -12  -2  18   11.00    2.90
 -12  -2  18    7.60    2.60
 -12   2  18   13.10    2.80
  12   2 -18   10.50    3.20
 -12   2  18    8.30    2.50
 -12   2  18   13.40    3.30
 -10  -2  18   56.49    5.50
 -10  -2  18   46.60    4.90
 -10  -2  18   56.19    5.40
  10  -2 -18   48.60    3.50
 -10   2  18   59.49    5.10
 -10   2  18   41.70    4.60
  10   2 -18   56.79    5.60
 -10   2  18   49.00    5.10
  -8  -2  18   30.70    4.30
   8  -2 -18   29.50    2.80
  -8  -2  18   28.20    4.20
  -8  -2  18   35.70    4.60
   8   2 -18   27.40    4.20
  -8   2  18   25.80    3.80
  -8   2  18   36.00    4.40
   6  -2 -18   11.40    2.10
  -6  -2  18    9.30    3.10
  -6  -2  18   14.80    3.50
  -6  -2  18    9.80    2.90
   6  -2 -18   10.90    1.80
   6   2 -18   20.70    3.60
  -6   2  18   16.20    3.50
 -19  -3  18    1.20    1.90
 -19  -3  18    0.10    1.50
  19  -3 -18    0.80    1.40
 -19   3  18    3.10    2.30
 -17  -3  18   13.60    3.50
 -17  -3  18   12.20    2.60
  17  -3 -18   11.30    2.10
  17   3 -18   10.70    3.30
 -17   3  18    8.60    3.00
  15  -3 -18   21.80    2.70
 -15  -3  18   28.80    3.70
 -15  -3  18   36.00    5.00
 -15   3  18   24.70    4.20
  15   3 -18   30.20    4.70
 -13  -3  18   17.40    3.30
 -13  -3  18   21.10    4.10
  13  -3 -18   19.30    2.40
 -13  -3  18   24.40    3.60
  13   3 -18   23.50    4.30
 -13   3  18   16.70    3.60
  11  -3 -18    7.10    1.70
 -11  -3  18    9.00    2.70
 -11  -3  18    4.90    2.20
  11   3 -18    6.90    2.70
 -11   3  18    8.90    2.80
  -9  -3  18   -1.30    1.70
   9  -3 -18    0.30    0.90
  -9  -3  18    0.40    1.70
  -9   3  18    0.30    1.70
   9   3 -18    0.10    1.60
  -9   3  18    0.90    1.90
   7  -3 -18    5.60    1.60
   7  -3 -18    5.20    1.40
  -7  -3  18    6.00    2.60
  -7  -3  18    6.00    2.60
   7   3 -18    5.10    2.40
  -7   3  18    7.20    2.70
  18  -4 -18   15.60    2.50
 -18  -4  18   26.40    4.70
 -18  -4  18   22.30    3.30
 -18   4  18   26.30    4.60
  18   4 -18   21.20    4.20
 -16  -4  18   17.80    3.10
 -16  -4  18   18.10    4.00
 -16   4  18   20.80    4.10
  16   4 -18   20.30    4.10
  14  -4 -18   17.60    2.40
 -14  -4  18   16.80    3.20
  14   4 -18   14.10    3.60
 -14   4  18   18.40    3.80
  12  -4 -18   12.20    2.10
 -12  -4  18    8.60    2.70
 -12  -4  18    7.50    2.70
  12   4 -18   12.90    3.30
 -12   4  18   14.20    3.40
 -10  -4  18    1.50    1.90
  10  -4 -18    3.10    1.30
 -10  -4  18    1.90    2.10
  10   4 -18    2.10    2.10
 -10   4  18    5.70    2.30
  -8  -4  18    7.20    2.80
  -8  -4  18    1.70    2.10
  -8   4  18    5.40    2.30
  -8   4  18    4.40    2.30
   8   4 -18    3.10    2.30
 -17  -5  18   66.49    5.20
  17  -5 -18   65.89    4.50
 -17   5  18   57.29    6.20
  15  -5 -18   53.59    4.00
 -15  -5  18   57.59    5.10
 -15   5  18   51.29    5.70
  15   5 -18   42.70    5.60
 -13  -5  18   92.19    6.60
  13  -5 -18   97.29    5.40
 -13   5  18   88.99    7.00
  13   5 -18   95.69    7.60
 -11  -5  18   19.20    3.70
  11  -5 -18   21.10    2.70
 -11  -5  18   25.90    4.00
  11   5 -18   25.90    4.50
 -11   5  18   19.20    3.70
 -14   0  19   -0.40    1.90
 -14   0  19    0.70    1.90
 -14   0  19    0.60    1.80
 -12   0  19   -0.40    1.80
 -12   0  19    0.20    1.60
 -15  -1  19   -0.40    1.70
 -15  -1  19    2.50    2.20
 -15   1  19    0.40    1.90
 -13  -1  19    1.90    1.90
 -13  -1  19    0.40    1.90
 -13   1  19    2.00    1.90

_computing_structure_solution     'SHELXT 2014/4 (Sheldrick, 2014)'
;
_shelx_hkl_checksum              3549
loop_
_space_group_symop_operation_xyz
'x, y, z'
'-x, y, -z+1/2'
'x+1/2, y+1/2, z'
'-x+1/2, y+1/2, -z+1/2'
'-x, -y, -z'
'x, -y, z-1/2'
'-x+1/2, -y+1/2, -z'
'x+1/2, -y+1/2, z-1/2'
loop_
_atom_site_label
_atom_site_type_symbol
_atom_site_fract_x
_atom_site_fract_y
_atom_site_fract_z
_atom_site_U_iso_or_equiv
_atom_site_adp_type
_atom_site_occupancy
_atom_site_site_symmetry_order
_atom_site_calc_flag
_atom_site_refinement_flags_posn
_atom_site_refinement_flags_adp
_atom_site_refinement_flags_occupancy
In In 0.5000 0.57539(2) 0.2500 0.01541(7) Uani 1 2 d S T P
Cl1 Cl 0.5000 0.40689(5) 0.2500 0.02727(16) Uani 1 2 d S T P
O1 O 0.33383(7) 0.84609(10) 0.24896(10) 0.0251(3) Uani 1 1 d . . .
N1 N 0.60789(8) 0.61572(11) 0.34326(11) 0.0189(3) Uani 1 1 d . . .
C1 C 0.65594(10) 0.63975(13) 0.31526(14) 0.0201(4) Uani 1 1 d . . .
N2 N 0.48580(8) 0.61330(11) 0.37327(11) 0.0172(3) Uani 1 1 d . . .
C2 C 0.72326(10) 0.65350(15) 0.40418(15) 0.0265(4) Uani 1 1 d . . .
H2 H 0.7658 0.6705 0.4063 0.032 Uiso 1 1 calc R U .
C3 C 0.71561(10) 0.63793(15) 0.48451(15) 0.0256(4) Uani 1 1 d . . .
H3 H 0.7519 0.6407 0.5535 0.031 Uiso 1 1 calc R U .
C4 C 0.64273(10) 0.61639(13) 0.44662(14) 0.0209(4) Uani 1 1 d . . .
C5 C 0.61094(10) 0.60901(13) 0.50469(14) 0.0212(4) Uani 1 1 d . . .
H5 H 0.6421 0.6018 0.5753 0.025 Uiso 1 1 calc R U .
C6 C 0.53914(10) 0.61091(13) 0.47209(14) 0.0193(4) Uani 1 1 d . . .
C7 C 0.50965(11) 0.62521(13) 0.53506(14) 0.0226(4) Uani 1 1 d . . .
H7 H 0.5347 0.6241 0.6068 0.027 Uiso 1 1 calc R U .
C8 C 0.43995(11) 0.64045(13) 0.47440(14) 0.0219(4) Uani 1 1 d . . .
H8 H 0.4070 0.6535 0.4955 0.026 Uiso 1 1 calc R U .
C9 C 0.42430(10) 0.63340(13) 0.37161(14) 0.0188(4) Uani 1 1 d . . .
C10 C 0.35916(10) 0.65135(13) 0.28456(14) 0.0202(4) Uani 1 1 d . . .
C11 C 0.30277(10) 0.69968(14) 0.29627(14) 0.0206(4) Uani 1 1 d . . .
C12 C 0.25874(10) 0.65306(14) 0.32178(14) 0.0214(4) Uani 1 1 d . . .
H12 H 0.2649 0.5873 0.3344 0.026 Uiso 1 1 calc R U .
C13 C 0.20552(10) 0.69931(13) 0.32967(14) 0.0204(4) Uani 1 1 d . . .
C15 C 0.24181(10) 0.84391(14) 0.28678(15) 0.0237(4) Uani 1 1 d . . .
H15 H 0.2363 0.9099 0.2754 0.028 Uiso 1 1 calc R U .
C16 C 0.29373(10) 0.79632(14) 0.27920(14) 0.0216(4) Uani 1 1 d . . .
C17 C 0.15470(10) 0.64529(14) 0.35156(15) 0.0239(4) Uani 1 1 d . . .
C18 C 0.18904(12) 0.55655(15) 0.41239(18) 0.0320(5) Uani 1 1 d . . .
H18A H 0.1569 0.5264 0.4305 0.048 Uiso 1 1 calc R U .
H18B H 0.2333 0.5731 0.4740 0.048 Uiso 1 1 calc R U .
H18C H 0.1991 0.5130 0.3719 0.048 Uiso 1 1 calc R U .
C19 C 0.08987(12) 0.61891(18) 0.24960(18) 0.0364(5) Uani 1 1 d . . .
H19A H 0.0653 0.6763 0.2134 0.055 Uiso 1 1 calc R U .
H19B H 0.0578 0.5799 0.2610 0.055 Uiso 1 1 calc R U .
H19C H 0.1051 0.5836 0.2092 0.055 Uiso 1 1 calc R U .
C20 C 0.13060(11) 0.70519(15) 0.41112(16) 0.0289(5) Uani 1 1 d . . .
H20A H 0.1047 0.7603 0.3709 0.043 Uiso 1 1 calc R U .
H20B H 0.1720 0.7260 0.4744 0.043 Uiso 1 1 calc R U .
H20C H 0.0997 0.6677 0.4262 0.043 Uiso 1 1 calc R U .
C21 C 0.40478(10) 0.86377(14) 0.32802(15) 0.0233(4) Uani 1 1 d . . .
H21A H 0.4191 0.8158 0.3817 0.028 Uiso 1 1 calc R U .
H21B H 0.4075 0.9264 0.3581 0.028 Uiso 1 1 calc R U .
C22 C 0.45428(10) 0.86082(13) 0.28759(14) 0.0206(4) Uani 1 1 d . . .
C23 C 0.42857(10) 0.85930(13) 0.18439(14) 0.0217(4) Uani 1 1 d . . .
H23 H 0.3790 0.8565 0.1391 0.026 Uiso 1 1 calc R U .
C24 C 0.52663(10) 0.86174(13) 0.35448(14) 0.0220(4) Uani 1 1 d . . .
C25 C 0.55665(11) 0.86642(16) 0.46665(15) 0.0280(4) Uani 1 1 d . . .
H25A H 0.5392 0.9231 0.4832 0.042 Uiso 1 1 calc R U .
H25B H 0.6084 0.8686 0.5012 0.042 Uiso 1 1 calc R U .
H25C H 0.5420 0.8106 0.4888 0.042 Uiso 1 1 calc R U .
C14 C 0.19787(10) 0.79562(14) 0.31094(14) 0.0225(4) Uani 1 1 d . . .
H14 H 0.1618 0.8288 0.3148 0.027 Uiso 1 1 calc R U .
loop_
_atom_site_aniso_label
_atom_site_aniso_U_11
_atom_site_aniso_U_22
_atom_site_aniso_U_33
_atom_site_aniso_U_23
_atom_site_aniso_U_13
_atom_site_aniso_U_12
In 0.01866(10) 0.01759(10) 0.01299(10) 0.000 0.01025(8) 0.000
Cl1 0.0477(4) 0.0195(3) 0.0259(3) 0.000 0.0269(3) 0.000
O1 0.0198(7) 0.0330(8) 0.0237(7) 0.0028(6) 0.0120(6) -0.0019(6)
N1 0.0185(8) 0.0237(8) 0.0160(7) 0.0026(6) 0.0099(7) 0.0015(6)
C1 0.0190(9) 0.0227(9) 0.0205(9) 0.0032(7) 0.0114(8) 0.0034(7)
N2 0.0210(8) 0.0183(7) 0.0159(7) -0.0010(6) 0.0120(7) -0.0008(6)
C2 0.0187(10) 0.0326(11) 0.0271(10) 0.0064(8) 0.0108(9) 0.0025(8)
C3 0.0205(10) 0.0326(11) 0.0192(9) 0.0043(8) 0.0070(8) 0.0031(8)
C4 0.0220(10) 0.0216(9) 0.0169(9) 0.0042(7) 0.0083(8) 0.0029(7)
C5 0.0256(10) 0.0219(9) 0.0143(9) 0.0032(7) 0.0087(8) 0.0022(8)
C6 0.0269(10) 0.0166(8) 0.0166(9) 0.0011(7) 0.0127(8) -0.0003(7)
C7 0.0318(11) 0.0237(10) 0.0164(9) 0.0003(7) 0.0153(9) -0.0009(8)
C8 0.0302(11) 0.0218(9) 0.0229(10) -0.0013(8) 0.0202(9) -0.0003(8)
C9 0.0238(10) 0.0182(9) 0.0204(9) -0.0012(7) 0.0158(8) -0.0011(7)
C10 0.0211(9) 0.0224(9) 0.0225(9) -0.0035(7) 0.0150(8) -0.0027(7)
C11 0.0180(9) 0.0286(10) 0.0165(9) -0.0027(7) 0.0098(8) 0.0006(7)
C12 0.0218(10) 0.0224(10) 0.0216(9) -0.0027(7) 0.0123(8) -0.0007(7)
C13 0.0167(9) 0.0277(10) 0.0169(9) -0.0032(7) 0.0086(8) -0.0011(7)
C15 0.0250(10) 0.0235(10) 0.0227(10) 0.0001(8) 0.0124(9) 0.0022(8)
C16 0.0191(9) 0.0284(10) 0.0178(9) -0.0003(8) 0.0098(8) -0.0029(8)
C17 0.0210(10) 0.0270(10) 0.0278(10) -0.0028(8) 0.0155(9) -0.0013(8)
C18 0.0336(12) 0.0276(11) 0.0459(13) 0.0045(10) 0.0283(11) 0.0007(9)
C19 0.0266(12) 0.0483(14) 0.0355(12) -0.0106(11) 0.0166(10) -0.0118(10)
C20 0.0310(11) 0.0342(11) 0.0325(11) -0.0004(9) 0.0242(10) 0.0013(9)
C21 0.0216(10) 0.0261(10) 0.0219(9) -0.0014(8) 0.0109(8) -0.0006(8)
C22 0.0220(10) 0.0177(9) 0.0237(9) -0.0006(7) 0.0129(8) 0.0004(7)
C23 0.0172(9) 0.0222(9) 0.0227(9) -0.0007(8) 0.0080(8) 0.0002(7)
C24 0.0249(10) 0.0194(9) 0.0208(9) 0.0005(7) 0.0110(8) -0.0003(8)
C25 0.0241(10) 0.0380(12) 0.0201(10) -0.0005(9) 0.0099(9) -0.0012(9)
C14 0.0193(9) 0.0262(10) 0.0231(9) -0.0022(8) 0.0117(8) 0.0034(8)
loop_
_atom_type_symbol
_atom_type_description
_atom_type_scat_dispersion_real
_atom_type_scat_dispersion_imag
_atom_type_scat_source
C C 0.0033 0.0016 'International Tables Vol C Tables 4.2.6.8 and 6.1.1.4'
H H 0.0000 0.0000 'International Tables Vol C Tables 4.2.6.8 and 6.1.1.4'
N N 0.0061 0.0033 'International Tables Vol C Tables 4.2.6.8 and 6.1.1.4'
O O 0.0106 0.0060 'International Tables Vol C Tables 4.2.6.8 and 6.1.1.4'
Cl Cl 0.1484 0.1585 'International Tables Vol C Tables 4.2.6.8 and 6.1.1.4'
In In -0.7276 1.3100 'International Tables Vol C Tables 4.2.6.8 and 6.1.1.4'
loop_
_geom_angle_atom_site_label_1
_geom_angle_atom_site_label_2
_geom_angle_atom_site_label_3
_geom_angle
_geom_angle_site_symmetry_1
_geom_angle_site_symmetry_3
N1 In N1 148.83(8) . 2_655
N1 In N2 85.09(6) . 2_655
N1 In N2 87.16(6) 2_655 2_655
N1 In N2 87.16(6) . .
N1 In N2 85.09(6) 2_655 .
N2 In N2 150.88(8) 2_655 .
N1 In Cl1 105.59(4) . .
N1 In Cl1 105.59(4) 2_655 .
N2 In Cl1 104.56(4) 2_655 .
N2 In Cl1 104.56(4) . .
C16 O1 C21 114.21(14) . .
C4 N1 C1 107.36(16) . .
C4 N1 In 123.78(13) . .
C1 N1 In 128.77(12) . .
N1 C1 C10 125.54(17) . 2_655
N1 C1 C2 108.75(16) . .
C10 C1 C2 125.69(18) 2_655 .
C6 N2 C9 107.77(15) . .
C6 N2 In 123.29(12) . .
C9 N2 In 128.59(12) . .
C3 C2 C1 107.68(18) . .
C3 C2 H2 126.2 . .
C1 C2 H2 126.2 . .
C2 C3 C4 107.35(18) . .
C2 C3 H3 126.3 . .
C4 C3 H3 126.3 . .
N1 C4 C5 125.36(18) . .
N1 C4 C3 108.81(17) . .
C5 C4 C3 125.39(18) . .
C4 C5 C6 128.01(18) . .
C4 C5 H5 116.0 . .
C6 C5 H5 116.0 . .
N2 C6 C5 125.01(17) . .
N2 C6 C7 108.79(16) . .
C5 C6 C7 125.56(17) . .
C8 C7 C6 107.61(17) . .
C8 C7 H7 126.2 . .
C6 C7 H7 126.2 . .
C7 C8 C9 107.52(17) . .
C7 C8 H8 126.2 . .
C9 C8 H8 126.2 . .
N2 C9 C10 125.14(17) . .
N2 C9 C8 108.22(16) . .
C10 C9 C8 126.45(17) . .
C9 C10 C1 125.56(17) . 2_655
C9 C10 C11 118.18(16) . .
C1 C10 C11 115.69(17) 2_655 .
C12 C11 C16 118.13(17) . .
C12 C11 C10 123.57(17) . .
C16 C11 C10 118.28(17) . .
C11 C12 C13 122.42(18) . .
C11 C12 H12 118.8 . .
C13 C12 H12 118.8 . .
C14 C13 C12 117.51(17) . .
C14 C13 C17 120.99(17) . .
C12 C13 C17 121.39(17) . .
C14 C15 C16 120.07(18) . .
C14 C15 H15 120.0 . .
C16 C15 H15 120.0 . .
C15 C16 O1 118.30(17) . .
C15 C16 C11 120.73(18) . .
O1 C16 C11 120.88(17) . .
C18 C17 C13 111.24(16) . .
C18 C17 C20 107.88(17) . .
C13 C17 C20 111.61(16) . .
C18 C17 C19 109.76(18) . .
C13 C17 C19 107.45(16) . .
C20 C17 C19 108.88(17) . .
C17 C18 H18A 109.5 . .
C17 C18 H18B 109.5 . .
H18A C18 H18B 109.5 . .
C17 C18 H18C 109.5 . .
H18A C18 H18C 109.5 . .
H18B C18 H18C 109.5 . .
C17 C19 H19A 109.5 . .
C17 C19 H19B 109.5 . .
H19A C19 H19B 109.5 . .
C17 C19 H19C 109.5 . .
H19A C19 H19C 109.5 . .
H19B C19 H19C 109.5 . .
C17 C20 H20A 109.5 . .
C17 C20 H20B 109.5 . .
H20A C20 H20B 109.5 . .
C17 C20 H20C 109.5 . .
H20A C20 H20C 109.5 . .
H20B C20 H20C 109.5 . .
O1 C21 C22 110.43(15) . .
O1 C21 H21A 109.6 . .
C22 C21 H21A 109.6 . .
O1 C21 H21B 109.6 . .
C22 C21 H21B 109.6 . .
H21A C21 H21B 108.1 . .
C24 C22 C23 119.61(18) . .
C24 C22 C21 119.41(17) . .
C23 C22 C21 120.96(17) . .
C22 C23 C24 121.81(18) . 2_655
C22 C23 H23 119.1 . .
C24 C23 H23 119.1 2_655 .
C22 C24 C23 118.51(17) . 2_655
C22 C24 C25 121.31(18) . .
C23 C24 C25 120.18(18) 2_655 .
C24 C25 H25A 109.5 . .
C24 C25 H25B 109.5 . .
H25A C25 H25B 109.5 . .
C24 C25 H25C 109.5 . .
H25A C25 H25C 109.5 . .
H25B C25 H25C 109.5 . .
C15 C14 C13 121.12(18) . .
C15 C14 H14 119.4 . .
C13 C14 H14 119.4 . .
loop_
_geom_bond_atom_site_label_1
_geom_bond_atom_site_label_2
_geom_bond_distance
_geom_bond_site_symmetry_2
In N1 2.1322(16) .
In N1 2.1322(15) 2_655
In N2 2.1420(15) 2_655
In N2 2.1420(14) .
In Cl1 2.3934(7) .
O1 C16 1.383(2) .
O1 C21 1.429(2) .
N1 C4 1.369(2) .
N1 C1 1.372(2) .
C1 C10 1.406(3) 2_655
C1 C2 1.428(3) .
N2 C6 1.368(2) .
N2 C9 1.370(2) .
C2 C3 1.348(3) .
C2 H2 0.9500 .
C3 C4 1.432(3) .
C3 H3 0.9500 .
C4 C5 1.391(3) .
C5 C6 1.392(3) .
C5 H5 0.9500 .
C6 C7 1.428(3) .
C7 C8 1.345(3) .
C7 H7 0.9500 .
C8 C9 1.441(2) .
C8 H8 0.9500 .
C9 C10 1.399(3) .
C10 C1 1.406(3) 2_655
C10 C11 1.506(3) .
C11 C12 1.385(3) .
C11 C16 1.393(3) .
C12 C13 1.400(3) .
C12 H12 0.9500 .
C13 C14 1.390(3) .
C13 C17 1.528(3) .
C15 C14 1.381(3) .
C15 C16 1.382(3) .
C15 H15 0.9500 .
C17 C18 1.522(3) .
C17 C20 1.529(3) .
C17 C19 1.535(3) .
C18 H18A 0.9800 .
C18 H18B 0.9800 .
C18 H18C 0.9800 .
C19 H19A 0.9800 .
C19 H19B 0.9800 .
C19 H19C 0.9800 .
C20 H20A 0.9800 .
C20 H20B 0.9800 .
C20 H20C 0.9800 .
C21 C22 1.504(3) .
C21 H21A 0.9900 .
C21 H21B 0.9900 .
C22 C24 1.386(3) .
C22 C23 1.388(3) .
C23 C24 1.389(3) 2_655
C23 H23 0.9500 .
C24 C23 1.389(3) 2_655
C24 C25 1.503(3) .
C25 H25A 0.9800 .
C25 H25B 0.9800 .
C25 H25C 0.9800 .
C14 H14 0.9500 .
