#------------------------------------------------------------------------------
#$Date: 2015-10-06 16:39:55 +0300 (Tue, 06 Oct 2015) $
#$Revision: 160549 $
#$URL: svn://www.crystallography.net/cod/cif/4/03/14/4031489.cif $
#------------------------------------------------------------------------------
#
# This file is available in the Crystallography Open Database (COD),
# http://www.crystallography.net/
#
# All data on this site have been placed in the public domain by the
# contributors.
#
data_4031489
loop_
_publ_author_name
'Ding, Huimin'
'Wu, Xiaojun'
'Zeller, Matthias'
'Xie, Yunpeng'
'Wang, Cheng'
_publ_section_title
;
 Controllable Synthesis of Covalent Porphyrinic Cages with Varying Sizes
 via Template-Directed Imine Condensation Reactions.
;
_journal_issue                   18
_journal_name_full               'The Journal of organic chemistry'
_journal_page_first              9360
_journal_page_last               9364
_journal_paper_doi               10.1021/acs.joc.5b01781
_journal_volume                  80
_journal_year                    2015
_chemical_formula_moiety
'C130 H112 N18 Zn2, 5.786(C H Cl3), 3.214(C3 H6 O)'
_chemical_formula_sum            'C145.43 H137.07 Cl17.36 N18 O3.21 Zn2'
_chemical_formula_weight         2934.48
_space_group_crystal_system      triclinic
_space_group_IT_number           2
_space_group_name_Hall           '-P 1'
_space_group_name_H-M_alt        'P -1'
_symmetry_space_group_name_Hall  '-P 1'
_symmetry_space_group_name_H-M   'P -1'
_atom_sites_solution_hydrogens   geom
_atom_sites_solution_primary     direct
_atom_sites_solution_secondary   difmap
_audit_creation_method           SHELXL-2014/7
_cell_angle_alpha                96.865(6)
_cell_angle_beta                 102.787(6)
_cell_angle_gamma                103.857(5)
_cell_formula_units_Z            1
_cell_length_a                   14.360(3)
_cell_length_b                   14.521(3)
_cell_length_c                   18.490(4)
_cell_measurement_reflns_used    3118
_cell_measurement_temperature    173(2)
_cell_measurement_theta_max      21.6435
_cell_measurement_theta_min      2.9448
_cell_volume                     3589.4(13)
_computing_cell_refinement       'SAINT V8.27B (Bruker, 2014)'
_computing_data_collection       'Apex2 (Bruker, 2014)'
_computing_data_reduction        'SAINT V8.27B (Bruker, 2014)'
_computing_structure_refinement
;  
SHELXL-2014/7 (Sheldrick, 2014), 
SHELXLE Rev714 (H\"ubschle et al., 2011)
;
_computing_structure_solution    'SHELXS-97 (Sheldrick, 2008)'
_diffrn_ambient_temperature      173(2)
_diffrn_measured_fraction_theta_full 0.989
_diffrn_measured_fraction_theta_max 0.989
_diffrn_measurement_device_type  'Bruker S8 Quest CMOS diffractometer'
_diffrn_measurement_method       '\w scans'
_diffrn_radiation_monochromator  graphite
_diffrn_radiation_type           MoK\a
_diffrn_radiation_wavelength     0.71073
_diffrn_reflns_av_R_equivalents  0.1201
_diffrn_reflns_av_unetI/netI     0.2879
_diffrn_reflns_laue_measured_fraction_full 0.989
_diffrn_reflns_laue_measured_fraction_max 0.989
_diffrn_reflns_limit_h_max       17
_diffrn_reflns_limit_h_min       -17
_diffrn_reflns_limit_k_max       17
_diffrn_reflns_limit_k_min       -17
_diffrn_reflns_limit_l_max       22
_diffrn_reflns_limit_l_min       -18
_diffrn_reflns_number            23745
_diffrn_reflns_point_group_measured_fraction_full 0.989
_diffrn_reflns_point_group_measured_fraction_max 0.989
_diffrn_reflns_theta_full        25.027
_diffrn_reflns_theta_max         25.027
_diffrn_reflns_theta_min         2.945
_diffrn_source                   'fine-focus sealed tube'
_exptl_absorpt_coefficient_mu    0.716
_exptl_absorpt_correction_T_max  0.912
_exptl_absorpt_correction_T_min  0.885
_exptl_absorpt_correction_type   multi-scan
_exptl_absorpt_process_details   SADABS
_exptl_crystal_colour            red
_exptl_crystal_density_diffrn    1.358
_exptl_crystal_description       block
_exptl_crystal_F_000             1516.4
_exptl_crystal_size_max          0.18
_exptl_crystal_size_mid          0.16
_exptl_crystal_size_min          0.14
_refine_diff_density_max         0.712
_refine_diff_density_min         -0.608
_refine_diff_density_rms         0.089
_refine_ls_extinction_method     none
_refine_ls_goodness_of_fit_ref   1.006
_refine_ls_hydrogen_treatment    constr
_refine_ls_matrix_type           full
_refine_ls_number_parameters     1003
_refine_ls_number_reflns         12530
_refine_ls_number_restraints     452
_refine_ls_restrained_S_all      1.026
_refine_ls_R_factor_all          0.2515
_refine_ls_R_factor_gt           0.0990
_refine_ls_shift/su_max          0.000
_refine_ls_shift/su_mean         0.000
_refine_ls_structure_factor_coef Fsqd
_refine_ls_weighting_details
'w=1/[\s^2^(Fo^2^)+(0.0793P)^2^] where P=(Fo^2^+2Fc^2^)/3'
_refine_ls_weighting_scheme      calc
_refine_ls_wR_factor_gt          0.1919
_refine_ls_wR_factor_ref         0.2415
_reflns_Friedel_coverage         0.000
_reflns_number_gt                4595
_reflns_number_total             12530
_reflns_threshold_expression     'I > 2\s(I)'
_cod_data_source_file            jo5b01781_si_002.cif
_cod_data_source_block           11_MZ
_cod_depositor_comments
;
The following automatic conversions were performed:

'_exptl_absorpt_correction_type' value 'Multi-scan' changed to
'multi-scan' according to
/usr/data/users/saulius/crontab/automatic-downloads/rss-feeds/ACS/lib/dictionaries/cif_core.dic
dictionary named 'cif_core.dic' version 2.4.2 from 2011-04-26.

Automatic conversion script
Id: cif_fix_values 3271 2015-04-21 07:52:19Z andrius 

 Adding full bibliography for 4031489--4031490.cif.
;
_cod_original_cell_volume        3589.4(14)
_cod_database_code               4031489
_shelx_shelxl_version_number     2014/7
_shelx_space_group_comment
;
The symmetry employed for this shelxl refinement is uniquely defined
by the following loop, which should always be used as a source of
symmetry information in preference to the above space-group names.
They are only intended as comments.
;
_shelx_res_file
;

    11_MZ.res created by SHELXL-2014/7


TITL 11 in P-1
CELL  0.71073  14.3599  14.5213  18.4897   96.865  102.787  103.857
ZERR     1.00   0.0032   0.0032   0.0042    0.006    0.006    0.005
LATT   1
SFAC  C    H    N    O    ZN   CL
UNIT 145.4 137.1 18 3.215 2 17.35
LIST 6 ! automatically inserted. Change 6 to 4 for CHECKCIF!!
MERG   2
TEMP -100
SADI 0.02 C67 CL4 C67 CL5 C67 CL6
SADI 0.02 Cl4 Cl5 Cl5 Cl6 Cl6 Cl4 Cl4B Cl5B Cl5B Cl6B Cl6B Cl4B  =
          CL7 CL8 CL8 CL9 CL9 CL7
RIGU C74 Cl7 Cl8 Cl9
RIGU C67 Cl4 Cl5 Cl6
RIGU C67B Cl4B Cl5B Cl6B
EADP C45 C45B
EXYZ C45 C45B
EADP C52 C52B
EXYZ C52 C52B

RIGU C45 > C52
RIGU C45B > C52B

FLAT 0.01 O1 C68 C69 C70
FLAT 0.01 O2 C71 C72 C73
DFIX 1.5 C68 C69 C68 C70 C71 C72 C71 C73
DFIX 1.25 O1 C68 O2 C71
SADI O1 C69 O1 C70 O2 C72 O2 C73
RIGU O1 > Cl12
shel 0.84 50
FMAP   2
PLAN   20
ACTA

BOND   $H
L.S.  24
WGHT    0.079300
FVAR       0.07754   0.47867   0.59117   0.60717
ZN1   5    0.656692    0.110947    0.317478    11.00000    0.02380    0.03498 =
         0.02604    0.00481    0.00267    0.00513
C1    1    0.763106   -0.175460    0.486075    11.00000    0.03696    0.05022 =
         0.04579    0.00943    0.00375    0.01570
AFIX  43
H1    2    0.735847   -0.136071    0.515451    11.00000   -1.20000
AFIX   0
C2    1    0.792836   -0.249995    0.514791    11.00000    0.06009    0.04049 =
         0.04530    0.01240    0.02354    0.01857
AFIX  43
H2    2    0.784405   -0.263342    0.562361    11.00000   -1.20000
AFIX   0
C3    1    0.834681   -0.304151    0.473213    11.00000    0.06407    0.04339 =
         0.05622    0.02280    0.00734    0.02290
AFIX  43
H3    2    0.855162   -0.356135    0.492122    11.00000   -1.20000
AFIX   0
C4    1    0.848067   -0.285061    0.403799    11.00000    0.03125    0.03344 =
         0.05576    0.01244    0.01334    0.00357
C5    1    0.816456   -0.210469    0.376238    11.00000    0.03036    0.02782 =
         0.03778    0.01118    0.00783   -0.00680
AFIX  43
H5    2    0.825761   -0.196407    0.329033    11.00000   -1.20000
AFIX   0
C6    1    0.771388   -0.155824    0.416345    11.00000    0.02410    0.03360 =
         0.03134    0.00803    0.00657    0.00427
C7    1    0.737136   -0.075594    0.386897    11.00000    0.03140    0.03469 =
         0.03525    0.02016    0.01529    0.00701
C8    1    0.809846    0.002264    0.376180    11.00000    0.02935    0.02895 =
         0.03133    0.00697    0.01121    0.01002
C9    1    0.915212    0.013463    0.396494    11.00000    0.02432    0.04237 =
         0.04854    0.01674    0.01336    0.01337
AFIX  43
H9    2    0.947879   -0.028684    0.420538    11.00000   -1.20000
AFIX   0
C10   1    0.958519    0.094310    0.375184    11.00000    0.02805    0.03929 =
         0.04101    0.00724    0.01236    0.00285
AFIX  43
H10   2    1.027595    0.119272    0.380268    11.00000   -1.20000
AFIX   0
C11   1    0.882510    0.136159    0.343544    11.00000    0.03176    0.03135 =
         0.02891   -0.00048    0.00566    0.01081
C12   1    0.898471    0.222765    0.314410    11.00000    0.02052    0.02958 =
         0.03435   -0.00107    0.00328    0.00438
C13   1    0.999232    0.265535    0.304911    11.00000    0.02137    0.03979 =
         0.03564    0.01858    0.00630    0.00798
C14   1    1.043039    0.209775    0.264621    11.00000    0.02879    0.03182 =
         0.04003    0.01473    0.00138    0.00190
AFIX  43
H14   2    1.008270    0.144220    0.243941    11.00000   -1.20000
AFIX   0
C15   1    1.137399    0.247174    0.253367    11.00000    0.03034    0.04366 =
         0.04479    0.01229    0.00835    0.00903
C16   1    1.186785    0.344706    0.284312    11.00000    0.02337    0.04581 =
         0.04640    0.01016    0.00793   -0.00237
AFIX  43
H16   2    1.250214    0.372300    0.276900    11.00000   -1.20000
AFIX   0
C17   1    1.145010    0.399763    0.324550    11.00000    0.03541    0.04134 =
         0.06392    0.01729    0.01416    0.00289
AFIX  43
H17   2    1.180000    0.465156    0.345649    11.00000   -1.20000
AFIX   0
C18   1    1.051681    0.361795    0.335332    11.00000    0.03018    0.04796 =
         0.03733    0.00956    0.00416    0.00639
AFIX  43
H18   2    1.023326    0.401403    0.363510    11.00000   -1.20000
AFIX   0
C19   1    0.824771    0.271028    0.293738    11.00000    0.02809    0.02632 =
         0.03401   -0.00415    0.00773   -0.00094
C20   1    0.834603    0.352358    0.255771    11.00000    0.03055    0.04641 =
         0.05304    0.02918    0.01136    0.01155
AFIX  43
H20   2    0.889459    0.380798    0.237404    11.00000   -1.20000
AFIX   0
C21   1    0.751952    0.379998    0.251382    11.00000    0.03327    0.03676 =
         0.07932    0.02875    0.00183    0.01183
AFIX  43
H21   2    0.737553    0.432765    0.229746    11.00000   -1.20000
AFIX   0
C22   1    0.688775    0.316823    0.284720    11.00000    0.02809    0.03343 =
         0.03088    0.00669   -0.00307    0.00450
C23   1    0.596243    0.324849    0.295396    11.00000    0.03293    0.02886 =
         0.02398    0.00146   -0.00053    0.01239
C24   1    0.565191    0.412524    0.276221    11.00000    0.02895    0.03827 =
         0.07106    0.01741    0.01237    0.01107
C25   1    0.624922    0.504681    0.306325    11.00000    0.03274    0.03160 =
         0.11344    0.00585   -0.00681    0.00705
AFIX  43
H25   2    0.688015    0.513920    0.340256    11.00000   -1.20000
AFIX   0
C26   1    0.594254    0.583083    0.287825    11.00000    0.04158    0.03349 =
         0.15630    0.00707   -0.01642   -0.00193
AFIX  43
H26   2    0.635785    0.646016    0.310384    11.00000   -1.20000
AFIX   0
C27   1    0.504536    0.572818    0.237239    11.00000    0.04015    0.04048 =
         0.16227    0.03104   -0.00195    0.01240
AFIX  43
H27   2    0.485258    0.628094    0.224171    11.00000   -1.20000
AFIX   0
C28   1    0.442339    0.480703    0.205418    11.00000    0.03609    0.03062 =
         0.08249    0.01860    0.00032    0.00544
C29   1    0.474564    0.402398    0.224415    11.00000    0.02919    0.03760 =
         0.05570    0.00925    0.00372    0.00360
AFIX  43
H29   2    0.433685    0.339342    0.201458    11.00000   -1.20000
AFIX   0
C30   1    0.530072    0.255483    0.321136    11.00000    0.02729    0.03894 =
         0.03151    0.01040    0.00264    0.01446
C31   1    0.440911    0.268749    0.340082    11.00000    0.03206    0.04675 =
         0.04353    0.00863    0.00766    0.02324
AFIX  43
H31   2    0.417630    0.324689    0.339369    11.00000   -1.20000
AFIX   0
C32   1    0.398433    0.185997    0.358715    11.00000    0.04333    0.04646 =
         0.02846    0.00411    0.01382    0.02061
AFIX  43
H32   2    0.338749    0.173031    0.374540    11.00000   -1.20000
AFIX   0
C33   1    0.455812    0.120503    0.351315    11.00000    0.02010    0.03573 =
         0.02767    0.00066   -0.00193    0.00367
C34   1    0.434664    0.024958    0.363971    11.00000    0.02222    0.04047 =
         0.02969    0.00740    0.00299    0.00033
C35   1    0.337196   -0.016627    0.379273    11.00000    0.02260    0.03468 =
         0.03914    0.00358    0.00214    0.00385
C36   1    0.246983   -0.028235    0.325240    11.00000    0.03449    0.03026 =
         0.05239    0.00167    0.00676    0.00428
AFIX  43
H36   2    0.247476   -0.007144    0.278594    11.00000   -1.20000
AFIX   0
C37   1    0.156345   -0.070997    0.340376    11.00000    0.01986    0.05624 =
         0.05553    0.00158    0.00058    0.00712
C38   1    0.155440   -0.101042    0.408427    11.00000    0.03430    0.04866 =
         0.06046    0.00750    0.02208    0.00345
AFIX  43
H38   2    0.093972   -0.129390    0.418637    11.00000   -1.20000
AFIX   0
C39   1    0.242872   -0.090133    0.461312    11.00000    0.04818    0.05702 =
         0.03673    0.01501    0.01755    0.00776
AFIX  43
H39   2    0.241767   -0.112066    0.507587    11.00000   -1.20000
AFIX   0
C40   1    0.332413   -0.047417    0.447528    11.00000    0.03204    0.05008 =
         0.03314    0.00088    0.00461    0.00706
AFIX  43
H40   2    0.392219   -0.038717    0.485289    11.00000   -1.20000
AFIX   0
C41   1    0.499142   -0.034810    0.367185    11.00000    0.02397    0.04413 =
         0.02278    0.00678    0.00127    0.01194
C42   1    0.478417   -0.131194    0.382141    11.00000    0.02646    0.03761 =
         0.05341    0.01726    0.00916    0.00140
AFIX  43
H42   2    0.417194   -0.168440    0.387773    11.00000   -1.20000
AFIX   0
C43   1    0.560945   -0.158504    0.386625    11.00000    0.03436    0.03392 =
         0.04789    0.00962    0.01017    0.00490
AFIX  43
H43   2    0.568542   -0.219979    0.394711    11.00000   -1.20000
AFIX   0
C44   1    0.636948   -0.079751    0.377231    11.00000    0.02128    0.03572 =
         0.02903    0.01022   -0.00356    0.00371
PART    1
SAME C53 > C60
C45   1    0.895166   -0.343193    0.360988    31.00000    0.05230    0.05157 =
         0.06736    0.01099    0.02269    0.01303
AFIX  43
H45   2    0.890190   -0.407015    0.370020    31.00000   -1.20000
AFIX   0
N8    3    0.942150   -0.316365    0.312813    31.00000    0.04808    0.02422 =
         0.05377   -0.00161    0.02066    0.01139
C46   1    0.994501   -0.377778    0.282421    31.00000    0.06884    0.05175 =
         0.06530    0.00757    0.03218    0.03155
AFIX  23
H46A  2    0.971077   -0.443108    0.293561    31.00000   -1.20000
H46B  2    1.066148   -0.352643    0.308163    31.00000   -1.20000
AFIX   0
C47   1    0.981552   -0.385477    0.199250    31.00000    0.08378    0.09894 =
         0.06288    0.00543    0.03458    0.04372
AFIX  23
H47A  2    1.021605   -0.427430    0.183991    31.00000   -1.20000
H47B  2    1.010326   -0.320502    0.189519    31.00000   -1.20000
AFIX   0
C48   1    0.878398   -0.423362    0.148594    31.00000    0.08660    0.10960 =
         0.07991    0.00447    0.02374    0.04929
AFIX  23
H48A  2    0.846690   -0.486807    0.159445    31.00000   -1.20000
H48B  2    0.838755   -0.378720    0.159370    31.00000   -1.20000
AFIX   0
C49   1    0.877828   -0.434046    0.068093    31.00000    0.08182    0.11029 =
         0.07992    0.00865    0.02108    0.06337
AFIX  23
H49A  2    0.917787   -0.478828    0.058462    31.00000   -1.20000
H49B  2    0.912032   -0.370512    0.058803    31.00000   -1.20000
AFIX   0
C50   1    0.777794   -0.470150    0.010917    31.00000    0.08355    0.14009 =
         0.08403    0.00798    0.01186    0.06159
AFIX  23
H50A  2    0.739094   -0.529576    0.023321    31.00000   -1.20000
H50B  2    0.740881   -0.420978    0.014320    31.00000   -1.20000
AFIX   0
C51   1    0.786400   -0.490780   -0.066396    31.00000    0.08058    0.10955 =
         0.07770    0.01046    0.00763    0.06540
AFIX  23
H51A  2    0.824659   -0.538825   -0.069562    31.00000   -1.20000
H51B  2    0.823662   -0.430991   -0.079275    31.00000   -1.20000
AFIX   0
N5    3    0.687660   -0.528514   -0.122323    31.00000    0.08120    0.07803 =
         0.07899    0.02902    0.01313    0.04975
C52   1    0.656004   -0.465126   -0.152962    31.00000    0.03252    0.05476 =
         0.07586    0.02515    0.00911    0.01627
AFIX  43
H52   2    0.699344   -0.401612   -0.141234    31.00000   -1.20000
AFIX   0
PART    2
SAME C53 > C60
C45B  1    0.895166   -0.343193    0.360988   -31.00000    0.05230    0.05157 =
         0.06736    0.01099    0.02269    0.01303
AFIX  43
H45B  2    0.916141   -0.395132    0.379564   -31.00000   -1.20000
AFIX   0
N8B   3    0.907119   -0.322148    0.298394   -31.00000    0.02733    0.07057 =
         0.07157    0.01645    0.01740    0.01008
C46B  1    0.953752   -0.378148    0.256664   -31.00000    0.04326    0.07321 =
         0.07430    0.02062    0.02369    0.01597
AFIX  23
H46C  2    0.951870   -0.439228    0.275784   -31.00000   -1.20000
H46D  2    1.024295   -0.342290    0.264998   -31.00000   -1.20000
AFIX   0
C47B  1    0.905060   -0.400645    0.174469   -31.00000    0.02828    0.06872 =
         0.07296    0.02433    0.01729    0.01490
AFIX  23
H47C  2    0.918242   -0.340092    0.154190   -31.00000   -1.20000
H47D  2    0.832402   -0.423965    0.167385   -31.00000   -1.20000
AFIX   0
C48B  1    0.936964   -0.474208    0.128662   -31.00000    0.06578    0.10454 =
         0.07026    0.02041    0.01468    0.04442
AFIX  23
H48C  2    1.009646   -0.463036    0.147122   -31.00000   -1.20000
H48D  2    0.904436   -0.539391    0.136047   -31.00000   -1.20000
AFIX   0
C49B  1    0.911821   -0.470622    0.047040   -31.00000    0.05031    0.07682 =
         0.06926    0.02068    0.00575    0.01706
AFIX  23
H49C  2    0.939932   -0.516897    0.021269   -31.00000   -1.20000
H49D  2    0.945686   -0.405379    0.040605   -31.00000   -1.20000
AFIX   0
C50B  1    0.802041   -0.492614    0.006683   -31.00000    0.04747    0.03748 =
         0.08359    0.04113   -0.00214    0.00088
AFIX  23
H50C  2    0.765170   -0.553380    0.018494   -31.00000   -1.20000
H50D  2    0.775409   -0.440217    0.025411   -31.00000   -1.20000
AFIX   0
C51B  1    0.786376   -0.501835   -0.074367   -31.00000    0.02543    0.05094 =
         0.07980    0.03718   -0.00131    0.00006
AFIX  23
H51C  2    0.815301   -0.552628   -0.092650   -31.00000   -1.20000
H51D  2    0.821670   -0.440295   -0.086069   -31.00000   -1.20000
AFIX   0
N5B   3    0.679402   -0.526513   -0.115115   -31.00000    0.02267    0.05098 =
         0.09224    0.03174   -0.00490   -0.00029
C52B  1    0.656004   -0.465126   -0.152962   -31.00000    0.03252    0.05476 =
         0.07586    0.02515    0.00911    0.01627
AFIX  43
H52B  2    0.704389   -0.405475   -0.147411   -31.00000   -1.20000
AFIX   0
PART    0
C53   1    1.178916    0.183546    0.209433    11.00000    0.03259    0.03976 =
         0.05101    0.01430    0.00810    0.00548
AFIX  43
H53   2    1.147407    0.116183    0.198010    11.00000   -1.20000
AFIX   0
N6    3    1.254794    0.215167    0.186390    11.00000    0.03236    0.04633 =
         0.05475    0.00666    0.01291    0.00960
C54   1    1.292419    0.146269    0.148054    11.00000    0.03727    0.06378 =
         0.05385    0.00155    0.00662    0.01017
AFIX  23
H54A  2    1.252005    0.080242    0.146957    11.00000   -1.20000
H54B  2    1.361650    0.152495    0.175829    11.00000   -1.20000
AFIX   0
C55   1    1.289615    0.161751    0.068430    11.00000    0.03145    0.08322 =
         0.06858   -0.01897    0.00563    0.01636
AFIX  23
H55A  2    1.321240    0.116962    0.044882    11.00000   -1.20000
H55B  2    1.328781    0.228406    0.069899    11.00000   -1.20000
AFIX   0
C56   1    1.185068    0.145866    0.020238    11.00000    0.04894    0.08717 =
         0.06953   -0.01336   -0.00130    0.01527
AFIX  23
H56A  2    1.142559    0.085194    0.027947    11.00000   -1.20000
H56B  2    1.158897    0.199212    0.037799    11.00000   -1.20000
AFIX   0
C57   1    1.177072    0.140459   -0.060203    11.00000    0.06173    0.20942 =
         0.06305   -0.01810   -0.01797    0.04506
AFIX  23
H57A  2    1.207094    0.090055   -0.077501    11.00000   -1.20000
H57B  2    1.215108    0.202862   -0.068770    11.00000   -1.20000
AFIX   0
C58   1    1.066985    0.116760   -0.107957    11.00000    0.08041    0.26935 =
         0.07989   -0.04301   -0.01885    0.07648
AFIX  23
H58A  2    1.024083    0.070736   -0.085538    11.00000   -1.20000
H58B  2    1.045394    0.176638   -0.105705    11.00000   -1.20000
AFIX   0
C59   1    1.054410    0.077795   -0.182229    11.00000    0.06655    0.06540 =
         0.12655   -0.00578   -0.01961    0.00618
AFIX  23
H59A  2    1.076121    0.017986   -0.184647    11.00000   -1.20000
H59B  2    1.096807    0.123913   -0.204920    11.00000   -1.20000
AFIX   0
N7    3    0.949500    0.055305   -0.226509    11.00000    0.02530    0.07074 =
         0.09032    0.02768   -0.02146   -0.00580
C60   1    0.938826    0.086701   -0.286524    11.00000    0.03326    0.05759 =
         0.08250    0.00874    0.00728    0.00709
AFIX  43
H60   2    0.996434    0.123195   -0.297864    11.00000   -1.20000
AFIX   0
C61   1    0.652974    0.068403    0.151621    11.00000    0.05676    0.20090 =
         0.03073   -0.01495    0.00163   -0.00897
AFIX  43
H61   2    0.723000    0.091033    0.171243    11.00000   -1.20000
AFIX   0
C62   1    0.619283    0.049653    0.074532    11.00000    0.06576    0.17172 =
         0.03305   -0.01241    0.01702   -0.03014
AFIX  43
H62   2    0.665287    0.062591    0.044702    11.00000   -1.20000
AFIX   0
C63   1    0.521579    0.013048    0.040547    11.00000    0.03467    0.03897 =
         0.03369    0.00609    0.01273   -0.00163
C64   1    0.465026   -0.004707    0.090008    11.00000    0.04197    0.11457 =
         0.03400    0.00536   -0.00796    0.00591
AFIX  43
H64   2    0.395604   -0.033962    0.071600    11.00000   -1.20000
AFIX   0
C65   1    0.508523    0.019924    0.168390    11.00000    0.06167    0.08171 =
         0.03183    0.01103    0.01242   -0.00740
AFIX  43
H65   2    0.465854    0.006730    0.200711    11.00000   -1.20000
AFIX   0
PART 1
O1    4    0.154077    0.723485    0.139387    11.00000    0.16220    0.40836 =
         0.18970    0.04931    0.01186    0.00561
C68   1    0.237213    0.737776    0.187328    11.00000    0.15127    0.23282 =
         0.13405   -0.03073    0.03426   -0.00319
C69   1    0.329275    0.803980    0.178915    11.00000    0.21305    0.26629 =
         0.11626   -0.05410    0.04808   -0.08666
AFIX  33
H69A  2    0.385335    0.805704    0.220901    11.00000   -1.50000
H69B  2    0.342362    0.780859    0.131163    11.00000   -1.50000
H69C  2    0.320761    0.868978    0.179140    11.00000   -1.50000
AFIX   0
C70   1    0.251481    0.691414    0.254642    11.00000    0.09467    0.24766 =
         0.10268   -0.04482    0.01980   -0.02970
AFIX  33
H70A  2    0.321490    0.713376    0.282998    11.00000   -1.50000
H70B  2    0.210291    0.709029    0.286792    11.00000   -1.50000
H70C  2    0.232093    0.621188    0.238634    11.00000   -1.50000
AFIX   0

SAME O1 > C70
O2    4    0.145075    0.549853    0.534352    41.00000    0.32891    0.09458 =
         0.13336    0.02108    0.03157    0.05718
C71   1    0.181807    0.611478    0.499280    41.00000    0.21492    0.05516 =
         0.07940    0.00015   -0.04252    0.04827
C72   1    0.124284    0.659947    0.445195    41.00000    0.15295    0.07472 =
         0.15259    0.05265   -0.05875   -0.01187
AFIX  33
H72A  2    0.170301    0.705163    0.425309    41.00000   -1.50000
H72B  2    0.077513    0.611144    0.403472    41.00000   -1.50000
H72C  2    0.087531    0.695138    0.471538    41.00000   -1.50000
AFIX   0
C73   1    0.289094    0.649117    0.503739    41.00000    0.21165    0.14119 =
         0.05299    0.01788   -0.05289    0.04980
AFIX  33
H73A  2    0.297673    0.696680    0.470641    41.00000   -1.50000
H73B  2    0.325266    0.679738    0.555820    41.00000   -1.50000
H73C  2    0.315088    0.595754    0.487698    41.00000   -1.50000
AFIX   0
PART 2
SAME C66 > Cl3
C75   1    0.227409    0.656782    0.522330   -41.00000    0.12179    0.07565 =
         0.09512   -0.00050   -0.01762    0.01521
AFIX  13
H75   2    0.262290    0.695093    0.573974   -41.00000   -1.20000
AFIX   0
CL10  6    0.115211    0.677690    0.500543   -41.00000    0.14491    0.17828 =
         0.10723    0.02886    0.00946    0.04803
CL11  6    0.304316    0.689533    0.466983   -41.00000    0.22833    0.12864 =
         0.26146    0.09538    0.12341    0.09083
CL12  6    0.220654    0.540338    0.528618   -41.00000    0.24417    0.07723 =
         0.10176    0.00529   -0.02382    0.05411
PART 0
N1    3    0.595896   -0.005591    0.361509    11.00000    0.01951    0.03752 =
         0.03071    0.00488   -0.00056   -0.00063
N2    3    0.538778    0.164100    0.331083    11.00000    0.03009    0.03127 =
         0.02479    0.00579    0.00384    0.00819
N3    3    0.733322    0.248493    0.308659    11.00000    0.02654    0.03554 =
         0.02506    0.00338   -0.00356    0.00739
N4    3    0.790427    0.078964    0.343794    11.00000    0.02263    0.02953 =
         0.03476    0.00032    0.00715    0.00733
N9    3    0.603059    0.059530    0.200074    11.00000    0.02537    0.03831 =
         0.03802    0.00399    0.00967    0.00272
C66   1    0.113033    0.763335   -0.026957    11.00000    0.04735    0.15783 =
         0.31438   -0.03035    0.02557    0.00207
AFIX  13
H66   2    0.106819    0.752304    0.024336    11.00000   -1.20000
AFIX   0
CL1   6    0.124928    0.879826   -0.030128    11.00000    0.25469    0.13251 =
         0.69080    0.12111    0.25264    0.07765
CL2   6    0.217653    0.733943   -0.041302    11.00000    0.12313    0.16628 =
         0.20139    0.01399    0.04921    0.03959
CL3   6    0.009683    0.694581   -0.091203    11.00000    0.11369    0.34132 =
         0.21241    0.13914    0.01110    0.03693
PART 1
SAME C66 > Cl3
C67   1    0.515376    0.693294    0.092365    21.00000    0.21935    0.08961 =
         0.19641    0.04657    0.09257    0.03473
AFIX  13
H67   2    0.459462    0.648619    0.105554    21.00000   -1.20000
AFIX   0
CL4   6    0.603620    0.635855    0.082789    21.00000    0.24382    0.14938 =
         0.36725    0.08063    0.15921    0.07642
CL5   6    0.569157    0.792223    0.163913    21.00000    0.23436    0.08970 =
         0.20249    0.04838    0.07026    0.00759
CL6   6    0.470814    0.730617    0.009261    21.00000    0.23502    0.13081 =
         0.18827    0.04850    0.09463    0.03197
PART 2
SAME C66 > Cl3
C67B  1    0.485250    0.655493    0.035423   -21.00000    0.09529    0.09229 =
         0.16591    0.02505    0.07392    0.03570
AFIX  13
H67B  2    0.431722    0.617101    0.055054   -21.00000   -1.20000
AFIX   0
CL4B  6    0.577699    0.600394    0.041384   -21.00000    0.15309    0.19160 =
         0.31945   -0.00728    0.05556    0.09500
CL5B  6    0.531169    0.769934    0.089861   -21.00000    0.27533    0.11640 =
         0.19605    0.02057    0.11274    0.03684
CL6B  6    0.436532    0.661875   -0.056061   -21.00000    0.13370    0.21439 =
         0.17041    0.05012    0.07852    0.02571
PART -1
SAME C66 > Cl3
C74   1    0.506756    0.486746    0.465895    10.50000    0.07711    0.27768 =
         0.27358   -0.10227    0.05727   -0.04034
AFIX  13
H74   2    0.526890    0.440393    0.432090    10.50000   -1.20000
AFIX   0
CL7   6    0.610123    0.570543    0.511230    10.50000    0.09405    0.29024 =
         0.27777   -0.10684    0.05957   -0.00665
CL8   6    0.422546    0.527183    0.408577    10.50000    0.16814    0.39791 =
         0.26723   -0.10654    0.07734    0.09549
CL9   6    0.459507    0.422945    0.526021    10.50000    0.31987    0.43709 =
         0.32333   -0.03434    0.12486   -0.09174
PART 0

HKLF    4

REM  11 in P-1
REM R1 =  0.0990 for    4595 Fo > 4sig(Fo)  and  0.2515 for all   12530 data
REM   1003 parameters refined using    452 restraints

END

WGHT      0.1162      0.0000

REM Highest difference peak  0.712,  deepest hole -0.608,  1-sigma level  0.089
Q1    1   0.6604  0.0783  0.2660  11.00000  0.05    0.71
Q2    1   0.6585  0.1439  0.3686  11.00000  0.05    0.69
Q3    1   0.2191  0.8835  0.1427  11.00000  0.05    0.56
Q4    1   0.0393  0.5475  0.5041  11.00000  0.05    0.56
Q5    1   0.1022  0.8738 -0.0572  11.00000  0.05    0.50
Q6    1   0.6175  0.7225  0.1363  11.00000  0.05    0.49
Q7    1   0.7477  0.0835  0.2940  11.00000  0.05    0.43
Q8    1   0.5661  0.1340  0.1526  11.00000  0.05    0.43
Q9    1   0.6523  0.2399  0.3354  11.00000  0.05    0.37
Q10   1   0.6662 -0.0173  0.2978  11.00000  0.05    0.37
Q11   1   0.0819  0.7729 -0.0247  11.00000  0.05    0.35
Q12   1   0.3765  0.4698  0.4226  11.00000  0.05    0.34
Q13   1   0.3215  0.4991  0.5132  11.00000  0.05    0.34
Q14   1   0.4320  0.5634  0.3889  11.00000  0.05    0.33
Q15   1   0.1617  0.8779  0.0280  11.00000  0.05    0.33
Q16   1   0.3320  0.6751  0.4766  11.00000  0.05    0.32
Q17   1   0.3624  0.7682  0.1494  11.00000  0.05    0.32
Q18   1   1.1031  0.1565  0.0806  11.00000  0.05    0.32
Q19   1   0.5868  0.1026  0.2402  11.00000  0.05    0.31
Q20   1   0.3300  0.6413  0.2950  11.00000  0.05    0.31
;
_shelx_res_checksum              16729
_shelx_hkl_file
;
   2   0   0    1.74    0.24
  -3   0   0   97.93    2.95
   3   0   0   99.94    2.94
  -4   0   0   -0.01    0.35
   4   0   0   -0.04    0.32
  -5   0   0   12.32    0.82
   5   0   0   13.00    0.77
  -6   0   0    6.95    0.78
   6   0   0    7.16    0.79
  -7   0   0    5.39    0.86
  -8   0   0    0.72    0.66
  -9   0   0    3.22    0.88
 -10   0   0    6.67    1.11
 -11   0   0   -1.32    0.98
  11   0   0   -0.03    0.88
 -12   0   0    5.58    1.26
  12   0   0    4.82    1.64
  12   0   0    2.84    1.04
 -13   0   0    1.26    1.26
  13   0   0    2.56    1.40
  13   0   0    2.13    1.03
 -14   0   0   -0.25    1.37
  14   0   0   -1.10    1.48
  14   0   0    1.17    1.10
 -15   0   0    3.31    1.58
  15   0   0    1.84    1.26
  15   0   0    3.79    1.69
 -16   0   0   -0.73    1.67
  16   0   0    1.71    1.89
  16   0   0   -0.41    1.33
 -17   0   0    2.95    2.07
  17   0   0    0.90    2.25
  17   0   0    0.42    1.61
  18  -1   0    1.10    2.49
  18  -1   0    2.19    1.71
 -18   1   0   -1.54    2.12
  17  -1   0    1.84    1.57
  17  -1   0    4.95    2.15
 -17   1   0    2.46    1.90
  16  -1   0    0.35    1.88
  16  -1   0    1.52    1.28
 -16   1   0   -0.10    1.63
  15  -1   0    0.83    1.23
  15  -1   0    2.13    1.70
 -15   1   0    2.20    1.54
  14  -1   0    1.05    1.09
 -14   1   0    0.46    1.24
  13  -1   0    6.80    1.13
 -13   1   0    8.32    1.47
  12  -1   0    0.09    0.84
 -12   1   0    0.26    1.02
  11  -1   0    0.15    0.86
 -10   1   0   23.29    1.67
  -9   1   0    5.16    0.96
  -8   1   0   16.55    1.17
  -7   1   0   27.45    1.35
   6  -1   0   22.46    1.13
  -6   1   0   20.78    1.11
   5  -1   0    0.28    0.34
  -5   1   0    0.03    0.39
   4  -1   0   25.14    1.07
  -4   1   0   25.79    1.11
   3  -1   0   42.20    1.43
   3  -1   0   41.45    1.43
  -3   1   0   41.82    1.45
   2  -1   0    1.07    0.24
   2  -1   0    1.10    0.23
  -2  -1   0   21.47    0.83
  -2  -1   0   18.43    0.70
   2   1   0   19.89    0.82
   2   1   0   19.93    0.69
  -3  -1   0    0.44    0.31
   3   1   0   -0.03    0.43
   3   1   0    0.52    0.30
  -4  -1   0   11.20    0.71
   4   1   0   11.52    0.68
   4   1   0   10.37    0.84
  -5  -1   0   27.11    1.16
   5   1   0   26.93    1.15
  -6  -1   0    0.46    0.49
   6   1   0    0.37    0.53
  -7  -1   0   19.73    1.19
   7   1   0   18.62    1.34
  -8  -1   0   17.29    1.27
   8   1   0   15.83    1.47
  -9  -1   0    5.41    0.97
   9   1   0    5.73    1.19
 -10  -1   0    2.34    0.98
  10   1   0    1.59    1.14
 -11  -1   0   -0.64    1.01
  11   1   0   -0.34    1.22
  11   1   0   -0.65    0.85
 -12  -1   0    1.10    1.15
  12   1   0    0.69    0.95
 -13  -1   0   -0.86    1.17
  13   1   0    1.04    1.05
  13   1   0    2.36    1.45
 -14  -1   0    2.20    1.43
  14   1   0    0.97    1.56
  14   1   0    0.89    1.05
 -15  -1   0    3.52    1.66
  15   1   0    2.96    1.80
  15   1   0    2.08    1.26
 -16  -1   0    0.81    1.75
  16   1   0    1.52    1.99
  16   1   0    0.10    1.32
 -17  -1   0   -1.78    2.01
  17   1   0   -3.47    2.32
  17   1   0   -1.77    1.48
  18  -2   0    3.30    1.82
  18  -2   0    0.60    2.38
 -18   2   0    1.18    2.07
  17  -2   0    1.12    1.42
  17  -2   0    2.27    2.14
 -17   2   0    0.20    1.79
  16  -2   0   -0.15    1.21
 -16   2   0    0.26    1.57
  15  -2   0    1.89    1.25
 -15   2   0    3.71    1.45
  14  -2   0    9.21    1.37
 -14   2   0   10.15    1.62
  13  -2   0    2.39    1.01
 -13   2   0    2.71    1.27
 -12   2   0    1.10    1.03
  11  -2   0    0.30    0.81
 -11   2   0    0.71    0.97
 -10   2   0    2.46    0.89
  -9   2   0   12.86    1.19
  -8   2   0   10.95    1.01
  -7   2   0   37.71    1.64
   6  -2   0    6.18    0.81
  -6   2   0    5.60    0.73
   5  -2   0   34.95    1.37
   5  -2   0   36.22    1.39
  -5   2   0   34.98    1.44
   4  -2   0   66.96    2.20
   4  -2   0   65.26    2.20
  -4   2   0   67.27    2.24
  -4   2   0   67.57    2.24
   3  -2   0   41.10    1.45
   3  -2   0   41.05    1.45
  -3   2   0   40.02    1.47
  -3   2   0   37.45    1.45
   2  -2   0   12.47    0.66
   2  -2   0   13.25    0.65
  -2   2   0   12.09    0.67
  -2   2   0   12.17    0.65
  -1  -2   0   41.26    1.43
   1   2   0   43.22    1.44
  -2  -2   0   15.93    0.83
   2   2   0   17.22    0.88
  -3  -2   0  197.97    5.65
  -3  -2   0  203.72    5.95
   3   2   0  195.81    5.95
   3   2   0  205.93    5.65
  -4  -2   0   -0.30    0.32
   4   2   0   -0.35    0.33
   4   2   0    0.00    0.42
  -5  -2   0   44.91    1.59
   5   2   0   44.42    1.59
   5   2   0   45.07    1.74
  -6  -2   0    4.18    0.62
   6   2   0    3.58    0.70
   6   2   0    3.46    0.65
  -7  -2   0   11.32    1.02
   7   2   0   10.04    1.15
   7   2   0   10.38    1.13
  -8  -2   0   13.76    1.21
   8   2   0   13.13    1.44
  -9  -2   0    2.04    0.88
   9   2   0    2.41    1.01
 -10  -2   0   -0.01    0.95
  10   2   0   -0.33    1.04
 -11  -2   0    5.95    1.27
  11   2   0    6.78    1.44
  12   2   0   -1.39    0.89
 -13  -2   0    1.28    1.29
  13   2   0   -0.34    0.99
  13   2   0    1.12    1.49
 -14  -2   0    4.13    1.48
  14   2   0    3.21    1.28
  14   2   0    2.33    1.72
 -15  -2   0    1.72    1.60
  15   2   0   -2.13    1.82
  15   2   0    2.31    1.39
 -16  -2   0    3.31    1.87
  16   2   0    0.00    1.47
  16   2   0   -4.36    2.02
 -17  -2   0    4.92    2.18
  17   2   0    0.01    2.46
  17   2   0    2.07    1.68
  18  -3   0    2.98    1.68
 -18   3   0    1.98    2.13
  17  -3   0    1.23    1.42
 -17   3   0   -1.83    1.67
  16  -3   0    0.75    1.28
 -16   3   0    0.49    1.62
  15  -3   0    0.10    1.10
 -15   3   0    0.11    1.32
  14  -3   0    2.77    1.08
 -14   3   0    0.55    1.31
 -13   3   0    0.69    1.12
  12  -3   0    0.89    0.89
 -12   3   0    1.66    1.14
  11  -3   0    5.14    0.95
 -11   3   0    8.36    1.33
  10  -3   0    0.33    0.69
 -10   3   0   -0.22    0.66
  -9   3   0   14.00    1.16
  -8   3   0    5.33    0.85
  -7   3   0    1.32    0.59
   6  -3   0    8.63    0.88
  -6   3   0    6.49    0.86
   5  -3   0   29.09    1.21
   5  -3   0   26.70    1.22
  -5   3   0   27.94    1.33
  -5   3   0   26.57    1.23
   4  -3   0    0.52    0.46
  -4   3   0    0.74    0.47
   3  -3   0   -0.26    0.37
   3  -3   0   -0.33    0.41
  -3   3   0    0.01    0.41
  -3   3   0   -0.19    0.43
   2  -3   0   51.17    1.77
   2  -3   0   49.38    1.66
  -2   3   0   50.03    1.70
  -2   3   0   49.16    1.79
   1  -3   0    3.01    0.52
   1  -3   0    3.24    0.42
  -1   3   0    4.14    0.61
  -1   3   0    3.23    0.42
   0  -3   0    5.57    0.73
   0  -3   0    4.16    0.43
   0  -3   0    5.02    0.38
   0   3   0    5.44    0.77
  -1  -3   0   37.69    1.47
   1   3   0   38.19    1.51
  -2  -3   0   23.21    1.05
  -3  -3   0    1.81    0.44
   3   3   0    1.08    0.52
  -4  -3   0    6.56    0.85
  -4  -3   0    5.63    0.57
   4   3   0    4.72    0.75
   4   3   0    5.57    0.58
  -5  -3   0   12.81    0.80
   5   3   0   11.56    0.85
   5   3   0   12.16    1.00
  -6  -3   0    3.96    0.62
   6   3   0    3.31    0.76
   6   3   0    2.66    0.66
   7   3   0   13.58    1.30
   7   3   0   11.55    1.22
  -8  -3   0    1.10    0.73
   8   3   0    1.39    0.90
  -9  -3   0    0.01    0.84
   9   3   0   -0.43    0.99
 -10  -3   0    9.15    1.25
  10   3   0    9.76    1.49
 -11  -3   0   11.84    1.79
  11   3   0    8.50    1.26
  11   3   0   14.16    2.04
 -12  -3   0    3.34    1.37
  12   3   0   -0.61    1.35
  12   3   0    1.79    0.98
 -13  -3   0    1.43    1.30
  13   3   0   -1.31    1.51
  13   3   0    1.53    1.14
 -14  -3   0    1.58    1.43
  14   3   0    1.85    1.25
  14   3   0   -0.91    1.68
 -15  -3   0    0.93    1.63
  15   3   0    0.91    1.25
  15   3   0   -2.85    1.82
 -16  -3   0    2.19    1.99
  16   3   0    0.67    1.50
  16   3   0    0.04    2.06
  18  -4   0   -2.24    1.52
 -18   4   0    2.15    2.01
  17  -4   0    2.79    1.41
 -17   4   0   -2.44    1.56
  16  -4   0    1.31    1.21
 -16   4   0    0.09    1.60
  15  -4   0   -0.36    1.04
 -15   4   0   -0.44    1.25
  14  -4   0    0.12    0.96
 -14   4   0    0.43    1.15
  13  -4   0   -0.35    0.96
 -13   4   0   -1.29    0.96
  12  -4   0    0.12    0.85
 -12   4   0    0.03    0.96
  11  -4   0    0.41    0.70
 -11   4   0    0.11    0.90
  10  -4   0    1.90    0.68
 -10   4   0    2.97    1.03
   9  -4   0    0.51    0.56
  -9   4   0    1.75    0.64
  -8   4   0    0.07    0.55
  -7   4   0    2.32    0.64
  -6   4   0   20.92    1.17
  -6   4   0   22.21    1.30
   5  -4   0    7.97    0.70
  -5   4   0    6.12    0.79
  -5   4   0    6.43    0.87
   4  -4   0   42.98    1.61
   4  -4   0   40.70    1.61
  -4   4   0   44.78    1.70
  -4   4   0   42.83    1.70
   3  -4   0   30.86    1.32
   3  -4   0   30.94    1.23
  -3   4   0   32.37    1.29
  -3   4   0   29.86    1.37
   2  -4   0    9.02    0.67
   2  -4   0    8.37    0.83
  -2   4   0    9.54    0.71
  -2   4   0    7.38    0.91
   1  -4   0  288.30    7.79
   1  -4   0  260.02    8.13
  -1   4   0  272.79    8.17
  -1   4   0  285.75    7.79
   0  -4   0    5.28    0.70
   0  -4   0    4.47    0.53
   0  -4   0    4.81    0.46
   0   4   0    4.77    0.72
  -1  -4   0   68.62    2.41
   1   4   0   77.71    2.56
  -2  -4   0    8.03    0.72
   2   4   0    8.76    0.86
  -3  -4   0    6.97    0.83
   3   4   0    6.53    0.89
  -4  -4   0    7.86    0.87
   4   4   0    6.05    1.01
  -5  -4   0    2.17    0.47
   5   4   0    1.83    0.76
  -6  -4   0    0.87    0.52
   6   4   0    1.59    0.58
   6   4   0    0.34    0.72
  -7  -4   0    1.30    0.62
   7   4   0   -0.42    0.84
   7   4   0    1.29    0.77
  -8  -4   0    0.64    0.69
   8   4   0    0.12    1.01
   8   4   0   -0.49    0.92
  -9  -4   0   -0.03    0.87
   9   4   0   -0.03    1.13
 -10  -4   0   10.00    1.56
  10   4   0   12.49    1.69
  10   4   0    7.76    1.30
 -11  -4   0   -0.55    1.11
  11   4   0    0.65    1.31
  11   4   0   -0.03    1.03
 -12  -4   0    1.80    1.34
  12   4   0    0.84    1.07
  12   4   0    2.28    1.40
  13   4   0    3.72    1.17
  13   4   0    4.43    1.69
 -14  -4   0    0.32    1.57
  14   4   0   -0.81    1.74
  14   4   0    2.31    1.27
 -15  -4   0    0.46    1.69
  15   4   0    1.04    1.30
  15   4   0   -2.16    2.02
  16   4   0   -0.06    1.57
  16   4   0    2.26    2.40
  18  -5   0   -2.05    1.53
 -18   5   0    1.05    1.89
  17  -5   0   -1.12    1.29
 -17   5   0   -1.49    1.75
  16  -5   0    3.44    1.28
 -16   5   0    2.02    1.55
  15  -5   0    1.08    1.03
 -15   5   0    1.19    1.37
  14  -5   0    4.80    1.14
 -14   5   0    4.06    1.44
  13  -5   0    0.04    0.87
 -13   5   0    0.26    1.06
  12  -5   0    0.34    0.81
 -12   5   0   -0.19    1.00
  11  -5   0    0.87    0.72
 -11   5   0    1.94    1.14
  10  -5   0   16.88    1.55
 -10   5   0   15.11    1.56
   9  -5   0    0.73    0.50
  -9   5   0    1.07    0.63
  -8   5   0    0.88    0.69
  -8   5   0    0.57    0.59
  -7   5   0    4.24    0.79
  -7   5   0    3.85    0.78
  -6   5   0   69.75    2.58
  -6   5   0   68.24    2.52
  -5   5   0    5.55    0.83
  -5   5   0    5.00    0.76
   4  -5   0    7.85    0.71
  -4   5   0    7.73    0.88
  -4   5   0    6.94    0.78
   3  -5   0    3.73    0.60
   3  -5   0    3.05    0.53
  -3   5   0    4.21    0.74
  -3   5   0    4.00    0.63
   2  -5   0   10.22    0.88
   2  -5   0   11.23    0.74
  -2   5   0    9.39    0.98
  -2   5   0   10.75    0.73
  -2   5   0    9.69    0.69
   1  -5   0   65.10    2.05
   1  -5   0   61.37    2.23
  -1   5   0   64.32    2.33
  -1   5   0   63.37    2.15
   0  -5   0   19.86    0.87
   0  -5   0   20.53    0.89
   0  -5   0   19.71    1.08
   0   5   0   21.81    1.25
  -1  -5   0   -0.35    0.34
  -2  -5   0   36.81    1.62
   2   5   0   41.38    1.68
   3   5   0   45.25    1.83
   4   5   0   11.66    1.23
   5   5   0    5.32    1.17
   6   5   0    4.47    1.28
  -7  -5   0    6.13    0.77
   7   5   0    4.70    0.88
   7   5   0    5.45    1.37
  -8  -5   0   -0.28    0.74
   8   5   0    0.26    0.98
   8   5   0    1.32    1.27
  -9  -5   0    8.65    1.12
   9   5   0   10.73    1.74
   9   5   0    6.98    1.29
 -10  -5   0    1.90    1.06
  10   5   0    1.64    0.99
 -11  -5   0    0.01    1.17
  11   5   0   -0.10    1.41
  11   5   0    0.01    0.91
 -12  -5   0   -0.72    1.32
  12   5   0    1.33    1.58
  12   5   0   -0.28    1.02
 -13  -5   0    1.33    1.54
  13   5   0    1.18    1.68
  13   5   0    0.83    1.10
  14   5   0    2.24    1.37
  14   5   0   -0.72    1.94
  15   5   0    0.49    2.22
  15   5   0   -0.29    1.38
 -18   6   0    1.00    1.97
  17  -6   0   -2.04    1.25
 -17   6   0   -0.24    1.60
  16  -6   0   -0.79    1.16
 -16   6   0   -1.58    1.42
  15  -6   0    0.70    1.11
 -15   6   0    0.64    1.38
  14  -6   0    7.27    1.22
 -14   6   0   11.42    1.89
  13  -6   0    1.88    0.89
 -13   6   0    3.30    1.25
  12  -6   0   -0.11    0.72
 -12   6   0    0.29    0.99
  11  -6   0    0.57    0.64
 -11   6   0   -0.43    0.88
 -10   6   0   20.56    1.76
  -9   6   0   -0.03    0.78
  -8   6   0    8.41    1.11
  -8   6   0    7.72    1.11
  -7   6   0    5.92    0.86
  -7   6   0    5.31    0.84
  -6   6   0    1.14    0.55
  -6   6   0    0.31    0.56
  -5   6   0    1.32    0.53
  -5   6   0    2.05    0.64
  -4   6   0    0.14    0.53
  -4   6   0    0.29    0.42
   3  -6   0    1.10    0.55
  -3   6   0    0.30    0.42
  -3   6   0    0.48    0.58
   2  -6   0    0.72    0.49
  -2   6   0    0.24    0.57
  -2   6   0    0.40    0.41
  -2   6   0    0.09    0.32
   1  -6   0    5.49    0.71
   1  -6   0    4.57    0.59
  -1   6   0    5.93    0.96
  -1   6   0    4.71    0.79
   0  -6   0    1.70    0.46
   0  -6   0    1.43    0.45
   0   6   0    1.62    0.64
   1   6   0   24.97    1.39
   2   6   0    2.59    0.75
   3   6   0    1.54    0.77
   5   6   0    0.36    0.93
   6   6   0    1.38    1.23
   7   6   0    0.64    1.40
   8   6   0   -0.19    1.56
   8   6   0   -0.11    0.94
   9   6   0    0.86    0.94
  10   6   0    0.55    1.05
  10   6   0    4.10    1.73
  11   6   0   -0.08    0.94
  11   6   0    3.22    1.76
  12   6   0    2.79    1.88
  12   6   0    0.53    1.05
  13   6   0    2.48    1.98
  13   6   0    1.39    1.13
  14   6   0    2.06    2.13
  14   6   0    0.56    1.35
  15   6   0    0.49    2.19
 -18   7   0    0.23    1.85
 -17   7   0    0.69    1.74
  16  -7   0    0.62    1.34
 -16   7   0   -0.65    1.51
  15  -7   0    0.65    1.15
 -15   7   0    0.01    1.29
 -14   7   0    0.51    1.31
 -13   7   0    0.07    1.14
 -12   7   0    6.33    1.52
 -11   7   0    3.70    1.12
 -10   7   0    1.95    0.94
  -9   7   0   10.21    1.46
  -9   7   0   11.50    1.43
  -8   7   0    5.51    0.91
  -8   7   0    5.71    0.94
  -7   7   0    4.92    0.84
  -7   7   0    6.19    0.93
  -6   7   0   19.41    1.29
  -6   7   0   19.99    1.24
  -5   7   0   13.30    1.04
  -5   7   0   14.71    1.16
  -4   7   0    1.51    0.53
  -4   7   0    1.64    0.63
  -3   7   0   16.29    1.26
  -3   7   0   16.65    1.05
   2  -7   0    5.32    0.90
  -2   7   0    5.00    0.85
  -2   7   0    4.28    0.52
   1  -7   0   -0.21    0.54
   1  -7   0    1.45    0.57
  -1   7   0    0.00    0.42
  -1   7   0   -0.11    0.66
   0  -7   0    0.75    0.50
   0  -7   0    0.19    0.51
   0   7   0   -0.61    0.48
   0   7   0    0.23    0.60
   1   7   0   29.75    1.62
   2   7   0    1.15    0.73
   3   7   0    5.63    0.94
   6   7   0   -1.21    1.09
   7   7   0    5.13    1.52
   8   7   0    2.13    1.60
   8   7   0    2.64    1.00
   9   7   0   -0.11    1.01
   9   7   0   -0.97    1.45
  10   7   0   -1.93    1.49
  10   7   0    0.22    0.95
  11   7   0    2.75    1.16
  11   7   0    2.97    1.77
  12   7   0    1.91    1.11
  12   7   0    1.93    1.84
  13   7   0    0.09    1.17
  13   7   0   -1.64    1.94
  14   7   0    0.01    1.32
  14   7   0   -2.13    2.16
 -17   8   0    2.51    1.90
 -16   8   0    0.59    1.59
 -15   8   0    5.17    1.63
 -14   8   0    1.08    1.31
 -13   8   0    0.41    1.12
 -12   8   0    0.47    1.05
 -11   8   0    0.90    1.00
 -10   8   0    0.62    1.03
 -10   8   0    0.81    1.07
  -9   8   0    6.65    1.23
  -9   8   0    6.43    1.31
  -8   8   0    2.34    0.90
  -7   8   0    0.54    0.61
  -7   8   0    0.61    0.68
  -6   8   0    0.91    0.60
  -6   8   0    1.03    0.59
  -5   8   0   11.74    1.08
  -5   8   0   11.19    1.20
  -4   8   0    0.63    0.72
  -4   8   0    0.28    0.54
  -3   8   0    1.01    0.60
  -3   8   0    1.04    0.76
  -3   8   0    0.60    0.40
   2  -8   0   -0.31    0.66
   2  -8   0    0.03    0.61
  -2   8   0   -0.49    0.66
  -2   8   0   -0.27    0.43
   1  -8   0    0.67    0.59
   1  -8   0    1.08    0.67
  -1   8   0    0.27    0.48
  -1   8   0    0.47    0.66
   0  -8   0   15.27    1.02
   0  -8   0   16.05    1.07
   0   8   0   13.59    1.36
   0   8   0   13.90    1.23
   1   8   0   10.47    1.06
   1   8   0   10.73    1.33
   2   8   0    0.29    0.68
   2   8   0    0.24    0.59
   3   8   0    1.28    0.62
   3   8   0   -0.08    0.76
   5   8   0    0.18    1.30
   5   8   0    0.45    0.93
   6   8   0    2.02    1.02
   7   8   0    1.27    0.92
   7   8   0    1.89    1.55
   8   8   0   -0.95    1.43
   8   8   0   -0.54    0.86
   9   8   0    5.05    1.66
   9   8   0    2.26    1.08
  10   8   0    6.21    1.73
  10   8   0    4.33    1.24
  11   8   0    1.69    1.09
  11   8   0    3.98    1.90
  12   8   0   -0.62    1.82
  12   8   0    0.93    1.27
  13   8   0    0.47    1.36
  13   8   0    0.83    2.10
  14   8   0   -0.43    1.49
  14   8   0   -0.93    2.40
 -18   9   0   -1.18    1.91
 -17   9   0   -0.06    1.70
 -16   9   0    1.21    1.55
 -15   9   0   -0.09    1.39
 -14   9   0   -1.58    1.25
 -13   9   0   18.02    2.11
 -12   9   0    2.83    1.26
 -11   9   0    0.05    1.00
 -11   9   0    1.09    1.22
 -10   9   0   -0.47    1.02
 -10   9   0    0.27    1.07
  -9   9   0    0.41    1.11
  -9   9   0   -0.41    0.93
  -8   9   0   -0.11    0.87
  -8   9   0   -0.35    0.99
  -7   9   0    2.85    0.83
  -6   9   0    8.56    1.32
  -6   9   0    8.25    1.18
  -5   9   0    9.08    1.31
  -5   9   0    7.70    1.13
  -4   9   0    7.70    1.23
  -4   9   0    8.60    1.11
   3  -9   0    1.84    0.80
  -3   9   0    1.70    0.50
  -3   9   0    0.84    0.72
   2  -9   0    0.57    0.70
  -2   9   0    1.31    0.57
  -2   9   0    0.22    0.68
   1  -9   0    2.01    0.81
   1  -9   0    1.89    0.70
  -1   9   0    1.19    0.60
  -1   9   0    2.64    0.80
   0  -9   0    7.86    0.87
   0  -9   0    7.26    0.91
   0   9   0    7.03    1.08
   0   9   0    5.16    0.76
   1   9   0    0.92    0.79
   1   9   0    0.04    0.65
   2   9   0   -0.05    0.69
   2   9   0    0.65    0.86
   3   9   0    1.32    1.14
   4   9   0    3.54    1.02
   5   9   0    2.30    0.98
   5   9   0    0.25    1.45
   6   9   0    0.25    0.87
   6   9   0   -0.86    1.54
   7   9   0    2.55    1.09
   7   9   0    3.94    1.69
   8   9   0    0.67    1.62
   8   9   0    0.26    0.93
   9   9   0    2.70    1.82
   9   9   0    3.43    1.06
  10   9   0    2.29    1.10
  10   9   0    2.21    1.85
  11   9   0   -1.19    1.89
  11   9   0    0.68    1.29
  12   9   0    0.19    1.20
  12   9   0   -1.29    2.10
  13   9   0   -0.07    1.29
  13   9   0    2.43    2.34
 -18  10   0    1.89    2.21
 -17  10   0   -1.93    1.86
 -16  10   0   -0.35    1.60
 -15  10   0    1.26    1.53
 -14  10   0    0.31    1.31
 -13  10   0    0.24    1.29
 -12  10   0   -0.01    1.40
 -12  10   0   -1.01    1.13
 -11  10   0    2.70    1.29
 -11  10   0   -0.10    1.20
 -10  10   0    5.74    1.38
 -10  10   0    4.64    1.40
  -9  10   0    0.75    1.18
  -9  10   0    0.46    1.08
  -8  10   0   -0.52    0.95
  -8  10   0   -0.22    1.20
  -7  10   0   -1.75    1.01
  -7  10   0    0.35    0.89
  -6  10   0    2.66    0.95
  -6  10   0    0.81    1.04
  -5  10   0    8.16    1.16
  -5  10   0    5.96    1.38
   4 -10   0   18.97    1.57
  -4  10   0   18.47    1.89
   3 -10   0   -0.82    0.84
  -3  10   0    0.11    0.58
   2 -10   0    5.29    0.97
  -2  10   0    3.71    0.74
   1 -10   0    7.06    1.06
   1 -10   0    7.20    0.98
  -1  10   0    5.32    0.86
   0 -10   0    4.72    0.91
   0 -10   0    4.84    0.93
   0  10   0    3.17    1.43
   0  10   0    3.07    0.81
   1  10   0   -0.40    0.73
   1  10   0    0.53    1.21
   2  10   0    2.14    0.86
   2  10   0    3.43    1.37
   3  10   0    2.54    0.91
   3  10   0    3.82    1.39
   4  10   0    0.22    0.88
   4  10   0   -0.43    1.48
   5  10   0    0.08    0.87
   5  10   0    0.90    1.40
   6  10   0    1.24    1.01
   6  10   0    0.06    1.41
   7  10   0    1.99    1.03
   7  10   0    2.70    1.61
   8  10   0    2.63    1.06
   8  10   0    3.25    1.77
   9  10   0    0.92    1.92
   9  10   0    2.05    1.09
  10  10   0    1.20    1.17
  10  10   0   -0.81    1.91
  11  10   0    0.77    2.12
  11  10   0    1.12    1.30
  12  10   0    1.83    2.33
 -17  11   0    0.74    2.18
 -16  11   0   -2.69    1.61
 -15  11   0   -0.39    1.36
 -14  11   0    0.86    1.44
 -13  11   0    0.95    1.35
 -12  11   0    0.78    1.47
 -12  11   0    1.11    1.42
 -11  11   0    3.44    1.43
 -11  11   0    2.41    1.33
 -10  11   0    6.15    1.60
 -10  11   0    4.41    1.34
  -9  11   0    0.44    1.13
  -9  11   0    0.98    1.17
  -8  11   0    4.50    1.22
  -8  11   0    3.39    1.37
  -7  11   0   -0.09    1.28
  -7  11   0    0.82    1.04
  -6  11   0   -0.40    1.10
   5 -11   0   21.00    1.87
  -5  11   0   18.16    2.08
   4 -11   0    5.00    1.15
  -4  11   0    4.96    1.39
   3 -11   0    2.34    1.06
  -3  11   0    0.44    1.13
  -3  11   0    1.37    0.70
   2 -11   0    0.62    0.89
  -2  11   0   -1.54    1.13
  -2  11   0   -0.24    0.72
   1 -11   0   -0.16    0.92
  -1  11   0    0.84    0.81
  -1  11   0    0.74    1.18
   0 -11   0    0.28    0.94
   0  11   0   -0.25    0.86
   0  11   0   -0.37    1.23
   1  11   0    4.31    1.49
   1  11   0    4.09    0.98
   2  11   0    1.72    1.37
   2  11   0    2.54    0.95
   3  11   0    0.42    0.88
   3  11   0    0.89    1.33
   4  11   0    4.02    1.05
   4  11   0    7.92    1.61
   5  11   0    1.28    1.00
   5  11   0    0.02    1.36
   6  11   0   -0.29    1.63
   6  11   0    0.36    0.94
   7  11   0   -1.12    1.75
   7  11   0    0.98    1.04
   8  11   0    2.89    1.83
   8  11   0    3.52    1.30
   9  11   0    0.57    1.82
   9  11   0    0.76    1.21
  10  11   0   -0.48    1.99
  10  11   0   -0.24    1.24
  11  11   0    0.27    2.17
 -17  12   0    0.59    1.82
 -16  12   0   -0.78    1.81
 -15  12   0    1.40    1.65
 -14  12   0    0.01    1.54
 -13  12   0   -1.25    1.43
 -13  12   0    0.22    1.53
 -12  12   0    3.34    1.52
 -12  12   0    5.22    1.69
 -11  12   0    3.84    1.48
 -11  12   0    5.60    1.60
 -10  12   0    2.23    1.35
 -10  12   0    4.76    1.55
  -9  12   0    4.10    1.39
  -9  12   0    4.85    1.50
  -8  12   0    0.90    1.30
  -8  12   0    1.69    1.24
  -7  12   0   -0.19    1.28
   6 -12   0    6.74    1.43
  -6  12   0    3.75    1.41
   5 -12   0    2.66    1.27
  -5  12   0    1.70    1.27
   4 -12   0    0.25    1.14
  -4  12   0   -0.04    1.27
   3 -12   0    1.51    1.10
  -3  12   0    0.75    1.23
  -3  12   0    0.33    0.79
   2 -12   0    0.40    1.04
  -2  12   0    0.30    1.30
  -2  12   0    1.24    0.82
   1 -12   0    4.42    1.24
  -1  12   0    5.12    1.06
  -1  12   0    5.12    1.43
   0 -12   0    0.43    1.11
   0  12   0   -0.02    1.34
   0  12   0    1.22    0.95
   1  12   0    1.74    1.49
   1  12   0    0.74    0.97
   2  12   0   -0.46    1.36
   2  12   0    0.75    0.88
   3  12   0    2.33    1.01
   3  12   0    0.89    1.36
   4  12   0    0.41    1.44
   4  12   0    1.04    1.08
   5  12   0    0.69    1.09
   5  12   0    0.54    1.56
   6  12   0    1.79    1.10
   6  12   0    0.01    1.60
   7  12   0    2.84    1.21
   7  12   0    2.70    1.79
   8  12   0    0.03    1.28
   8  12   0   -1.16    1.83
   9  12   0    1.82    2.18
   9  12   0    1.43    1.35
  10  12   0   -2.39    2.08
 -16  13   0    0.49    2.18
 -15  13   0   -0.69    1.75
 -14  13   0   -2.84    1.65
 -14  13   0   -2.12    1.43
 -13  13   0    2.91    1.80
 -13  13   0    0.41    1.60
 -12  13   0    1.84    1.50
 -12  13   0   -0.05    1.67
 -11  13   0    1.49    1.40
 -11  13   0    0.08    1.47
 -10  13   0    1.76    1.51
 -10  13   0    1.17    1.40
  -9  13   0    3.22    1.71
  -9  13   0    2.72    1.37
   8 -13   0    0.93    1.24
  -8  13   0   -0.51    1.35
   7 -13   0   -0.95    1.13
  -7  13   0   -2.35    1.32
   6 -13   0    3.56    1.28
  -6  13   0    1.87    1.36
   5 -13   0    0.30    1.17
  -5  13   0    1.37    1.31
   4 -13   0   -0.18    1.15
  -4  13   0   -0.05    1.16
   3 -13   0   -0.18    1.19
  -3  13   0    2.74    1.37
  -3  13   0    0.36    0.88
   2 -13   0   -1.94    1.16
  -2  13   0   -0.76    1.36
  -2  13   0    0.36    0.92
   1 -13   0    1.50    1.26
  -1  13   0    0.72    1.34
  -1  13   0   -1.23    0.98
   0  13   0    0.33    0.93
   0  13   0    2.52    1.30
   1  13   0    3.74    1.45
   1  13   0    2.79    1.12
   2  13   0    0.06    1.40
   2  13   0   -0.97    1.04
   3  13   0    1.04    1.45
   3  13   0    1.54    1.22
   4  13   0    2.90    1.33
   4  13   0    4.39    1.85
   5  13   0   -0.36    1.21
   5  13   0    1.61    1.76
   6  13   0    0.56    1.26
   6  13   0    2.60    1.86
   7  13   0    2.18    1.97
   7  13   0    1.91    1.42
   8  13   0    2.22    2.14
   8  13   0   -0.28    1.26
   9  13   0    2.74    2.23
  16 -14   0   -2.03    1.89
 -14  14   0    2.31    2.29
 -14  14   0    0.95    1.89
 -13  14   0    0.51    1.70
 -13  14   0    0.83    1.73
 -12  14   0    3.17    1.67
  11 -14   0    1.28    1.71
 -11  14   0    0.72    1.91
  10 -14   0    4.14    1.72
 -10  14   0    2.95    1.67
   9 -14   0   -0.29    1.38
  -9  14   0    1.71    1.55
   8 -14   0    0.22    1.36
  -8  14   0   -0.96    1.31
   7 -14   0    0.06    1.35
  -7  14   0   -0.40    1.36
   6 -14   0    1.74    1.41
  -6  14   0   -0.70    1.31
   5 -14   0    0.08    1.21
  -5  14   0   -0.06    1.39
  -4  14   0    0.64    1.06
  -4  14   0    1.50    1.40
   3 -14   0    2.10    1.40
  -3  14   0    1.05    1.07
  -3  14   0   -0.05    1.40
   2 -14   0   -0.38    1.39
  -2  14   0    0.14    1.29
  -2  14   0    0.85    1.12
   1 -14   0    2.18    1.47
  -1  14   0    0.19    1.48
  -1  14   0   -0.26    1.00
   0  14   0    4.31    1.55
   0  14   0    1.37    1.08
   1  14   0    1.60    1.15
   1  14   0    1.38    1.45
   2  14   0    1.67    1.24
   2  14   0    2.03    1.57
   3  14   0    1.03    1.29
   3  14   0    0.06    1.72
   4  14   0    0.81    1.71
   4  14   0    0.08    1.28
   5  14   0    0.79    1.43
   5  14   0    2.97    1.91
   6  14   0    2.84    2.07
   6  14   0    0.40    1.50
   7  14   0    2.43    2.04
   7  14   0   -0.64    1.49
   8  14   0    1.15    2.22
  15 -15   0    3.19    1.91
  14 -15   0    3.27    1.97
 -14  15   0    2.00    2.16
  13 -15   0    2.17    1.86
 -13  15   0   -0.17    1.96
  12 -15   0    0.81    1.74
 -12  15   0    3.43    1.94
  11 -15   0    0.10    1.70
 -11  15   0    2.91    1.92
  10 -15   0    0.15    1.59
 -10  15   0    2.30    1.75
   9 -15   0   -0.52    1.61
  -9  15   0    0.96    1.69
   8 -15   0   -0.34    1.43
  -8  15   0    0.76    1.63
   7 -15   0    2.85    1.57
  -7  15   0    0.35    1.45
   6 -15   0   -1.13    1.38
  -6  15   0    0.09    1.44
   5 -15   0   -1.35    1.31
  -5  15   0   -1.12    1.41
   4 -15   0    0.00    1.29
  -4  15   0    0.72    1.42
   3 -15   0   -0.11    1.60
  -3  15   0    1.55    1.52
  -3  15   0    1.11    1.24
   2 -15   0    3.81    1.66
  -2  15   0    3.61    1.48
  -1  15   0    1.40    1.17
  -1  15   0    1.00    1.54
   0  15   0    0.85    1.50
   0  15   0   -1.20    1.16
   1  15   0    4.19    1.77
   1  15   0    1.47    1.26
   2  15   0    4.41    1.67
   2  15   0    4.13    1.39
   3  15   0    2.65    1.78
   3  15   0    2.58    1.37
   4  15   0   -0.41    1.77
   4  15   0    0.82    1.45
   5  15   0    1.65    1.47
   5  15   0   -1.90    1.94
   6  15   0    0.81    1.62
   6  15   0    0.50    2.15
   7  15   0   -0.52    2.43
  13 -16   0    2.10    2.18
 -13  16   0   -0.23    1.99
  12 -16   0    2.89    2.20
 -12  16   0    2.31    2.04
  11 -16   0   -0.54    1.81
 -11  16   0    4.16    2.24
  10 -16   0    1.90    1.78
 -10  16   0    1.82    1.92
   9 -16   0   -0.58    1.70
  -9  16   0    1.46    2.01
   8 -16   0    1.29    1.68
  -8  16   0    0.22    1.64
   7 -16   0   -0.35    1.51
  -7  16   0   -0.90    1.63
   6 -16   0   -1.57    1.45
  -6  16   0    0.18    1.57
   5 -16   0    1.11    1.52
  -5  16   0   -0.37    1.51
   4 -16   0    2.48    1.55
  -4  16   0   -0.58    1.44
  -4  16   0    1.27    1.69
   3 -16   0    1.45    1.96
  -3  16   0    0.58    1.44
  -3  16   0    2.64    1.71
   2 -16   0    1.21    1.92
  -2  16   0    0.21    1.25
  -2  16   0    3.15    1.77
  -1  16   0   -0.15    1.32
  -1  16   0    1.76    1.64
   0  16   0   -1.11    1.32
   0  16   0   -0.74    1.56
   1  16   0   -0.44    1.34
   1  16   0    2.50    1.89
   2  16   0   -0.49    1.46
   2  16   0    0.61    1.71
   3  16   0    2.98    1.96
   3  16   0    1.44    1.54
   4  16   0    3.49    1.70
   4  16   0    3.99    2.22
   5  16   0    2.86    1.87
   5  16   0    3.09    2.32
  12 -17   0    1.79    2.13
  11 -17   0    0.62    2.19
 -11  17   0    2.68    2.32
  10 -17   0    0.95    1.91
 -10  17   0    1.59    2.15
   9 -17   0    1.17    1.98
  -9  17   0    3.10    2.16
   8 -17   0   -0.98    1.84
  -8  17   0   -1.67    1.78
   7 -17   0   -1.50    1.70
  -7  17   0   -0.57    1.69
   6 -17   0    1.68    1.85
  -6  17   0    3.61    1.92
   5 -17   0    0.75    1.70
  -5  17   0    0.46    1.69
   4 -17   0    2.58    1.87
  -4  17   0    1.61    1.72
  -3  17   0   -0.70    1.49
  -3  17   0    1.87    1.64
  -2  17   0    1.80    1.84
  -2  17   0   -1.41    1.38
  -1  17   0   -1.18    1.46
  -1  17   0    2.17    1.84
   0  17   0    1.55    1.91
   0  17   0   -0.37    1.54
   1  17   0    0.61    1.68
   1  17   0   -0.08    1.84
   2  17   0   -1.40    1.91
   2  17   0   -1.44    1.68
   3  17   0   -2.50    1.79
   3  17   0    2.49    2.23
  11 -18   0    2.30    2.25
 -11  18   0    1.72    2.45
  10 -18   0   -0.39    2.10
 -10  18   0    0.41    2.38
   9 -18   0   -1.72    2.09
   8 -18   0   -3.25    1.87
   7 -18   0    0.47    2.03
  -7  18   0   -0.48    1.75
   6 -18   0    0.06    1.89
  -6  18   0    0.77    1.68
   5 -18   0    1.41    2.02
  -5  18   0    2.64    1.83
  -4  18   0    0.55    2.12
  -3  18   0    3.12    1.83
  -2  18   0    1.80    1.88
  -1  18   0    1.04    2.15
  -1  18   0   -0.20    1.67
   0  18   0   -0.85    1.78
   0  18   0    2.99    2.02
   1  18   0   -1.89    1.82
   7 -19   0    0.00    2.27
  -7  19   0   -0.75    2.12
  -6  19   0   -1.20    2.16
  -5  19   0    0.34    1.93
  -4  19   0    2.45    2.06
  -3  19   0    3.59    2.20
  -2  19  -1    3.22    2.13
  -3  19  -1    0.86    1.97
  -4  19  -1    1.78    1.99
  -5  19  -1    0.47    1.93
  -6  19  -1    0.65    2.06
   6 -19   1    0.96    2.34
  -7  19  -1   -1.79    2.04
   7 -19   1   -0.56    2.25
  -8  19  -1    0.53    2.36
   8 -19   1   -0.77    2.24
   1  18  -1    2.01    2.18
   1  18  -1   -2.09    1.81
   0  18  -1   -2.02    1.69
   0  18  -1    0.60    1.99
  -1  18  -1    2.90    1.93
  -1  18  -1   -3.68    1.76
  -2  18  -1    3.87    2.07
  -3  18  -1   -0.06    1.98
  -4  18  -1    2.41    1.88
   4 -18   1   -4.24    1.98
  -5  18  -1    0.64    1.97
   5 -18   1    1.93    2.07
  -6  18  -1    0.81    1.91
   6 -18   1    2.86    2.06
  -7  18  -1   -1.70    1.87
   7 -18   1    0.39    2.06
  -8  18  -1    3.71    2.35
   8 -18   1   -0.22    1.98
   9 -18   1   -2.62    2.05
 -10  18  -1    0.92    2.20
  10 -18   1   -2.91    2.09
 -11  18  -1    1.05    2.56
  11 -18   1   -1.25    2.29
   4  17  -1   -0.28    1.81
   4  17  -1    2.12    2.26
   3  17  -1   -0.67    1.68
   3  17  -1    2.74    2.09
   2  17  -1   -1.02    1.57
   2  17  -1    1.94    2.00
   1  17  -1    2.52    1.95
   1  17  -1   -2.07    1.54
   0  17  -1    1.61    1.72
   0  17  -1   -0.90    1.49
  -1  17  -1   -0.77    1.47
  -1  17  -1    2.61    1.86
  -2  17  -1    2.56    1.69
  -2  17  -1   -1.52    1.47
  -3  17  -1    2.09    1.69
  -3  17  -1   -0.86    1.48
   3 -17   1    0.93    1.83
  -4  17  -1   -0.78    1.52
   4 -17   1    1.84    1.86
  -5  17  -1    0.24    1.61
   5 -17   1    1.97    1.77
  -6  17  -1   -1.26    1.62
   6 -17   1    2.14    1.73
  -7  17  -1   -0.66    1.84
   7 -17   1   -0.82    1.65
  -8  17  -1    1.32    1.88
   8 -17   1   -3.44    1.71
  -9  17  -1   -0.19    1.97
   9 -17   1   -0.95    1.85
 -10  17  -1   -1.08    1.86
  10 -17   1    2.48    1.99
 -11  17  -1    1.64    2.11
  11 -17   1    0.86    2.19
  12 -17   1    1.95    2.41
   5  16  -1    4.84    2.26
   5  16  -1    0.92    1.74
   4  16  -1   -0.49    1.56
   4  16  -1    2.83    2.21
   3  16  -1    2.15    1.83
   3  16  -1   -1.45    1.60
   2  16  -1   -2.66    1.41
   2  16  -1   -0.95    1.70
   1  16  -1   -0.48    1.34
   1  16  -1    0.28    1.68
   0  16  -1   -1.65    1.29
   0  16  -1    1.07    1.54
  -1  16  -1    2.89    1.60
  -1  16  -1    0.44    1.34
   1 -16   1    1.44    2.07
  -2  16  -1    1.89    1.71
  -2  16  -1   -1.83    1.16
   2 -16   1    0.53    1.92
  -3  16  -1    3.59    1.65
  -3  16  -1    5.93    1.79
   3 -16   1    3.45    1.68
  -4  16  -1    2.47    1.79
  -4  16  -1    0.85    1.47
   4 -16   1    4.61    1.65
  -5  16  -1   -0.87    1.49
   5 -16   1   -0.52    1.54
  -6  16  -1   -1.51    1.44
   6 -16   1   -0.28    1.51
  -7  16  -1    0.16    1.49
   7 -16   1   -2.29    1.56
  -8  16  -1    2.52    1.73
   8 -16   1    1.62    1.64
  -9  16  -1    0.06    1.74
   9 -16   1    1.09    1.72
 -10  16  -1    1.69    2.05
  10 -16   1    0.26    1.74
 -11  16  -1    1.11    1.76
  11 -16   1    0.46    1.93
 -12  16  -1    4.10    2.25
  12 -16   1    0.05    1.86
 -13  16  -1    4.70    2.18
  13 -16   1   -0.53    1.99
 -14  16  -1    0.62    2.39
  14 -16   1   -1.20    2.13
   7  15  -1    1.46    2.24
   7  15  -1    3.76    1.77
   6  15  -1   -0.38    2.10
   6  15  -1    1.63    1.56
   5  15  -1    4.08    2.27
   5  15  -1    1.69    1.46
   4  15  -1    2.75    1.39
   4  15  -1    5.16    2.02
   3  15  -1    0.49    1.29
   3  15  -1    2.77    1.72
   2  15  -1   -0.48    1.23
   2  15  -1    1.29    1.56
   1  15  -1    0.41    1.24
   1  15  -1    0.76    1.62
   0  15  -1   -0.11    1.46
   0  15  -1   -0.12    1.13
  -1  15  -1   -1.27    1.10
  -1  15  -1    2.20    1.67
   1 -15   1    0.03    1.76
  -2  15  -1    5.41    1.75
   2 -15   1    4.98    1.68
  -3  15  -1    1.89    1.53
  -3  15  -1    0.76    1.27
  -4  15  -1   -0.07    1.37
   4 -15   1    0.33    1.32
  -5  15  -1    1.75    1.46
   5 -15   1    0.18    1.40
  -6  15  -1   -0.35    1.43
   6 -15   1   -2.34    1.33
  -7  15  -1    0.65    1.38
   7 -15   1    1.37    1.55
  -8  15  -1    1.69    1.57
   8 -15   1    0.55    1.56
  -9  15  -1    3.52    1.83
   9 -15   1    1.83    1.66
 -10  15  -1    0.90    1.79
  10 -15   1   -0.63    1.55
 -11  15  -1    1.28    1.86
  11 -15   1   -0.77    1.66
 -12  15  -1    1.86    1.88
  12 -15   1    0.36    1.70
 -13  15  -1    3.19    1.90
  13 -15   1    2.65    2.04
 -14  15  -1   -0.25    2.16
  14 -15   1    1.09    1.97
  15 -15   1    6.14    2.35
   8  14  -1    0.50    1.55
   8  14  -1    1.31    2.24
   7  14  -1    1.37    1.59
   7  14  -1    2.47    2.13
   6  14  -1    1.24    1.37
   6  14  -1   -0.89    1.89
   5  14  -1    1.27    1.37
   5  14  -1   -0.11    1.84
   4  14  -1    3.44    1.81
   4  14  -1    3.28    1.36
   3  14  -1    2.92    1.75
   3  14  -1    1.96    1.22
   2  14  -1    3.42    1.59
   2  14  -1    2.17    1.20
   1  14  -1    1.42    1.50
   1  14  -1   -0.94    1.05
   0  14  -1    0.19    1.29
   0  14  -1   -0.41    0.98
   0 -14   1   -0.84    1.44
  -1  14  -1    1.60    1.31
   1 -14   1   -0.24    1.43
  -2  14  -1    0.76    1.43
  -2  14  -1    1.51    1.16
   2 -14   1    0.86    1.43
  -3  14  -1    0.42    1.09
  -3  14  -1    1.75    1.26
   3 -14   1    0.35    1.42
  -4  14  -1    1.26    1.30
   4 -14   1   -1.07    1.27
  -5  14  -1    0.23    1.36
   5 -14   1   -2.53    1.15
  -6  14  -1    0.09    1.30
   6 -14   1    0.54    1.29
  -7  14  -1    1.36    1.56
   7 -14   1    3.50    1.49
  -8  14  -1    1.44    1.51
   8 -14   1    1.55    1.41
  -9  14  -1    0.88    1.57
   9 -14   1    0.52    1.43
 -10  14  -1    1.05    1.74
  10 -14   1    0.52    1.62
 -11  14  -1    4.38    1.85
  11 -14   1   -0.10    1.63
 -12  14  -1    0.29    1.75
  12 -14   1    0.86    1.61
 -13  14  -1    1.72    1.92
  13 -14   1    0.22    1.76
  14 -14   1   -0.37    1.75
   9  13  -1    1.44    1.38
   9  13  -1    1.24    2.19
   8  13  -1    0.06    1.32
   8  13  -1    2.22    2.22
   7  13  -1    1.18    1.35
   7  13  -1    0.73    1.80
   6  13  -1    2.01    1.75
   6  13  -1    2.44    1.40
   5  13  -1    4.58    1.45
   5  13  -1    6.94    1.88
   4  13  -1    0.70    1.13
   4  13  -1   -1.15    1.57
   3  13  -1    0.05    1.51
   3  13  -1    1.98    1.09
   2  13  -1   -0.09    1.51
   2  13  -1   -0.05    0.99
   1  13  -1    3.82    1.11
   1  13  -1    5.46    1.44
   0  13  -1    0.69    0.94
   0  13  -1    1.55    1.27
   0 -13   1    1.49    1.30
  -1  13  -1    4.94    1.56
  -1  13  -1    3.66    1.09
   1 -13   1    5.44    1.33
  -2  13  -1    5.99    1.10
  -2  13  -1    7.13    1.69
   2 -13   1    7.95    1.46
  -3  13  -1    0.06    1.20
  -3  13  -1    0.09    0.87
   3 -13   1   -0.11    1.19
  -4  13  -1    0.85    1.35
   4 -13   1    1.34    1.22
  -5  13  -1    1.75    1.27
   5 -13   1    2.42    1.23
  -6  13  -1    1.75    1.40
   6 -13   1    3.99    1.37
  -7  13  -1   -1.26    1.29
   7 -13   1    0.20    1.22
  -8  13  -1    1.65    1.37
   8 -13   1    0.27    1.30
  -9  13  -1    0.46    1.33
   9 -13   1   -0.24    1.27
 -10  13  -1    1.46    1.67
  10 -13   1    1.23    1.35
 -11  13  -1    2.83    1.42
  11 -13   1    0.12    1.50
 -12  13  -1    0.73    1.70
  12 -13   1    1.01    1.53
 -13  13  -1    0.54    1.67
  13 -13   1   -0.07    1.63
  14 -13   1    1.13    1.66
  15 -13   1    1.60    1.88
  16 -13   1    1.58    1.90
  11  12  -1    1.17    2.30
  11  12  -1    2.56    1.49
  10  12  -1    0.88    1.32
  10  12  -1    2.84    2.21
   9  12  -1    0.39    1.93
   9  12  -1   -1.42    1.31
   8  12  -1    1.51    1.87
   8  12  -1   -0.12    1.27
   7  12  -1   -0.34    1.21
   7  12  -1    2.23    1.79
   6  12  -1    2.78    1.81
   6  12  -1    1.38    1.20
   5  12  -1    0.54    1.14
   5  12  -1    1.20    1.53
   4  12  -1   -0.78    1.01
   4  12  -1    1.68    1.42
   3  12  -1   -0.15    1.01
   3  12  -1   -0.52    1.23
   2  12  -1    1.38    0.97
   2  12  -1   -0.41    1.40
   1  12  -1    1.27    1.40
   1  12  -1    1.01    0.91
   0  12  -1    0.62    1.30
   0  12  -1    0.23    0.91
   0 -12   1    0.24    1.16
  -1  12  -1    1.05    0.87
  -1  12  -1    1.08    1.33
   1 -12   1   -0.77    1.15
  -2  12  -1   -0.53    1.00
  -2  12  -1    0.58    0.82
   2 -12   1    0.20    1.07
  -3  12  -1    1.63    0.79
  -3  12  -1    1.14    1.22
   3 -12   1    1.00    1.09
  -4  12  -1    0.96    1.26
   4 -12   1    0.16    1.17
  -5  12  -1   -0.16    1.21
  -6  12  -1   11.75    1.82
   6 -12   1   15.76    2.01
  -7  12  -1    2.05    1.31
   7 -12   1    2.61    1.28
  -8  12  -1   -0.15    1.30
   8 -12   1    2.11    1.34
  -9  12  -1    0.92    1.32
 -10  12  -1    6.81    1.70
 -10  12  -1    3.90    1.34
 -11  12  -1   -0.18    1.39
 -11  12  -1    0.61    1.30
 -12  12  -1    1.82    1.32
 -12  12  -1    2.03    1.50
 -13  12  -1    0.17    1.36
 -14  12  -1    1.42    1.56
 -15  12  -1    1.87    1.58
  17 -12   1   -1.20    1.89
  11  11  -1   -2.66    2.11
  11  11  -1    1.26    1.50
  10  11  -1    0.74    1.28
  10  11  -1   -0.47    1.94
   9  11  -1   -2.19    1.75
   9  11  -1   -0.94    1.14
   8  11  -1    1.08    1.13
   8  11  -1    0.89    1.76
   7  11  -1    1.11    1.10
   7  11  -1    2.87    1.67
   6  11  -1    0.78    1.50
   6  11  -1   -0.68    0.99
   5  11  -1    2.51    1.06
   5  11  -1    4.29    1.53
   4  11  -1    1.10    1.29
   4  11  -1    1.42    1.08
   3  11  -1    5.89    1.65
   3  11  -1    4.26    1.14
   2  11  -1    0.40    0.89
   2  11  -1   -0.11    1.29
   1  11  -1    4.40    1.05
   1  11  -1    5.66    1.48
  -1 -11   1    6.66    1.07
   0  11  -1    0.58    1.18
   0  11  -1   -0.53    0.79
   0 -11   1    0.59    0.99
   0 -11   1    0.73    1.06
  -1  11  -1   -0.89    1.13
  -1  11  -1    0.49    0.75
   1 -11   1    0.01    1.00
  -2  11  -1   -0.03    0.66
  -2  11  -1   -0.45    1.03
   2 -11   1    0.46    0.92
  -3  11  -1    0.07    1.17
  -3  11  -1    0.60    0.64
   3 -11   1    0.59    0.94
  -4  11  -1    1.13    1.16
   4 -11   1    0.82    1.08
  -5  11  -1    2.67    1.29
   5 -11   1    3.88    1.25
  -6  11  -1    5.49    1.35
   6 -11   1    6.94    1.38
  -7  11  -1   -0.13    1.22
   7 -11   1    0.98    1.22
  -8  11  -1    2.36    1.22
  -8  11  -1    1.92    1.32
  -9  11  -1    6.60    1.46
  -9  11  -1    6.72    1.45
 -10  11  -1    1.13    1.24
 -10  11  -1    2.98    1.29
 -11  11  -1    1.93    1.37
 -11  11  -1    2.56    1.46
 -12  11  -1    0.69    1.34
 -12  11  -1    0.13    1.56
 -13  11  -1    1.68    1.57
 -14  11  -1   -1.89    1.32
 -15  11  -1   -0.24    1.44
 -16  11  -1    0.49    1.68
 -17  11  -1    0.16    1.80
  12  10  -1   -0.77    2.16
  11  10  -1    1.86    2.04
  11  10  -1    0.04    1.14
  10  10  -1    0.85    1.18
  10  10  -1    0.50    1.84
   9  10  -1    2.41    1.70
   9  10  -1    0.68    1.11
   8  10  -1    0.89    1.63
   8  10  -1    0.55    1.10
   7  10  -1   -2.44    1.36
   7  10  -1    1.20    1.10
   6  10  -1   -0.36    1.54
   6  10  -1    1.55    0.94
   5  10  -1    0.60    0.94
   5  10  -1   -0.13    1.27
   4  10  -1    3.00    0.94
   4  10  -1    4.66    1.56
   3  10  -1    0.45    0.83
   3  10  -1   -0.91    1.24
   2  10  -1    8.42    1.57
   2  10  -1    6.34    1.03
   1  10  -1    2.88    0.88
  -1 -10   1    4.44    0.98
   0  10  -1    0.61    0.69
   0 -10   1    0.93    0.87
   0 -10   1    0.33    0.86
  -1  10  -1    5.45    0.84
   1 -10   1    7.08    1.07
  -2  10  -1    4.81    0.75
   2 -10   1    6.08    1.01
  -3  10  -1    0.98    0.59
   3 -10   1    0.94    0.88
  -4  10  -1   10.16    1.57
   4 -10   1    9.58    1.48
  -5  10  -1    9.77    1.69
   5 -10   1   12.17    1.62
  -6  10  -1   -0.97    1.05
  -6  10  -1    1.44    0.86
  -7  10  -1   -0.17    1.18
  -7  10  -1    1.79    1.04
  -8  10  -1    1.62    1.09
  -8  10  -1    2.47    1.28
  -9  10  -1    2.68    1.11
  -9  10  -1    3.34    1.28
 -10  10  -1   -0.64    0.96
 -10  10  -1    1.13    1.16
 -11  10  -1    3.16    1.32
 -11  10  -1    3.92    1.45
 -12  10  -1   -0.62    1.19
 -13  10  -1   -1.11    1.29
 -14  10  -1   -1.13    1.44
 -15  10  -1   -0.44    1.52
 -16  10  -1   -0.45    1.66
  13   9  -1    0.07    2.23
  12   9  -1    0.71    2.02
  12   9  -1   -0.01    1.28
  11   9  -1    1.50    1.90
  11   9  -1    0.64    1.15
  10   9  -1   -1.61    1.68
  10   9  -1    0.42    1.06
   9   9  -1   -0.22    1.61
   9   9  -1    0.94    1.05
   8   9  -1    1.75    1.57
   8   9  -1    1.80    1.01
   7   9  -1    0.33    0.94
   6   9  -1    0.75    0.95
   6   9  -1   -1.16    1.27
   5   9  -1    2.56    0.97
   4   9  -1    4.90    1.35
   4   9  -1    1.80    0.91
   3   9  -1   13.55    1.69
   3   9  -1   10.67    1.61
   2   9  -1    6.90    1.18
   2   9  -1    5.20    0.89
   1   9  -1    1.78    0.72
   1   9  -1    4.34    0.85
  -1  -9   1    2.86    0.84
  -1  -9   1    2.29    0.72
   0   9  -1    0.45    0.61
   0   9  -1    0.40    0.63
   0  -9   1    0.93    0.73
   0  -9   1    1.03    0.76
  -1   9  -1    7.37    1.01
  -1   9  -1    4.39    0.72
   1  -9   1    7.00    0.95
   1  -9   1    6.03    0.87
  -2   9  -1   -0.09    0.57
  -2   9  -1    0.42    0.50
   2  -9   1    0.11    0.68
  -3   9  -1    2.67    0.53
  -3   9  -1    3.49    0.89
   3  -9   1    3.26    0.84
  -4   9  -1    7.44    1.20
   4  -9   1    7.11    1.06
  -5   9  -1   25.78    1.75
  -5   9  -1   26.45    1.58
  -6   9  -1    0.59    0.70
  -7   9  -1    7.53    1.31
  -8   9  -1    0.70    0.94
  -8   9  -1   -0.62    1.07
  -9   9  -1    1.55    1.05
  -9   9  -1    0.73    1.13
 -10   9  -1    4.16    1.26
 -10   9  -1    5.63    1.41
 -11   9  -1    0.63    1.11
 -12   9  -1    0.91    1.20
 -13   9  -1    3.12    1.42
 -14   9  -1    0.38    1.34
 -15   9  -1   -0.06    1.57
 -16   9  -1   -0.31    1.80
 -17   9  -1   -0.50    1.87
 -18   9  -1    3.06    1.95
  14   8  -1    0.82    1.49
  14   8  -1   -0.05    2.29
  13   8  -1   -1.30    2.07
  13   8  -1   -0.64    1.22
  12   8  -1    3.86    1.99
  12   8  -1    3.65    1.33
  11   8  -1    1.39    1.12
  11   8  -1   -0.86    1.72
  10   8  -1    3.29    1.20
  10   8  -1    3.67    1.64
   9   8  -1    1.10    1.11
   9   8  -1    0.77    1.49
   8   8  -1    2.80    1.52
   8   8  -1    0.09    0.80
   7   8  -1    1.77    0.95
   6   8  -1    2.02    0.95
   6   8  -1    4.59    1.50
   5   8  -1    5.79    1.31
   5   8  -1    2.28    0.95
   4   8  -1    2.85    1.24
   4   8  -1    1.90    0.67
   3   8  -1    8.98    1.34
   3   8  -1    8.50    1.35
   2   8  -1    2.58    0.78
   2   8  -1    0.09    0.56
   1   8  -1    0.19    0.60
   1   8  -1    0.09    0.51
  -1  -8   1    0.34    0.65
  -1  -8   1    0.38    0.56
   0   8  -1   -0.27    0.51
   0  -8   1   -0.16    0.61
   0  -8   1   -0.18    0.63
  -1   8  -1    0.29    0.48
  -1   8  -1   -0.19    0.55
   1  -8   1    0.15    0.61
   1  -8   1   -0.04    0.67
  -2   8  -1    0.19    0.42
  -2   8  -1   -0.15    0.60
   2  -8   1   -0.11    0.63
  -3   8  -1   18.58    1.34
  -3   8  -1   18.34    1.11
   3  -8   1   14.61    1.23
  -4   8  -1   18.64    1.21
  -4   8  -1   20.44    1.43
  -5   8  -1   17.46    1.36
  -5   8  -1   17.92    1.22
  -6   8  -1    1.54    0.62
  -6   8  -1    0.72    0.69
  -7   8  -1    8.03    1.09
  -7   8  -1    7.45    1.03
  -8   8  -1   -0.48    0.81
  -9   8  -1    3.61    1.08
  -9   8  -1    2.67    1.03
 -10   8  -1   -0.70    0.97
 -10   8  -1   -1.18    1.10
 -11   8  -1   -1.56    0.99
 -12   8  -1   -0.89    1.05
 -13   8  -1   16.58    2.21
 -14   8  -1    0.45    1.38
 -15   8  -1    2.64    1.59
 -16   8  -1   -0.52    1.55
 -17   8  -1    2.06    1.88
  15   7  -1    2.26    1.63
  15   7  -1    0.68    2.34
  14   7  -1   -2.43    2.03
  14   7  -1    0.74    1.41
  13   7  -1    1.52    1.30
  13   7  -1    0.32    1.89
  12   7  -1   -1.56    1.71
  12   7  -1    0.95    1.04
  11   7  -1    1.46    1.12
  11   7  -1   -2.35    1.54
  10   7  -1    2.93    1.06
  10   7  -1    1.22    1.58
   9   7  -1    1.47    0.87
   9   7  -1    2.25    1.56
   8   7  -1   -1.05    1.30
   8   7  -1   -0.23    0.89
   7   7  -1    1.40    0.87
   7   7  -1    0.12    1.24
   6   7  -1   -0.29    0.70
   6   7  -1   -1.35    1.14
   5   7  -1    1.45    1.12
   4   7  -1    1.51    0.56
   4   7  -1    0.29    0.90
   3   7  -1    1.61    0.53
   3   7  -1    1.95    0.78
   2   7  -1    8.27    1.03
   2   7  -1   10.30    1.11
   1   7  -1    0.59    0.53
   1   7  -1    1.16    0.73
  -1  -7   1    2.09    0.52
  -1  -7   1    3.55    0.64
   0   7  -1   27.28    1.59
   0   7  -1   29.61    1.47
   0  -7   1   26.47    1.25
   0  -7   1   26.82    1.32
  -1   7  -1    7.84    0.99
  -1   7  -1    8.28    1.00
   1  -7   1    9.15    0.90
   1  -7   1    8.31    0.91
  -2   7  -1   21.47    1.15
  -2   7  -1   20.02    1.33
   2  -7   1   20.66    1.22
   2  -7   1   20.84    1.18
  -3   7  -1    4.18    0.79
   3  -7   1    4.02    0.69
  -4   7  -1    0.04    0.57
  -4   7  -1   -0.19    0.46
  -5   7  -1    4.31    0.77
  -5   7  -1    5.54    0.78
  -6   7  -1    3.43    0.71
  -6   7  -1    3.24    0.75
  -7   7  -1    3.44    0.70
  -7   7  -1    2.89    0.79
  -8   7  -1    0.64    0.63
  -9   7  -1   19.19    1.61
  -9   7  -1   16.81    1.65
 -10   7  -1   17.76    1.73
 -11   7  -1    0.58    1.01
 -12   7  -1    3.08    1.29
 -13   7  -1   -0.07    1.07
 -14   7  -1    0.95    1.34
  14  -7   1    0.62    1.01
 -15   7  -1    2.62    1.48
  15  -7   1    0.79    1.20
 -16   7  -1    0.86    1.54
  16  -7   1    1.60    1.44
 -17   7  -1   -1.22    1.73
 -18   7  -1   -0.28    2.04
  15   6  -1    0.02    1.69
  15   6  -1   -1.29    2.12
  14   6  -1    3.09    1.99
  14   6  -1    2.19    1.30
  13   6  -1    1.51    1.16
  13   6  -1    2.10    1.80
 -13  -6   1    0.81    1.70
  12   6  -1    1.49    1.06
  12   6  -1    2.46    1.71
 -12  -6   1    2.18    1.44
  11   6  -1    0.58    1.04
  11   6  -1    1.31    1.50
 -11  -6   1    0.44    1.20
  10   6  -1    0.36    0.85
 -10  -6   1    0.06    1.07
   9   6  -1    3.60    1.06
   9   6  -1    3.26    1.55
   8   6  -1    0.61    0.88
   8   6  -1   -0.26    1.30
   7   6  -1    3.43    0.93
   7   6  -1    4.38    1.32
  -7  -6   1    5.62    0.82
   6   6  -1    2.39    1.14
   5   6  -1    0.58    0.91
   5   6  -1    0.78    0.52
   4   6  -1   12.62    1.43
   3   6  -1   18.96    1.29
   3   6  -1   14.62    1.31
   2   6  -1   22.31    1.30
   2   6  -1   24.41    1.37
   1   6  -1   29.59    1.44
   1   6  -1   28.05    1.35
  -1  -6   1   24.37    1.18
   0   6  -1   11.83    1.00
   0   6  -1   10.73    0.99
   0  -6   1   11.35    0.85
   0  -6   1   10.52    0.77
  -1   6  -1    2.91    0.64
  -1   6  -1    1.80    0.41
   1  -6   1    2.67    0.55
   1  -6   1    3.65    0.57
  -2   6  -1    9.68    1.01
  -2   6  -1    9.97    0.78
   2  -6   1   11.01    0.85
   2  -6   1   10.20    0.86
  -3   6  -1    2.47    0.53
  -3   6  -1    2.67    0.64
   3  -6   1    2.11    0.53
  -4   6  -1    1.09    0.49
  -4   6  -1    0.80    0.56
  -5   6  -1    0.98    0.58
  -5   6  -1    0.99    0.50
  -6   6  -1    7.62    0.97
  -6   6  -1    8.48    0.99
  -7   6  -1    0.82    0.59
  -7   6  -1    0.87    0.56
  -8   6  -1    4.62    0.83
  -8   6  -1    5.58    0.95
  -9   6  -1   18.16    1.75
 -10   6  -1    1.00    1.00
 -11   6  -1    1.24    1.05
  11  -6   1    0.23    0.70
 -12   6  -1   10.10    1.51
  12  -6   1   11.14    1.83
 -13   6  -1    0.44    1.12
  13  -6   1   -0.51    0.91
 -14   6  -1    2.90    1.41
  14  -6   1    4.61    1.11
 -15   6  -1   -0.59    1.46
  15  -6   1   -0.26    1.23
 -16   6  -1    0.77    1.58
  16  -6   1    2.43    1.21
 -17   6  -1   -1.61    1.71
  17  -6   1    2.00    1.48
 -18   6  -1    1.83    1.97
  16   5  -1    2.31    2.46
  15   5  -1    2.35    2.17
  15   5  -1   -1.20    1.35
  14   5  -1    0.65    1.38
  14   5  -1    3.49    1.92
 -14  -5   1   -0.20    1.66
  13   5  -1    0.09    1.22
  13   5  -1    1.15    1.75
 -13  -5   1    1.25    1.55
  12   5  -1    1.94    1.61
  12   5  -1   -0.06    1.05
 -12  -5   1    0.03    1.37
  11   5  -1    0.86    0.88
 -11  -5   1    0.14    1.22
  10   5  -1    0.36    0.93
  10   5  -1    1.45    1.49
 -10  -5   1    0.99    1.03
   9   5  -1    6.50    1.55
  -9  -5   1    5.74    1.04
   8   5  -1    0.49    1.05
   8   5  -1    0.08    1.34
   8   5  -1   -0.37    0.80
  -8  -5   1   -0.01    0.76
   7   5  -1    4.60    1.43
   7   5  -1    4.65    0.96
   7   5  -1    3.95    1.00
  -7  -5   1    5.03    0.79
   6   5  -1    6.66    0.83
   6   5  -1    6.30    1.22
   6   5  -1    4.94    0.90
  -6  -5   1    6.16    0.84
   5   5  -1   39.51    1.92
   5   5  -1   37.12    2.05
   4   5  -1   32.67    1.60
   3   5  -1    2.00    0.66
   3   5  -1   -0.01    0.44
  -3  -5   1    1.11    0.70
   2   5  -1   20.84    1.10
   2   5  -1   18.10    1.14
  -2  -5   1   13.96    1.06
   1   5  -1    6.37    0.63
   1   5  -1    8.74    0.88
   1   5  -1    8.13    0.84
  -1  -5   1    6.78    0.70
  -1  -5   1    7.44    0.69
   0   5  -1    1.09    0.53
   0   5  -1    0.36    0.33
   0  -5   1    0.54    0.37
   0  -5   1    1.31    0.41
   0  -5   1    0.46    0.42
  -1   5  -1   47.10    1.86
  -1   5  -1   43.89    1.69
   1  -5   1   48.49    1.63
   1  -5   1   45.06    1.76
   1  -5   1   48.73    1.66
  -2   5  -1   33.46    1.52
  -2   5  -1   33.35    1.22
   2  -5   1   33.34    1.35
   2  -5   1   34.70    1.31
   2  -5   1   31.36    1.42
  -3   5  -1    0.70    0.52
  -3   5  -1    0.00    0.39
   3  -5   1    1.12    0.49
   3  -5   1    0.86    0.40
  -4   5  -1   22.94    1.16
  -4   5  -1   20.99    1.23
  -5   5  -1   22.28    1.23
  -5   5  -1   22.92    1.27
  -6   5  -1   17.79    1.13
  -6   5  -1   17.08    1.23
  -7   5  -1    1.28    0.57
  -7   5  -1    0.85    0.61
  -8   5  -1    8.28    1.04
  -9   5  -1    1.61    0.71
 -10   5  -1    0.16    0.89
 -11   5  -1    2.19    1.20
 -12   5  -1    1.19    1.12
  12  -5   1    1.06    0.88
 -13   5  -1    1.18    1.25
  13  -5   1   -0.09    0.94
 -14   5  -1    4.22    1.40
  14  -5   1    4.10    1.18
 -15   5  -1    0.06    1.45
  15  -5   1    0.54    1.09
 -16   5  -1    1.38    1.61
  16  -5   1   -0.71    1.25
 -17   5  -1   -0.58    1.86
  17  -5   1    1.15    1.45
 -18   5  -1   -0.44    1.90
  18  -5   1    2.09    1.64
  16   4  -1    1.86    1.49
  16   4  -1    0.78    2.16
  15   4  -1    1.28    1.94
  15   4  -1   -0.04    1.28
 -15  -4   1    0.26    1.69
  14   4  -1   -0.57    1.15
  14   4  -1   -0.68    1.76
 -14  -4   1    0.39    1.52
  13   4  -1    1.02    1.14
  13   4  -1   -0.35    1.52
  12   4  -1    4.73    1.49
  12   4  -1    3.96    1.12
 -12  -4   1    4.87    1.37
  11   4  -1    9.26    1.60
  11   4  -1    5.72    1.22
 -11  -4   1    9.23    1.39
  10   4  -1    5.42    1.38
 -10  -4   1    6.28    1.18
   9   4  -1   25.66    2.28
   9   4  -1   23.71    1.99
  -9  -4   1   25.20    1.68
   8   4  -1    1.55    0.85
   8   4  -1    2.68    1.04
  -8  -4   1    3.54    0.83
   7   4  -1    2.19    0.82
   7   4  -1    1.22    0.61
   7   4  -1    2.54    1.01
  -7  -4   1    2.50    0.70
   6   4  -1    4.01    0.73
   6   4  -1    3.85    0.76
   6   4  -1    4.58    0.91
  -6  -4   1    5.09    0.68
   4   4  -1    3.71    0.75
   4   4  -1    2.58    0.49
  -4  -4   1    2.58    0.48
  -4  -4   1    3.47    0.67
   3   4  -1   14.98    1.19
   3   4  -1   14.80    0.76
   3   4  -1   15.67    0.97
  -3  -4   1   15.61    0.77
  -3  -4   1   15.62    1.01
   2   4  -1    6.23    0.90
   2   4  -1    6.54    0.85
   2   4  -1    6.34    0.57
  -2  -4   1    5.17    0.55
  -2  -4   1    5.54    0.70
   1   4  -1    2.78    0.40
   1   4  -1    2.05    0.42
   1   4  -1    2.26    0.56
  -1  -4   1    2.83    0.44
  -1  -4   1    2.60    0.51
   0   4  -1   11.91    0.68
   0   4  -1   12.52    0.88
   0   4  -1   10.48    0.94
   0  -4   1   12.15    0.74
   0  -4   1   10.94    0.88
  -1   4  -1  109.58    3.62
  -1   4  -1  120.90    3.77
   1  -4   1  129.10    3.57
   1  -4   1  114.59    3.72
   1  -4   1  116.67    3.60
   1  -4   1  126.19    3.54
  -2   4  -1   12.56    0.97
  -2   4  -1   15.53    0.84
   2  -4   1   15.11    0.80
   2  -4   1   13.67    0.96
  -3   4  -1    7.59    0.74
  -3   4  -1    8.37    0.86
   3  -4   1    7.69    0.68
   3  -4   1    8.96    0.79
  -4   4  -1    7.17    0.83
  -4   4  -1    9.06    0.88
   4  -4   1   11.06    0.78
   4  -4   1   10.01    0.82
  -5   4  -1    6.64    0.82
  -5   4  -1    6.59    0.79
  -6   4  -1   13.83    1.07
  -6   4  -1   13.39    1.03
  -7   4  -1   11.50    1.04
  -8   4  -1   11.92    1.11
  -9   4  -1    7.60    1.05
 -10   4  -1    5.08    1.04
 -11   4  -1    2.51    1.02
 -12   4  -1    6.71    1.31
  12  -4   1    6.67    1.11
 -13   4  -1    1.64    1.29
  13  -4   1   -0.87    0.95
 -14   4  -1    1.28    1.32
  14  -4   1    1.66    1.04
 -15   4  -1   -0.99    1.30
  15  -4   1    0.60    1.14
 -16   4  -1    3.12    1.70
  16  -4   1    0.37    1.32
 -17   4  -1   -0.49    1.85
  17  -4   1    0.04    1.47
 -18   4  -1   -1.09    2.00
  18  -4   1    3.42    1.71
  17   3  -1    2.43    1.61
 -17  -3   1    2.08    2.29
  16   3  -1    0.66    2.05
  16   3  -1    1.84    1.56
 -16  -3   1    1.57    1.90
  15   3  -1   -1.36    1.66
  15   3  -1    0.11    1.23
 -15  -3   1    1.60    1.61
  14   3  -1   -1.38    1.52
  14   3  -1   -0.47    1.19
 -14  -3   1   -0.48    1.36
  13   3  -1    2.21    1.15
  13   3  -1    0.24    1.46
 -13  -3   1    2.54    1.32
  12   3  -1    2.20    1.02
  12   3  -1    2.10    1.45
 -12  -3   1    0.72    1.29
  11   3  -1    0.12    0.91
  11   3  -1    2.08    1.31
 -11  -3   1    0.45    1.08
  10   3  -1    8.45    1.36
 -10  -3   1    7.40    1.23
   9   3  -1   28.42    2.35
   9   3  -1   29.47    1.91
  -9  -3   1   28.49    1.72
   8   3  -1    0.53    0.83
   8   3  -1   -0.62    0.50
  -8  -3   1    0.69    0.71
   7   3  -1   15.50    1.25
   7   3  -1   14.28    1.31
   7   3  -1   12.69    1.40
  -7  -3   1   15.40    1.11
   6   3  -1    0.38    0.59
   6   3  -1    0.09    0.61
  -6  -3   1   -0.32    0.50
   5   3  -1    8.51    0.82
   5   3  -1    8.84    0.90
  -5  -3   1    8.04    0.74
   4   3  -1    2.78    0.56
   4   3  -1    2.46    0.45
  -4  -3   1    2.72    0.46
  -4  -3   1    2.82    0.55
   3   3  -1    2.36    0.39
   3   3  -1    1.34    0.49
  -3  -3   1    2.93    0.49
  -3  -3   1    2.50    0.39
   2   3  -1    2.44    0.39
  -2  -3   1    1.83    0.39
  -2  -3   1    2.49    0.48
   1   3  -1  701.26   19.20
   1   3  -1  705.03   19.19
   1   3  -1  651.83   18.52
  -1  -3   1  661.75   19.18
  -1  -3   1  641.68   18.51
   0   3  -1   39.87    1.51
   0   3  -1   43.92    1.47
   0   3  -1   42.46    1.35
   0  -3   1   38.12    1.47
   0  -3   1   43.08    1.38
   0  -3   1   40.79    1.42
  -1   3  -1   23.19    0.85
  -1   3  -1   21.17    1.02
   1  -3   1   21.83    0.84
   1  -3   1   22.23    0.93
   1  -3   1   21.16    0.99
   1  -3   1   24.08    0.90
  -2   3  -1   66.69    2.25
  -2   3  -1   65.31    2.15
   2  -3   1   69.31    2.15
   2  -3   1   67.85    2.25
  -3   3  -1    0.33    0.42
  -3   3  -1   -0.13    0.47
   3  -3   1    0.37    0.48
   3  -3   1    0.37    0.41
  -4   3  -1    6.42    0.74
  -4   3  -1    5.59    0.74
   4  -3   1    5.89    0.66
   4  -3   1    6.73    0.74
  -5   3  -1   13.28    0.96
   5  -3   1   14.00    0.82
  -6   3  -1   27.06    1.34
  -7   3  -1    0.92    0.56
  -8   3  -1    8.02    0.93
  -9   3  -1    2.34    0.80
 -11   3  -1    0.18    0.98
 -12   3  -1    2.27    1.19
 -13   3  -1    1.02    1.12
  13  -3   1    0.04    0.91
 -14   3  -1   -1.22    1.14
  14  -3   1    0.85    1.05
 -15   3  -1    1.40    1.48
  15  -3   1    2.20    1.22
 -16   3  -1    2.83    1.82
  16  -3   1    3.59    1.43
 -17   3  -1   -0.17    1.77
  17  -3   1   -0.48    1.42
 -18   3  -1    1.94    2.04
  18  -3   1    6.41    2.70
  18  -3   1   -0.04    1.73
  17   2  -1   -1.73    2.12
  17   2  -1    1.39    1.51
 -17  -2   1   -0.37    2.04
  16   2  -1    1.02    2.04
  16   2  -1    0.65    1.44
 -16  -2   1    3.99    1.84
  15   2  -1    0.41    1.29
  15   2  -1   -3.53    1.74
 -15  -2   1   -0.25    1.58
  14   2  -1   -1.75    1.54
  14   2  -1    1.10    1.18
 -14  -2   1    1.20    1.42
  13   2  -1    1.71    1.05
 -13  -2   1    2.36    1.26
  12   2  -1   -0.36    0.88
  12   2  -1   -0.17    1.31
  11   2  -1    1.26    1.22
  11   2  -1   -0.40    0.86
 -11  -2   1    0.19    1.04
  10   2  -1    0.13    1.05
  10   2  -1   -0.93    0.77
 -10  -2   1    0.42    0.93
   9   2  -1    5.70    1.06
   9   2  -1    2.76    0.70
  -9  -2   1    4.49    0.97
   8   2  -1    0.15    0.48
   8   2  -1    0.77    0.80
  -8  -2   1   -0.21    0.69
   7   2  -1   11.20    1.16
   7   2  -1   13.84    1.15
  -7  -2   1   11.81    1.01
   6   2  -1    4.47    0.69
   6   2  -1    3.80    0.66
  -6  -2   1    4.25    0.62
   5   2  -1    2.52    0.54
   5   2  -1    2.24    0.51
  -5  -2   1    2.62    0.50
   4   2  -1   51.98    1.81
   4   2  -1   54.51    1.74
  -4  -2   1   52.89    1.75
   3   2  -1   17.15    0.78
   3   2  -1   18.65    0.89
  -3  -2   1   16.45    0.85
  -3  -2   1   17.34    0.80
   2   2  -1    3.04    0.45
   2   2  -1    2.26    0.32
  -2  -2   1    2.56    0.36
  -2  -2   1    3.59    0.54
   1   2  -1    2.69    0.45
   1   2  -1    2.18    0.32
  -1  -2   1    1.37    0.27
  -1  -2   1    2.22    0.35
  -1  -2   1    2.40    0.33
   0  -2   1    0.64    0.16
   1  -2   1    3.16    0.40
   1  -2   1    2.56    0.36
   1  -2   1    2.75    0.25
  -2   2  -1    0.80    0.35
   2  -2   1    0.86    0.31
   2  -2   1    0.20    0.31
  -3   2  -1   13.52    0.84
  -3   2  -1   14.02    0.90
   3  -2   1   13.11    0.81
   3  -2   1   12.37    0.78
  -4   2  -1    6.63    0.73
   4  -2   1    7.66    0.66
   4  -2   1    7.68    0.70
  -5   2  -1   52.09    1.88
   5  -2   1   50.66    1.79
   5  -2   1   49.97    1.84
  -6   2  -1   43.46    1.72
   6  -2   1   41.35    1.72
  -7   2  -1    1.04    0.54
  -8   2  -1    2.25    0.68
  -9   2  -1   10.58    1.21
 -10   2  -1    0.29    0.84
 -11   2  -1    0.09    0.91
 -12   2  -1   -0.39    1.06
 -13   2  -1    3.48    1.27
  13  -2   1    2.09    0.97
 -14   2  -1    3.75    1.43
  14  -2   1    2.10    1.12
 -15   2  -1   -0.56    1.43
  15  -2   1    2.56    1.27
 -16   2  -1    3.49    1.72
  16  -2   1    1.52    1.40
 -17   2  -1   -0.46    1.82
  17  -2   1   -0.08    1.48
  17  -2   1   -0.21    2.19
 -18   2  -1    0.64    2.07
  18  -2   1    1.48    1.73
  18  -2   1    2.40    2.53
  17   1  -1    3.86    1.59
 -17  -1   1    1.34    2.02
  16   1  -1    1.77    1.90
  16   1  -1    0.44    1.41
 -16  -1   1    0.45    1.77
  15   1  -1    0.69    1.18
  15   1  -1   -0.26    1.72
 -15  -1   1   -0.55    1.42
  14   1  -1    1.79    1.18
  14   1  -1    1.51    1.53
 -14  -1   1    2.98    1.43
  13   1  -1    1.14    1.02
 -13  -1   1    2.07    1.29
  12   1  -1    6.03    1.12
  12   1  -1    8.55    1.53
 -12  -1   1    8.24    1.36
  11   1  -1    3.07    0.96
  11   1  -1    5.47    1.35
 -11  -1   1    4.60    1.16
  10   1  -1   -0.58    1.00
 -10  -1   1    1.66    0.95
   9   1  -1    0.55    0.62
   9   1  -1    0.73    0.93
  -9  -1   1    1.70    0.82
   8   1  -1   17.71    1.34
   8   1  -1   14.09    1.36
  -8  -1   1   14.97    1.24
   7   1  -1    1.19    0.69
  -7  -1   1    0.59    0.58
   6   1  -1    6.25    0.90
   6   1  -1    7.03    0.83
  -6  -1   1    5.66    0.77
   5   1  -1   17.51    0.98
   5   1  -1   17.73    0.91
  -5  -1   1   16.94    0.93
   4   1  -1   48.29    1.65
   4   1  -1   51.44    1.72
  -4  -1   1   49.88    1.68
   3   1  -1   -0.48    0.34
   3   1  -1   -0.14    0.35
   3   1  -1   -0.02    0.28
  -3  -1   1   -0.40    0.32
   2   1  -1   45.31    1.65
   2   1  -1   49.22    1.49
   2   1  -1   50.06    1.51
  -2  -1   1   47.99    1.50
  -2  -1   1   52.25    1.52
  -2   1  -1   36.76    1.21
   2  -1   1   35.44    1.20
  -3   1  -1    0.52    0.35
   3  -1   1    0.87    0.33
  -4   1  -1   12.46    0.80
   4  -1   1   10.41    0.68
  -5   1  -1   24.00    1.14
   5  -1   1   24.05    1.06
  -6   1  -1    6.22    0.79
  -7   1  -1   30.33    1.47
  -8   1  -1    8.51    1.05
  -9   1  -1    0.70    0.73
 -10   1  -1    0.82    0.87
 -12   1  -1    0.09    1.01
 -13   1  -1    2.04    1.24
  13  -1   1   -0.27    1.00
 -14   1  -1   14.59    1.87
  14  -1   1    9.48    1.43
 -15   1  -1    2.81    1.61
  15  -1   1    3.48    1.34
  15  -1   1    5.95    1.89
 -16   1  -1   -0.84    1.66
  16  -1   1   -1.26    1.89
  16  -1   1    1.22    1.38
 -17   1  -1   -2.24    1.88
  17  -1   1   -1.06    1.46
  17  -1   1    5.60    2.28
 -18   1  -1    2.31    2.20
  18   0  -1    2.53    1.70
  18   0  -1    1.37    2.62
 -18   0   1   -1.03    2.16
  17   0  -1    0.15    2.11
  17   0  -1    3.03    1.52
 -17   0   1    0.45    1.88
  16   0  -1   -0.59    1.72
  16   0  -1   -0.77    1.23
 -16   0   1   -1.03    1.59
  15   0  -1    2.00    1.28
  15   0  -1    4.82    1.67
 -15   0   1    0.43    1.56
  14   0  -1    2.41    1.10
  14   0  -1    2.84    1.52
 -14   0   1    3.38    1.42
  13   0  -1    0.58    1.43
  13   0  -1    0.45    0.96
 -13   0   1    0.76    1.17
  12   0  -1   13.97    1.81
  12   0  -1   13.90    2.21
 -12   0   1   11.89    1.70
  11   0  -1    0.47    0.87
 -11   0   1    0.58    1.00
  10   0  -1    2.55    0.79
   9   0  -1    0.63    0.55
  -9   0   1    0.89    0.75
   8   0  -1    7.70    1.22
  -8   0   1    9.81    1.05
   7   0  -1    9.35    1.01
  -7   0   1    8.72    0.86
   6   0  -1    5.83    0.71
  -6   0   1    5.92    0.69
   5   0  -1    4.99    0.58
  -5   0   1    3.80    0.56
   4   0  -1    3.73    0.48
   4   0  -1    4.84    0.55
  -4   0   1    4.04    0.62
   3   0  -1   92.96    2.75
   3   0  -1   90.92    2.87
  -3   0   1   91.51    2.77
   2   0  -1   58.12    1.79
  -2   0  -1    4.42    0.39
   2   0   1    4.18    0.36
  -3   0  -1   56.26    1.81
   3   0   1   56.10    1.78
  -4   0  -1   16.72    0.88
   4   0   1   17.32    0.81
  -5   0  -1   11.53    0.82
   5   0   1   12.15    0.78
  -6   0  -1   14.00    0.98
   6   0   1   13.93    0.97
  -7   0  -1    2.20    0.67
  -8   0  -1    8.95    1.12
  -9   0  -1   -0.04    0.74
 -10   0  -1    7.89    1.17
 -11   0  -1   -0.30    1.02
 -12   0  -1    1.61    1.14
  12   0   1    0.75    1.36
 -13   0  -1    3.95    1.40
  13   0   1    3.77    1.18
  13   0   1    5.90    1.62
 -14   0  -1   -0.36    1.30
  14   0   1   -0.41    1.02
  14   0   1    0.60    1.57
 -15   0  -1    1.58    1.54
  15   0   1    1.25    1.26
  15   0   1    4.29    1.79
 -16   0  -1   -0.32    1.77
  16   0   1    1.01    2.03
  16   0   1    2.13    1.42
 -17   0  -1    1.10    2.07
  17   0   1   -1.31    2.24
  17   0   1   -1.10    1.56
  18  -1  -1    1.68    1.65
  18  -1  -1    0.52    2.42
 -18   1   1   -0.33    2.17
  17  -1  -1    4.59    2.06
  17  -1  -1    1.70    1.46
 -17   1   1    1.51    1.91
  16  -1  -1    0.45    1.22
  16  -1  -1    1.52    1.83
 -16   1   1   -0.51    1.55
  15  -1  -1    7.77    1.82
  15  -1  -1    2.77    1.23
 -15   1   1    5.19    1.67
  14  -1  -1   -0.72    1.02
 -14   1   1    2.05    1.28
  13  -1  -1    5.31    1.09
 -13   1   1    6.02    1.41
  12  -1  -1    4.42    1.01
 -12   1   1    4.30    1.15
  11  -1  -1    0.20    0.81
  10  -1  -1    0.40    0.66
 -10   1   1    0.64    0.81
   9  -1  -1   33.57    1.89
  -9   1   1   32.65    1.70
   8  -1  -1   17.12    1.34
  -8   1   1   17.05    1.16
   7  -1  -1    0.29    0.41
   7  -1  -1   -0.46    0.58
  -7   1   1    0.68    0.48
   6  -1  -1   45.01    1.80
   6  -1  -1   52.06    1.91
   6  -1  -1   52.49    1.86
  -6   1   1   47.33    1.83
   5  -1  -1   -0.45    0.28
   5  -1  -1    0.45    0.34
   5  -1  -1    0.09    0.36
  -5   1   1   -0.14    0.38
   4  -1  -1    6.35    0.56
   4  -1  -1    5.00    0.69
   4  -1  -1    5.76    0.64
  -4   1   1    5.68    0.69
   3  -1  -1   36.03    1.22
   3  -1  -1   35.98    1.29
   3  -1  -1   36.81    1.26
  -3   1   1   36.12    1.32
  -3   1   1   35.87    1.24
   2  -1  -1   24.32    0.81
   2  -1  -1   22.81    0.87
   2  -1  -1   23.82    0.82
  -2  -1  -1    9.22    0.45
   2   1   1    9.29    0.69
   2   1   1    8.53    0.43
  -3  -1  -1   12.64    0.66
   3   1   1   11.36    0.96
   3   1   1   13.22    0.62
  -4  -1  -1   26.77    1.06
   4   1   1   24.53    1.23
   4   1   1   27.03    1.04
  -5  -1  -1   13.93    0.87
   5   1   1   12.93    0.84
  -6  -1  -1    2.46    0.60
   6   1   1    2.45    0.60
  -7  -1  -1    1.13    0.64
   7   1   1    1.61    0.78
  -8  -1  -1    5.92    0.89
   8   1   1    8.04    1.12
  -9  -1  -1   14.60    1.45
   9   1   1   15.73    1.77
 -10  -1  -1   14.08    1.61
  10   1   1   13.54    1.92
 -11  -1  -1    0.99    1.07
  11   1   1    0.82    1.38
 -12  -1  -1    1.16    1.10
  12   1   1    2.00    1.31
 -13  -1  -1    1.49    1.25
  13   1   1    0.65    1.00
  13   1   1    1.35    1.42
 -14  -1  -1   -0.96    1.33
  14   1   1    0.47    1.58
  14   1   1    0.04    1.12
 -15  -1  -1    0.87    1.57
  15   1   1    0.44    1.86
  15   1   1    0.72    1.24
 -16  -1  -1    3.77    1.86
  16   1   1    4.13    2.20
  16   1   1    3.08    1.52
 -17  -1  -1    3.17    2.08
  17   1   1   -0.32    1.63
  17   1   1   -2.95    2.39
  18  -2  -1   -1.00    1.63
  18  -2  -1    2.17    2.39
 -18   2   1   -2.08    1.98
  17  -2  -1    4.14    2.05
  17  -2  -1    2.51    1.44
 -17   2   1    2.45    1.80
  16  -2  -1    2.69    1.29
 -16   2   1   -0.33    1.62
  15  -2  -1    1.02    1.11
 -15   2   1   -0.17    1.44
  14  -2  -1   -0.54    0.98
 -14   2   1    1.17    1.26
  13  -2  -1   12.68    2.19
 -13   2   1    9.60    1.56
  12  -2  -1   -0.18    0.91
 -12   2   1    1.60    1.03
  11  -2  -1    2.50    0.86
 -11   2   1    3.77    1.02
  10  -2  -1    0.27    0.65
 -10   2   1    0.78    0.71
   9  -2  -1    5.11    0.74
  -9   2   1    6.16    0.96
   8  -2  -1   15.87    1.27
  -8   2   1   14.33    1.08
   7  -2  -1   85.50    3.01
   7  -2  -1   92.25    3.03
  -7   2   1   89.59    3.01
   6  -2  -1   16.29    1.01
   6  -2  -1   18.07    1.03
  -6   2   1   16.66    1.05
   5  -2  -1    1.62    0.32
   5  -2  -1    2.90    0.48
   5  -2  -1    3.31    0.52
  -5   2   1    2.40    0.54
   4  -2  -1    8.68    0.66
   4  -2  -1   10.58    0.69
   4  -2  -1    9.58    0.75
  -4   2   1    9.66    0.71
  -4   2   1    9.90    0.81
   3  -2  -1   38.05    1.36
   3  -2  -1   36.64    1.31
  -3   2   1   35.84    1.33
  -3   2   1   33.95    1.34
   2  -2  -1    1.13    0.30
   2  -2  -1    1.49    0.35
  -2   2   1    1.22    0.32
  -2   2   1    1.67    0.37
   1  -2  -1   20.45    0.83
   1  -2  -1   20.31    0.74
  -1   2   1   20.43    0.87
  -1   2   1   19.85    0.73
   0  -2  -1   48.33    1.58
   0   2   1   46.02    1.57
  -1  -2  -1   21.87    0.98
   1   2   1   23.12    1.03
  -2  -2  -1   10.61    0.79
   2   2   1   13.25    0.92
  -3  -2  -1   33.98    1.15
  -3  -2  -1   35.10    1.37
   3   2   1   34.03    1.39
   3   2   1   34.44    1.14
  -4  -2  -1    8.99    0.63
   4   2   1    8.93    0.80
   4   2   1    7.85    0.62
  -5  -2  -1   -0.18    0.41
   5   2   1    0.36    0.44
   5   2   1    0.47    0.44
  -6  -2  -1    0.73    0.55
   6   2   1    1.35    0.64
   6   2   1    0.32    0.54
  -7  -2  -1    8.66    1.00
   7   2   1    9.21    1.19
   7   2   1    8.79    1.05
  -8  -2  -1    0.41    0.70
   8   2   1    0.50    0.91
  -9  -2  -1    8.10    1.31
   9   2   1    9.34    1.41
 -10  -2  -1   -0.37    0.94
  10   2   1   -0.08    1.15
 -11  -2  -1   -0.33    1.04
 -12  -2  -1    1.47    1.32
  12   2   1   -0.02    1.36
 -13  -2  -1   -0.34    1.23
  13   2   1    1.62    1.06
  13   2   1    2.50    1.59
 -14  -2  -1    0.97    1.40
  14   2   1   -0.05    1.04
  14   2   1    0.52    1.66
 -15  -2  -1    1.64    1.67
  15   2   1   -1.32    1.87
  15   2   1    1.54    1.33
 -16  -2  -1    4.94    1.95
  16   2   1    2.92    1.62
  17   2   1    0.44    2.59
  17   2   1   -0.03    1.76
  18  -3  -1   -2.28    1.51
 -18   3   1   -2.49    1.81
  17  -3  -1    0.10    1.35
 -17   3   1    1.88    1.82
  16  -3  -1    2.37    1.28
 -16   3   1    0.38    1.65
  15  -3  -1    1.00    1.05
 -15   3   1   -0.38    1.40
  14  -3  -1    1.64    1.01
 -14   3   1    4.17    1.35
  13  -3  -1    0.90    0.96
 -13   3   1    0.47    1.12
  12  -3  -1    0.94    0.87
 -12   3   1    0.84    1.02
  11  -3  -1    7.05    0.98
 -11   3   1    9.04    1.27
  10  -3  -1   10.53    1.55
 -10   3   1   10.83    1.18
   9  -3  -1   -0.13    0.51
  -9   3   1    0.76    0.61
   8  -3  -1    1.63    0.50
  -8   3   1    2.30    0.60
   7  -3  -1   21.04    1.20
   7  -3  -1   22.30    1.36
  -7   3   1   21.01    1.25
   6  -3  -1    1.35    0.56
   6  -3  -1    0.17    0.31
  -6   3   1    0.18    0.55
  -6   3   1    0.59    0.49
   5  -3  -1    5.82    0.72
  -5   3   1    5.02    0.75
  -5   3   1    4.49    0.69
   4  -3  -1   38.02    1.47
   4  -3  -1   37.91    1.41
  -4   3   1   37.00    1.50
  -4   3   1   35.81    1.43
   3  -3  -1    9.72    0.73
   3  -3  -1    9.90    0.79
  -3   3   1    9.34    0.82
  -3   3   1    9.60    0.78
   2  -3  -1  333.97    9.75
   2  -3  -1  334.14    9.43
  -2   3   1  347.54    9.78
  -2   3   1  328.29    9.42
   1  -3  -1   24.74    1.18
   1  -3  -1   25.15    0.92
  -1   3   1   26.55    0.93
  -1   3   1   23.77    1.19
   0  -3  -1    1.73    0.49
   0  -3  -1    1.63    0.25
   0   3   1    1.90    0.62
  -1  -3  -1   36.26    1.54
   1   3   1   44.72    1.70
  -2  -3  -1   24.76    1.12
   2   3   1   26.49    1.27
  -3  -3  -1    1.15    0.40
   3   3   1    1.31    0.50
  -4  -3  -1   49.71    1.90
   4   3   1   48.63    1.89
  -5  -3  -1    5.08    0.68
   5   3   1    6.17    0.69
   5   3   1    6.39    0.87
  -6  -3  -1   11.45    0.89
   6   3   1   12.38    1.18
   6   3   1   12.25    0.96
  -7  -3  -1    1.71    0.66
   7   3   1    2.35    0.90
   7   3   1    2.56    0.73
  -8  -3  -1   44.26    1.90
   8   3   1   43.09    2.27
  -9  -3  -1   12.32    1.42
   9   3   1   12.16    1.83
 -10  -3  -1    2.47    1.10
  10   3   1    1.76    1.26
 -11  -3  -1    3.32    1.17
  11   3   1    2.66    1.47
 -12  -3  -1    3.19    1.31
  12   3   1    1.67    1.10
  12   3   1    1.28    1.46
 -13  -3  -1    5.88    1.49
  13   3   1    1.61    1.70
  13   3   1    3.02    1.19
 -14  -3  -1   -0.59    1.46
  14   3   1   -0.62    1.06
  14   3   1   -1.74    1.73
 -15  -3  -1    1.50    1.72
  15   3   1   -2.98    2.02
  15   3   1    0.68    1.34
  16   3   1   -0.47    2.24
  16   3   1    1.34    1.54
  18  -4  -1   -2.47    1.48
 -18   4   1   -2.97    1.86
  17  -4  -1   -0.82    1.31
 -17   4   1    2.22    1.67
  16  -4  -1   -0.65    1.12
 -16   4   1   -1.19    1.46
  15  -4  -1    1.09    1.07
 -15   4   1   -0.59    1.31
 -14   4   1    1.33    1.27
  13  -4  -1   -0.45    0.88
 -13   4   1    1.33    1.16
  12  -4  -1    0.77    0.80
 -12   4   1    0.70    1.07
  11  -4  -1   19.86    1.80
 -11   4   1   17.63    1.74
  10  -4  -1    0.82    0.61
   9  -4  -1    3.06    0.58
  -9   4   1    4.15    0.81
   8  -4  -1    0.49    0.39
  -8   4   1   -0.19    0.52
  -7   4   1   14.94    1.11
  -7   4   1   15.06    1.17
   6  -4  -1    5.14    0.86
  -6   4   1    2.81    0.68
  -6   4   1    4.57    0.77
   5  -4  -1   71.47    2.37
  -5   4   1   67.47    2.40
  -5   4   1   69.29    2.41
   4  -4  -1  106.90    3.28
   4  -4  -1  104.47    3.32
  -4   4   1  102.17    3.35
  -4   4   1  104.41    3.29
   3  -4  -1    6.19    0.72
   3  -4  -1    5.01    0.59
  -3   4   1    4.96    0.64
  -3   4   1    5.10    0.80
   2  -4  -1   33.10    1.52
   2  -4  -1   38.77    1.35
  -2   4   1   39.77    1.37
   1  -4  -1   51.42    1.63
   1  -4  -1   47.81    1.93
  -1   4   1   55.51    1.65
  -1   4   1   48.99    1.96
   0  -4  -1   10.09    0.86
   0  -4  -1    9.44    0.52
   0   4   1    9.66    0.50
  -1  -4  -1    1.06    0.44
   1   4   1    0.16    0.55
  -2  -4  -1   16.78    0.93
   2   4   1   17.18    1.11
  -3  -4  -1   -0.15    0.43
   3   4   1    1.12    0.72
   4   4   1    2.76    0.70
   5   4   1    0.48    0.66
   6   4   1    8.07    1.08
  -7  -4  -1    3.44    0.71
   7   4   1    3.14    0.99
   7   4   1    3.58    0.84
  -8  -4  -1   17.04    1.30
   8   4   1   15.72    1.58
   8   4   1   18.87    1.86
  -9  -4  -1    0.65    0.93
   9   4   1    2.70    1.27
 -10  -4  -1   45.35    2.18
  10   4   1   39.72    2.65
 -11  -4  -1    7.62    1.33
  11   4   1    5.71    1.60
 -12  -4  -1    4.58    1.39
  12   4   1    2.88    1.13
  12   4   1    1.63    1.54
 -13  -4  -1   -0.96    1.53
  13   4   1   -0.98    1.60
  13   4   1    0.99    1.14
  14   4   1   -1.12    1.75
  14   4   1    1.00    1.26
  15   4   1    0.34    1.37
  15   4   1   -2.27    1.98
  16   4   1   -0.33    2.46
  18  -5  -1   -1.94    1.47
 -18   5   1   -0.84    1.78
  17  -5  -1   -0.65    1.27
 -17   5   1    1.34    1.71
  16  -5  -1   -1.40    1.10
 -16   5   1    0.56    1.44
 -15   5   1   -0.14    1.34
  14  -5  -1    2.86    1.04
 -14   5   1    4.68    1.32
  13  -5  -1   -0.29    0.79
 -13   5   1    0.44    1.02
  12  -5  -1    0.22    0.77
 -12   5   1    0.94    1.05
  11  -5  -1   12.44    1.57
 -11   5   1    9.64    1.56
  10  -5  -1    2.12    0.63
 -10   5   1    3.15    1.01
  -9   5   1    1.46    0.72
  -8   5   1    6.16    1.07
  -8   5   1    5.98    0.94
  -7   5   1    0.92    0.58
  -7   5   1    1.99    0.65
  -6   5   1   37.11    1.66
  -6   5   1   38.62    1.67
  -5   5   1   34.91    1.51
  -5   5   1   32.92    1.50
   4  -5  -1   17.20    0.94
   4  -5  -1   18.05    0.94
  -4   5   1   17.89    1.00
  -4   5   1   16.05    1.06
   3  -5  -1    0.65    0.42
   3  -5  -1    1.67    0.44
  -3   5   1    1.62    0.43
  -3   5   1    0.86    0.62
   2  -5  -1    1.94    0.44
   2  -5  -1    1.77    0.56
  -2   5   1    1.13    0.42
  -2   5   1    1.52    0.63
   1  -5  -1    1.72    0.41
   1  -5  -1    1.37    0.54
  -1   5   1    1.38    0.66
  -1   5   1    1.80    0.37
   0  -5  -1    8.97    0.56
   0  -5  -1    9.67    0.79
   0   5   1    9.53    1.06
   1   5   1   18.27    1.30
   2   5   1   -0.04    0.50
   3   5   1    4.62    0.87
   4   5   1   29.39    1.70
   5   5   1   -0.94    0.80
   6   5   1   -0.12    0.96
   7   5   1    6.18    1.30
   8   5   1    3.31    1.38
   8   5   1    2.75    0.97
  -9  -5  -1    9.35    1.34
   9   5   1    9.06    1.34
 -10  -5  -1    9.06    1.20
  10   5   1    7.18    1.70
 -11  -5  -1    1.38    1.20
  11   5   1    2.02    1.18
  11   5   1    2.10    1.63
  12   5   1   -0.15    0.95
  12   5   1   -0.54    1.63
  13   5   1   -0.11    1.14
  13   5   1    0.13    1.81
  14   5   1    0.76    1.23
  14   5   1    2.48    2.07
  15   5   1    0.90    1.36
  15   5   1   -0.25    2.27
 -18   6   1   -0.69    1.79
  17  -6  -1   -1.09    1.22
 -17   6   1    0.82    1.57
 -16   6   1    0.19    1.37
  15  -6  -1    0.07    1.09
 -15   6   1    2.22    1.32
  14  -6  -1    1.08    0.97
 -14   6   1    0.51    1.17
  13  -6  -1    1.88    0.85
 -13   6   1    2.33    1.17
 -12   6   1    4.73    1.21
 -11   6   1    2.40    1.13
 -10   6   1   -0.07    0.95
  -9   6   1    6.30    1.13
  -8   6   1    1.50    0.62
  -8   6   1    0.73    0.75
  -7   6   1    1.31    0.62
  -7   6   1    0.74    0.57
  -6   6   1   40.02    1.77
  -6   6   1   40.75    1.78
  -5   6   1    3.87    0.62
  -5   6   1    4.05    0.68
  -4   6   1   -0.58    0.48
  -4   6   1   -0.02    0.40
   3  -6  -1   10.71    0.88
  -3   6   1    9.22    0.78
  -3   6   1    7.96    1.02
   2  -6  -1   10.25    0.83
  -2   6   1    9.93    1.08
  -2   6   1    8.29    0.77
   1  -6  -1    1.20    0.44
  -1   6   1    0.38    0.38
  -1   6   1    0.01    0.65
   0  -6  -1    5.22    0.62
   0  -6  -1    5.16    0.58
   0   6   1    6.92    1.09
   1   6   1   16.99    1.26
   3   6   1   34.04    1.71
   4   6   1    0.38    0.83
   5   6   1   -0.65    0.98
   6   6   1   15.49    2.02
   7   6   1   -2.91    1.54
   9   6   1    6.70    1.86
  10   6   1    4.30    1.89
  11   6   1    4.58    1.92
  12   6   1    0.76    1.94
  12   6   1    0.36    1.12
  13   6   1    5.85    2.17
  13   6   1    0.57    1.18
  14   6   1    0.19    1.25
  14   6   1    2.19    2.28
  15   6   1    1.66    2.48
  15   6   1    0.90    1.54
 -18   7   1   -1.34    1.75
 -17   7   1    0.78    1.73
  16  -7  -1    0.92    1.27
 -16   7   1    1.74    1.60
 -15   7   1   -1.22    1.22
 -14   7   1    0.45    1.16
 -13   7   1    7.25    1.46
 -12   7   1    0.21    1.05
 -11   7   1    6.66    1.25
 -10   7   1    9.51    1.55
 -10   7   1    9.44    1.38
  -9   7   1    2.37    1.00
  -9   7   1    2.13    0.92
  -8   7   1    0.68    0.75
  -8   7   1    1.43    0.70
  -7   7   1   14.29    1.22
  -7   7   1   14.33    1.14
  -6   7   1    1.87    0.63
  -6   7   1    2.75    0.64
  -5   7   1   14.97    1.06
  -5   7   1   15.54    1.24
  -4   7   1    0.47    0.50
  -4   7   1    0.37    0.66
   3  -7  -1    1.43    0.64
  -3   7   1    0.78    0.52
  -3   7   1    0.57    0.72
   2  -7  -1    6.06    0.87
  -2   7   1    7.22    0.97
  -2   7   1    6.04    0.75
   1  -7  -1    3.04    0.59
   1  -7  -1    4.95    0.75
  -1   7   1    4.86    0.89
   0  -7  -1   11.91    0.82
   0   7   1   10.99    1.24
   2   7   1    7.60    1.26
   3   7   1    8.44    1.10
   4   7   1   -1.24    0.79
   5   7   1    6.21    1.33
   6   7   1   12.53    1.72
   8   7   1    4.78    1.67
   9   7   1    2.22    1.72
   9   7   1    1.76    1.09
  10   7   1    0.62    1.09
  10   7   1    1.85    1.79
  11   7   1    2.59    1.87
  11   7   1   -0.09    1.07
  12   7   1    0.60    1.14
  12   7   1    1.20    1.93
  13   7   1    1.34    1.23
  13   7   1    0.65    2.00
  14   7   1    0.42    2.15
 -17   8   1    0.24    1.55
 -16   8   1    1.80    1.64
 -15   8   1    3.73    1.38
 -14   8   1   -0.25    1.28
 -13   8   1    1.97    1.31
 -12   8   1   -0.16    1.03
 -11   8   1    0.56    1.12
 -11   8   1    0.94    1.19
 -10   8   1    1.18    1.06
 -10   8   1    0.60    1.12
  -9   8   1    2.98    0.97
  -8   8   1    6.53    1.05
  -7   8   1    3.97    0.84
  -7   8   1    2.22    0.69
  -6   8   1   11.39    1.07
  -6   8   1   10.98    1.12
  -5   8   1    2.34    0.75
  -5   8   1    3.35    0.77
  -4   8   1    0.15    0.60
  -4   8   1    0.45    0.67
  -3   8   1   -0.18    0.39
  -3   8   1    0.32    0.73
  -3   8   1   -0.15    0.56
   2  -8  -1    6.32    1.03
  -2   8   1    7.23    1.18
  -2   8   1    6.16    0.84
  -2   8   1    6.28    1.03
   1  -8  -1   10.49    0.93
   1  -8  -1   11.09    1.01
  -1   8   1    9.71    1.25
   0  -8  -1    5.66    0.68
   0   8   1    4.74    1.00
   1   8   1    9.59    1.18
   2   8   1    6.34    1.01
   3   8   1    1.37    0.94
   4   8   1   -2.12    1.16
   6   8   1    1.26    1.56
   7   8   1    0.90    1.38
   8   8   1   -1.65    1.42
   8   8   1   -0.17    1.00
   9   8   1   -0.34    1.67
   9   8   1    2.13    1.04
  10   8   1   -0.04    1.13
  10   8   1   -1.22    1.84
  11   8   1    3.74    2.03
  11   8   1    3.50    1.32
  12   8   1    2.01    1.09
  12   8   1   -0.54    2.03
  13   8   1   -0.92    1.49
  13   8   1   -1.78    2.15
 -18   9   1    1.22    1.99
 -17   9   1   -1.46    1.64
 -16   9   1   -1.66    1.50
 -15   9   1    1.55    1.49
 -14   9   1   -0.18    1.25
 -13   9   1    3.01    1.31
 -12   9   1   -0.01    1.19
 -12   9   1   -0.95    1.04
 -11   9   1    1.02    1.10
 -11   9   1    0.94    1.23
 -10   9   1    4.56    1.27
 -10   9   1    3.35    1.18
  -9   9   1    1.65    1.08
  -9   9   1   -0.21    1.03
  -8   9   1    9.37    1.53
  -8   9   1    7.91    1.28
  -7   9   1    0.59    0.73
  -6   9   1   -0.55    0.67
  -6   9   1    0.23    0.69
  -5   9   1    2.48    0.90
  -5   9   1    1.85    0.75
  -4   9   1    0.26    0.68
  -4   9   1   -0.24    0.68
  -3   9   1    3.75    0.75
  -3   9   1    3.77    0.97
  -3   9   1    2.29    0.55
   2  -9  -1    3.76    0.81
   2  -9  -1    3.07    0.88
  -2   9   1    1.99    0.58
  -2   9   1    2.39    0.96
   1  -9  -1    5.55    0.81
   1  -9  -1    5.39    0.85
  -1   9   1    7.76    1.23
  -1   9   1    4.21    0.72
   0   9   1   12.60    1.25
   1   9   1   -0.37    0.68
   3   9   1    1.26    1.32
   4   9   1    5.26    1.66
   5   9   1   -0.90    1.66
   6   9   1    0.27    1.51
   6   9   1    0.42    0.92
   7   9   1    0.95    1.04
   7   9   1    0.71    1.55
   8   9   1   -0.58    1.70
   8   9   1    0.38    1.00
   9   9   1   -0.91    1.74
   9   9   1    0.79    1.02
  10   9   1    0.29    1.83
  10   9   1    1.42    1.18
  11   9   1    0.63    2.00
  11   9   1    1.54    1.13
  12   9   1   -1.66    2.12
  12   9   1    1.27    1.18
  13   9   1    0.88    1.35
  13   9   1   -0.40    2.37
 -18  10   1    0.69    1.86
 -17  10   1    1.83    1.82
 -16  10   1    0.20    1.58
 -15  10   1   -0.95    1.32
 -14  10   1   -0.14    1.32
 -13  10   1    2.03    1.29
 -12  10   1    2.64    1.31
 -12  10   1    2.16    1.19
 -11  10   1    0.31    1.14
 -11  10   1    0.40    1.14
 -10  10   1    0.75    1.30
 -10  10   1    2.79    1.14
  -9  10   1    1.80    1.25
  -9  10   1    2.33    1.15
  -8  10   1   -0.92    1.12
  -8  10   1    0.78    0.90
  -7  10   1   -0.40    1.08
  -6  10   1   10.24    1.38
  -6  10   1    8.83    1.55
  -5  10   1    2.86    1.13
  -5  10   1    3.77    1.02
  -4  10   1    8.14    1.36
  -4  10   1    9.33    1.29
   3 -10  -1   22.51    1.59
  -3  10   1   22.86    2.01
  -3  10   1   25.39    1.67
   2 -10  -1    2.11    0.88
  -2  10   1    2.52    0.69
  -2  10   1    3.45    1.28
   1 -10  -1    0.71    0.76
   1 -10  -1    1.73    0.86
  -1  10   1    0.15    0.65
  -1  10   1   -0.19    1.12
   0  10   1    1.59    1.27
   0  10   1    0.07    0.71
   1  10   1    0.13    0.80
   1  10   1   -0.01    1.24
   2  10   1   -0.20    1.27
   3  10   1    3.01    0.99
   3  10   1    3.57    1.63
   4  10   1    7.49    1.73
   4  10   1    5.91    1.20
   5  10   1   -0.36    0.95
   5  10   1   -0.08    1.48
   6  10   1   -0.55    1.51
   6  10   1   -0.15    0.93
   7  10   1    0.33    1.64
   7  10   1   -0.23    1.06
   8  10   1   -0.70    0.98
   8  10   1   -0.80    1.79
   9  10   1   -0.15    1.09
   9  10   1    0.56    1.81
  10  10   1    3.03    1.31
  10  10   1    1.11    2.06
  11  10   1    1.19    1.17
  11  10   1    0.46    2.19
  12  10   1   -0.72    2.39
  12  10   1    1.62    1.35
 -16  11   1    1.28    1.56
 -15  11   1    0.35    1.39
 -14  11   1   -0.84    1.32
 -13  11   1    2.95    1.64
 -13  11   1    2.37    1.44
 -12  11   1   -0.34    1.30
 -12  11   1   -0.84    1.14
 -11  11   1    3.74    1.51
 -11  11   1    1.73    1.21
 -10  11   1   10.17    1.53
 -10  11   1   10.98    1.86
  -9  11   1    4.25    1.23
  -9  11   1    6.00    1.58
  -8  11   1    1.11    1.29
  -8  11   1    2.75    1.19
  -7  11   1    1.39    0.99
  -7  11   1   -0.22    1.13
  -6  11   1    1.66    1.00
  -6  11   1    0.57    1.25
  -5  11   1   -1.30    1.15
  -5  11   1    0.29    0.87
   4 -11  -1    2.29    1.05
  -4  11   1    2.26    1.29
   3 -11  -1   -0.42    0.91
  -3  11   1    0.13    0.70
  -3  11   1    0.15    1.16
   2 -11  -1    1.50    0.99
  -2  11   1    0.07    0.73
  -2  11   1    1.65    1.20
   1 -11  -1    0.85    0.95
   1 -11  -1    0.97    1.02
  -1  11   1    0.50    1.25
  -1  11   1    0.88    0.78
   0  11   1    2.85    0.90
   0  11   1    3.13    1.43
   1  11   1    0.29    1.35
   2  11   1    1.44    0.90
   2  11   1    0.92    1.45
   3  11   1    3.72    1.15
   3  11   1    5.51    1.60
   4  11   1   -0.63    0.91
   4  11   1   -1.29    1.56
   5  11   1    0.27    1.65
   5  11   1   -1.00    0.94
   6  11   1    3.12    1.70
   6  11   1    0.98    1.05
   7  11   1    3.97    1.77
   7  11   1    3.21    1.15
   8  11   1    2.00    1.17
   8  11   1   -0.34    1.87
   9  11   1    1.25    1.20
   9  11   1   -0.05    2.02
  10  11   1   -0.20    2.07
  10  11   1    1.82    1.27
  11  11   1    0.31    2.26
  11  11   1    0.75    1.46
 -17  12   1    0.85    2.02
 -16  12   1    0.44    1.70
 -15  12   1    1.50    1.68
 -14  12   1   -0.90    1.89
 -14  12   1    0.25    1.44
 -13  12   1    0.06    1.50
 -13  12   1    2.16    1.66
 -12  12   1    0.89    1.33
 -12  12   1    0.56    1.36
 -11  12   1    6.32    1.62
 -11  12   1    6.69    1.79
 -10  12   1    3.20    1.34
 -10  12   1    2.18    1.46
  -9  12   1    0.63    1.17
  -9  12   1   -0.17    1.30
  -8  12   1    0.40    1.13
  -8  12   1   -0.31    1.26
  -7  12   1    2.08    1.22
  -7  12   1    0.82    1.28
  -6  12   1   -1.77    1.31
  -6  12   1    1.01    0.98
   5 -12  -1   19.18    1.99
  -5  12   1   16.98    2.18
   4 -12  -1    3.99    1.25
  -4  12   1    4.91    1.43
   3 -12  -1    4.21    1.18
  -3  12   1    2.98    1.39
  -3  12   1    2.83    0.91
   2 -12  -1    0.33    1.01
  -2  12   1    0.23    0.88
  -2  12   1   -1.02    1.15
   1 -12  -1    0.27    1.05
  -1  12   1    0.13    0.88
  -1  12   1    0.50    1.42
   0  12   1    2.50    1.37
   1  12   1    0.56    0.83
   1  12   1    0.10    1.36
   2  12   1   -0.92    1.31
   2  12   1    1.25    0.94
   3  12   1    0.88    0.91
   3  12   1    1.25    1.51
   4  12   1   -0.22    1.41
   4  12   1    1.02    1.01
   5  12   1    1.91    1.07
   5  12   1    0.64    1.57
   6  12   1    1.53    1.16
   6  12   1    0.80    1.96
   7  12   1   -1.63    1.94
   7  12   1    0.94    1.08
   8  12   1   -2.25    1.96
   8  12   1    1.65    1.37
   9  12   1    0.04    1.27
   9  12   1   -2.42    2.01
  10  12   1   -0.33    1.63
  10  12   1   -0.77    2.18
 -15  13   1    0.62    1.77
 -14  13   1    0.81    1.97
 -14  13   1    0.48    1.64
 -13  13   1   -1.36    1.42
 -13  13   1    1.31    1.70
 -12  13   1    3.74    1.77
 -12  13   1    1.49    1.57
 -11  13   1    2.19    1.47
 -11  13   1    3.89    1.77
 -10  13   1    0.34    1.46
 -10  13   1   -0.10    1.25
  -9  13   1   -0.86    1.44
  -9  13   1    0.22    1.25
  -8  13   1   -2.03    1.33
  -8  13   1    1.50    1.19
  -7  13   1   -1.16    1.18
   6 -13  -1    0.80    1.13
  -6  13   1   -0.33    1.43
  -5  13   1   10.75    1.77
   4 -13  -1   -0.61    1.22
  -4  13   1    1.72    1.35
  -4  13   1    1.58    0.87
   3 -13  -1    5.21    1.28
  -3  13   1    2.94    1.36
  -3  13   1    2.74    0.96
   2 -13  -1   -0.12    1.17
  -2  13   1    0.33    0.98
  -2  13   1    0.12    1.27
   1 -13  -1    1.11    1.22
  -1  13   1    1.02    1.03
  -1  13   1    1.04    1.27
   0  13   1    0.71    1.01
   0  13   1    1.65    1.42
   1  13   1   -1.17    1.31
   1  13   1    0.79    0.98
   2  13   1    1.45    1.06
   2  13   1    1.47    1.49
   3  13   1   -0.15    1.53
   3  13   1    1.06    1.04
   4  13   1    2.49    1.17
   4  13   1    2.33    1.83
   5  13   1    2.19    1.78
   5  13   1    1.17    1.16
   6  13   1    1.66    1.90
   6  13   1    0.88    1.15
   7  13   1   -0.02    1.78
   7  13   1    1.75    1.25
   8  13   1    1.27    1.45
   8  13   1    0.19    2.11
   9  13   1   -0.87    2.23
   9  13   1    2.15    1.62
 -16  14   1    3.57    2.05
 -15  14   1   -1.72    1.89
 -15  14   1   -1.20    2.16
 -14  14   1   -0.28    1.98
 -14  14   1    0.34    1.58
 -13  14   1   -0.58    1.76
 -13  14   1   -0.41    1.54
 -12  14   1    1.70    1.77
 -12  14   1    0.54    1.49
 -11  14   1    1.20    1.84
 -11  14   1    0.57    1.34
 -10  14   1   -0.69    1.66
 -10  14   1    0.58    1.52
  -9  14   1   -1.02    1.49
   8 -14  -1    1.54    1.39
  -8  14   1   -0.47    1.50
   7 -14  -1    1.25    1.33
  -7  14   1    0.96    1.45
   6 -14  -1    0.83    1.31
  -6  14   1    0.09    1.33
   5 -14  -1    2.15    1.25
  -5  14   1    1.36    1.35
   4 -14  -1    4.90    1.46
  -4  14   1    3.49    1.11
  -4  14   1    4.05    1.54
   3 -14  -1   -1.10    1.33
  -3  14   1    0.50    1.10
  -3  14   1    1.42    1.27
   2 -14  -1    0.35    1.39
  -2  14   1   -0.04    1.13
  -2  14   1    0.83    1.46
  -1  14   1    0.73    1.36
  -1  14   1    0.63    1.03
   0  14   1    1.52    1.16
   0  14   1    3.85    1.59
   1  14   1    0.85    1.47
   1  14   1    0.64    1.18
   2  14   1    0.29    1.49
   2  14   1    0.15    1.26
   3  14   1   -0.25    1.35
   3  14   1    1.21    1.59
   4  14   1    5.14    1.88
   4  14   1    0.68    1.36
   5  14   1   -1.08    1.86
   5  14   1    0.22    1.42
   6  14   1    0.26    2.03
   6  14   1    0.17    1.52
   7  14   1    1.12    1.60
   7  14   1    0.61    2.15
   8  14   1    1.43    2.39
 -15  15   1    1.50    2.19
 -15  15   1    1.10    2.33
 -14  15   1    3.82    2.31
 -14  15   1    1.29    1.88
 -13  15   1    1.43    1.82
 -13  15   1    0.45    2.07
 -12  15   1   -0.43    1.82
  11 -15  -1   -0.28    1.74
 -11  15   1    1.07    1.82
  10 -15  -1    3.81    1.74
 -10  15   1    2.71    1.79
   9 -15  -1    1.86    1.61
  -9  15   1    1.58    1.74
   8 -15  -1    0.13    1.49
  -8  15   1   -1.40    1.60
   7 -15  -1   -0.06    1.39
  -7  15   1    0.32    1.41
   6 -15  -1   -0.11    1.42
  -6  15   1    1.25    1.51
   5 -15  -1   -0.44    1.34
  -5  15   1    1.43    1.60
  -4  15   1    0.17    1.20
  -4  15   1    1.15    1.53
   3 -15  -1    2.27    1.63
  -3  15   1    2.97    1.62
  -3  15   1    1.65    1.29
   2 -15  -1    0.22    1.61
  -2  15   1    0.31    1.11
  -2  15   1    0.18    1.35
  -1  15   1    2.98    1.69
  -1  15   1    4.23    1.27
   0  15   1    4.09    1.61
   0  15   1    3.55    1.30
   1  15   1    1.19    1.26
   1  15   1    2.81    1.52
   2  15   1   -0.11    1.36
   2  15   1    1.47    1.82
   3  15   1    1.68    1.99
   3  15   1    1.85    1.56
   4  15   1    0.40    1.84
   4  15   1    1.04    1.48
   5  15   1    0.50    1.53
   5  15   1   -0.56    2.07
   6  15   1    0.93    1.80
   6  15   1    4.13    2.24
  13 -16  -1    2.30    1.96
 -13  16   1    2.16    2.12
  12 -16  -1   -0.22    1.87
 -12  16   1   -1.44    2.00
  11 -16  -1    0.28    1.84
 -11  16   1   -0.01    1.82
  10 -16  -1    1.51    1.79
 -10  16   1    0.49    1.90
   9 -16  -1   -1.41    1.65
  -9  16   1   -0.17    1.69
   8 -16  -1    1.26    1.62
  -8  16   1    0.77    1.66
   7 -16  -1    2.70    1.68
  -7  16   1    1.55    1.70
   6 -16  -1   -1.76    1.51
  -6  16   1    0.56    1.55
   5 -16  -1   -1.10    1.41
  -5  16   1    1.24    1.44
   4 -16  -1    4.01    1.61
  -4  16   1    2.73    1.64
  -4  16   1    2.04    1.41
   3 -16  -1   -1.29    1.86
  -3  16   1    2.25    1.66
  -2  16   1    0.19    1.29
  -2  16   1    0.29    1.44
  -1  16   1    0.63    1.32
  -1  16   1    1.68    1.76
   0  16   1    1.06    1.32
   0  16   1    1.11    1.74
   1  16   1    2.61    1.80
   1  16   1    1.93    1.52
   2  16   1    3.96    1.90
   2  16   1    3.06    1.63
   3  16   1    1.01    2.05
   3  16   1    1.44    1.59
   4  16   1    0.87    1.69
   4  16   1    1.32    2.09
   5  16   1    1.24    1.71
   5  16   1    3.22    2.46
  12 -17  -1   -0.27    2.17
  11 -17  -1    0.83    2.14
 -11  17   1    2.57    2.22
  10 -17  -1    0.72    1.93
 -10  17   1    0.75    2.03
   9 -17  -1    2.74    2.01
  -9  17   1   -3.52    1.75
   8 -17  -1    1.62    1.89
  -8  17   1    1.14    1.88
   7 -17  -1   -2.77    1.72
  -7  17   1    0.75    1.88
   6 -17  -1   -1.34    1.69
  -6  17   1    0.98    1.64
   5 -17  -1   -0.51    1.69
  -5  17   1    2.26    1.75
   4 -17  -1    2.53    1.76
  -4  17   1    1.86    1.65
  -3  17   1    0.00    1.43
  -3  17   1    2.45    1.84
  -2  17   1   -0.11    1.44
  -2  17   1    4.02    1.75
  -1  17   1   -0.98    1.51
  -1  17   1    1.22    1.70
   0  17   1   -0.84    1.58
   0  17   1    0.41    1.88
   1  17   1    1.56    1.91
   1  17   1   -0.89    1.69
   2  17   1    3.14    2.08
   2  17   1    1.37    1.78
   3  17   1    1.68    1.78
   3  17   1    4.13    2.26
  11 -18  -1    2.76    2.37
 -11  18   1   -0.80    2.25
  10 -18  -1    4.50    2.41
 -10  18   1    1.50    2.37
   9 -18  -1    0.24    2.08
   7 -18  -1   -0.47    1.96
  -7  18   1   -0.80    1.82
   6 -18  -1    0.72    2.00
  -6  18   1    0.93    1.77
   5 -18  -1    6.46    2.30
  -5  18   1    0.14    1.90
  -4  18   1    2.57    1.90
  -3  18   1    2.50    1.90
  -2  18   1    3.55    1.97
  -1  18   1   -1.69    1.72
   0  18   1    0.19    1.72
   7 -19  -1   -1.17    2.28
  -6  19   1    0.11    2.20
  -5  19   1    0.02    1.84
  -4  19   1    3.49    2.14
  -2  19  -2    2.16    2.36
  -3  19  -2   -1.77    1.91
  -4  19  -2   -2.25    1.84
  -5  19  -2   -0.59    2.22
  -6  19  -2   -1.28    1.88
   6 -19   2   -0.71    2.34
  -7  19  -2    1.81    2.30
   7 -19   2    4.14    2.30
  -8  19  -2    1.58    2.43
   8 -19   2    1.69    2.36
   2  18  -2    0.14    2.14
   2  18  -2   -0.76    1.87
   1  18  -2    3.61    2.33
   1  18  -2   -2.88    1.72
   0  18  -2    1.93    1.91
   0  18  -2   -3.41    1.79
  -1  18  -2    3.69    2.07
  -1  18  -2    1.39    1.86
  -2  18  -2    1.40    1.87
  -2  18  -2    0.81    1.80
  -3  18  -2    1.90    1.75
  -4  18  -2   -0.88    1.90
   4 -18   2   -4.11    2.01
  -5  18  -2    0.33    1.92
   5 -18   2   -0.71    2.07
  -6  18  -2    0.50    1.79
   6 -18   2    4.51    2.10
  -7  18  -2    1.37    1.85
   7 -18   2    1.57    2.04
  -8  18  -2   -0.03    1.97
   8 -18   2    0.78    2.09
   9 -18   2   -1.95    1.92
 -10  18  -2    2.25    2.22
  10 -18   2   -3.09    2.12
   4  17  -2   -0.38    1.80
   4  17  -2    0.16    2.31
   3  17  -2    3.13    2.24
   3  17  -2   -2.10    1.68
   2  17  -2   -0.29    1.61
   2  17  -2    3.25    2.09
   1  17  -2   -0.65    1.57
   1  17  -2   -0.47    2.03
   0  17  -2    0.52    1.76
   0  17  -2   -1.62    1.44
  -1  17  -2   -1.33    1.56
  -1  17  -2    1.76    1.79
  -2  17  -2    2.92    1.78
  -2  17  -2    0.42    1.53
  -3  17  -2    0.09    1.57
  -3  17  -2   -3.08    1.45
   3 -17   2    0.11    1.80
  -4  17  -2    0.18    1.56
   4 -17   2   -1.20    1.71
  -5  17  -2   -1.50    1.59
   5 -17   2    2.72    1.82
  -6  17  -2    0.71    1.63
   6 -17   2    2.66    1.80
  -7  17  -2    0.28    1.80
   7 -17   2    0.46    1.75
  -8  17  -2    0.29    1.80
   8 -17   2   -1.24    1.72
  -9  17  -2    0.92    1.91
   9 -17   2   -3.42    1.85
 -10  17  -2    1.98    2.19
  10 -17   2   -0.26    1.93
  11 -17   2    0.48    2.22
 -12  17  -2    1.34    2.41
  12 -17   2    1.72    2.30
   6  16  -2   -0.40    1.66
   6  16  -2    4.50    2.37
   5  16  -2    2.22    2.07
   5  16  -2   -0.19    1.73
   4  16  -2    0.83    2.06
   4  16  -2    0.44    1.70
   3  16  -2    2.02    1.96
   3  16  -2   -0.73    1.49
   2  16  -2   -1.40    1.37
   2  16  -2    1.14    1.82
   1  16  -2    0.41    1.38
   1  16  -2    2.87    1.73
   0  16  -2   -0.33    1.46
   0  16  -2   -0.76    1.30
  -1  16  -2    2.72    1.60
  -1  16  -2   -1.14    1.20
   1 -16   2    0.68    1.96
  -2  16  -2   -0.86    1.27
  -2  16  -2    2.91    1.66
  -3  16  -2   -0.73    1.48
  -3  16  -2   -0.25    1.65
   3 -16   2   -1.64    1.53
  -4  16  -2    1.27    1.37
  -4  16  -2    1.13    1.64
   4 -16   2    2.83    1.59
  -5  16  -2   -0.57    1.46
   5 -16   2   -0.16    1.53
  -6  16  -2   -2.81    1.49
   6 -16   2    0.81    1.52
  -7  16  -2    2.14    1.63
   7 -16   2    2.73    1.62
  -8  16  -2    0.20    1.62
   8 -16   2   -2.64    1.54
  -9  16  -2    0.96    1.56
   9 -16   2   -0.78    1.73
 -10  16  -2    2.10    1.93
  10 -16   2    1.90    1.84
 -11  16  -2    5.67    2.17
  11 -16   2    2.25    2.03
 -12  16  -2    1.30    1.71
  12 -16   2   -0.50    1.97
  13 -16   2    1.59    2.01
   7  15  -2    3.37    2.40
   7  15  -2   -0.34    1.55
   6  15  -2    6.71    2.34
   6  15  -2   -0.42    1.57
   5  15  -2   -0.26    1.49
   5  15  -2    4.07    2.07
   4  15  -2    1.67    1.81
   4  15  -2    0.06    1.46
   3  15  -2    0.92    1.62
   3  15  -2   -0.60    1.31
   2  15  -2    3.35    1.84
   2  15  -2    0.74    1.25
   1  15  -2    0.10    1.44
   1  15  -2   -1.53    1.16
   0  15  -2    3.80    1.65
   0  15  -2    0.17    1.16
   0 -15   2    1.28    1.70
  -1  15  -2    0.79    1.17
  -1  15  -2    3.63    1.62
   1 -15   2    4.49    1.80
  -2  15  -2    0.91    1.36
   2 -15   2    0.17    1.60
  -3  15  -2    1.88    1.48
  -3  15  -2    2.63    1.38
   3 -15   2    1.23    1.46
  -4  15  -2   -0.50    1.48
  -4  15  -2    1.80    1.27
   4 -15   2    0.87    1.41
  -5  15  -2   -0.92    1.44
   5 -15   2    0.53    1.37
  -6  15  -2    0.19    1.32
   6 -15   2   -1.16    1.32
  -7  15  -2   -0.51    1.57
   7 -15   2   -1.13    1.39
  -8  15  -2    0.78    1.61
   8 -15   2    0.97    1.65
  -9  15  -2    1.14    1.62
   9 -15   2    1.86    1.64
 -10  15  -2    1.75    1.72
  10 -15   2    1.47    1.75
 -11  15  -2    0.47    1.51
  11 -15   2   -0.28    1.67
 -12  15  -2    1.56    1.81
  12 -15   2   -1.12    1.67
 -13  15  -2    3.68    2.30
  13 -15   2    1.75    1.84
  14 -15   2   -0.71    2.14
   9  14  -2   -2.55    1.57
   9  14  -2   -1.14    2.37
   8  14  -2   -0.77    1.43
   8  14  -2   -0.56    2.20
   7  14  -2    1.71    1.60
   7  14  -2    1.89    2.11
   6  14  -2    0.33    1.88
   6  14  -2    1.03    1.49
   5  14  -2    0.15    1.22
   5  14  -2    1.58    1.77
   4  14  -2   -0.48    1.20
   4  14  -2    3.40    1.73
   3  14  -2    3.21    1.59
   3  14  -2    0.41    1.23
   2  14  -2   -0.74    1.12
   2  14  -2    0.88    1.41
   1  14  -2    1.00    1.44
   1  14  -2    0.18    1.07
   0  14  -2    0.47    1.00
   0  14  -2    3.13    1.40
   0 -14   2    0.11    1.47
  -1  14  -2    1.74    1.35
   1 -14   2    2.48    1.52
  -2  14  -2    2.80    1.22
  -2  14  -2    4.61    1.51
   2 -14   2    4.22    1.58
  -3  14  -2    2.21    1.19
  -3  14  -2    3.61    1.40
   3 -14   2    3.29    1.51
  -4  14  -2    1.31    1.06
  -4  14  -2   -0.31    1.23
  -5  14  -2   -1.12    1.18
   5 -14   2   -1.37    1.22
  -6  14  -2   -0.10    1.33
   6 -14   2   -0.24    1.31
  -7  14  -2    0.84    1.43
   7 -14   2    0.86    1.51
  -8  14  -2    2.28    1.55
   8 -14   2    1.98    1.48
  -9  14  -2    5.00    1.77
   9 -14   2    2.62    1.50
 -10  14  -2    2.15    1.70
  10 -14   2    0.35    1.55
 -11  14  -2   -0.61    1.65
  11 -14   2    0.99    1.55
 -12  14  -2    2.51    1.70
  12 -14   2    1.94    1.82
 -13  14  -2    2.01    1.87
  13 -14   2    0.59    1.85
  14 -14   2   -0.56    1.88
  10  13  -2    3.00    1.61
  10  13  -2    0.16    2.41
   9  13  -2    3.34    2.28
   9  13  -2    2.48    1.57
   8  13  -2    0.36    1.47
   8  13  -2    3.66    2.04
   7  13  -2    2.05    1.84
   7  13  -2    2.16    1.30
   6  13  -2    1.73    1.29
   6  13  -2    0.56    1.78
   5  13  -2    0.40    1.66
   5  13  -2    2.70    1.40
   4  13  -2    2.87    1.64
   4  13  -2    2.52    1.34
   3  13  -2    0.88    1.05
   3  13  -2    1.86    1.46
   2  13  -2    0.68    1.04
   2  13  -2    3.57    1.49
   1  13  -2    0.18    1.32
   1  13  -2    0.76    1.01
  -1 -13   2   -0.26    1.24
   0  13  -2    1.09    1.36
   0  13  -2    0.30    0.95
   0 -13   2    1.76    1.34
  -1  13  -2    1.99    1.28
  -1  13  -2    1.94    1.04
   1 -13   2    1.36    1.25
  -2  13  -2    0.47    1.25
  -2  13  -2    2.20    0.96
   2 -13   2    1.04    1.35
  -3  13  -2    0.43    0.95
  -3  13  -2    0.71    1.31
   3 -13   2    0.43    1.25
  -4  13  -2    0.84    1.22
  -5  13  -2   -0.97    1.23
   5 -13   2   -1.16    1.16
  -6  13  -2    2.86    1.49
   6 -13   2    3.74    1.33
  -7  13  -2   -0.13    1.37
   7 -13   2    1.79    1.28
  -8  13  -2    1.34    1.39
   8 -13   2    1.50    1.33
  -9  13  -2    1.33    1.47
   9 -13   2    1.15    1.38
 -10  13  -2    2.11    1.45
  10 -13   2    0.17    1.51
 -11  13  -2    1.56    1.48
  11 -13   2   -0.57    1.51
 -12  13  -2    3.17    1.79
  12 -13   2    1.34    1.62
  13 -13   2    0.77    1.71
  14 -13   2   -1.08    1.73
  15 -13   2   -1.19    1.77
  16 -13   2    1.14    1.99
  11  12  -2    1.80    1.47
  11  12  -2    2.90    2.43
  10  12  -2    0.94    1.50
  10  12  -2    1.53    2.21
   9  12  -2    1.98    1.47
   9  12  -2    1.32    1.97
   8  12  -2    1.44    1.38
   8  12  -2    2.56    1.83
   7  12  -2    0.97    1.18
   7  12  -2    1.44    1.70
   6  12  -2    0.37    1.67
   6  12  -2    1.29    1.15
   5  12  -2    3.59    1.17
   5  12  -2    4.72    1.61
   4  12  -2    1.26    0.99
   4  12  -2   -0.27    1.41
   3  12  -2    1.36    0.97
   3  12  -2   -0.15    1.37
   2  12  -2    1.47    1.30
   2  12  -2    0.99    0.98
   1  12  -2    1.42    1.32
   1  12  -2    1.10    0.93
  -1 -12   2    0.21    1.15
   0  12  -2    2.24    1.40
   0  12  -2    2.24    0.96
   0 -12   2    3.97    1.35
  -1  12  -2    1.52    1.32
  -1  12  -2    1.39    0.88
   1 -12   2    1.72    1.23
  -2  12  -2    0.64    0.82
  -2  12  -2    0.32    1.17
   2 -12   2   -1.51    1.08
  -3  12  -2    2.24    0.86
  -3  12  -2    1.38    1.19
   3 -12   2    1.79    1.16
  -4  12  -2   12.62    2.01
  -4  12  -2   16.32    1.81
   4 -12   2   16.09    1.85
  -5  12  -2   12.94    2.03
   5 -12   2   15.77    1.94
  -6  12  -2   -0.07    1.15
   6 -12   2    0.11    1.17
  -7  12  -2    1.71    1.39
   7 -12   2   -0.59    1.20
  -8  12  -2   -1.25    1.07
   8 -12   2   -0.27    1.25
  -9  12  -2    2.41    1.36
   9 -12   2    3.34    1.43
 -10  12  -2    1.41    1.28
  10 -12   2    1.01    1.39
 -11  12  -2   10.05    1.79
  11 -12   2    8.66    1.81
 -12  12  -2   -0.53    1.42
  12 -12   2    2.45    1.57
  13 -12   2   -0.37    1.61
  14 -12   2    2.17    1.62
  15 -12   2    1.19    1.75
  12  11  -2   -0.04    2.33
  12  11  -2    1.74    1.55
  11  11  -2    0.48    2.09
  11  11  -2    1.64    1.55
  10  11  -2   -1.30    1.87
  10  11  -2    1.03    1.32
   9  11  -2    0.09    1.75
   9  11  -2    0.35    1.30
   8  11  -2    1.70    1.19
   8  11  -2    3.60    1.71
   7  11  -2    1.74    1.63
   7  11  -2    1.38    1.17
   6  11  -2    2.08    1.53
   6  11  -2    1.96    1.11
   5  11  -2    1.75    1.42
   5  11  -2    0.41    0.98
   4  11  -2    0.52    1.29
   4  11  -2   -0.42    0.86
   3  11  -2    2.89    1.02
   3  11  -2    2.34    1.51
   2  11  -2    1.62    1.32
   2  11  -2    3.24    0.99
  -2 -11   2    0.64    0.98
   1  11  -2    0.90    1.20
   1  11  -2   -0.36    0.84
  -1 -11   2    0.07    1.05
  -1 -11   2   -0.77    1.02
   0  11  -2    0.30    0.82
   0  11  -2   -0.45    1.20
   0 -11   2    0.21    1.08
  -1  11  -2    0.96    0.74
  -1  11  -2   -0.27    1.09
   1 -11   2   -0.15    1.04
  -2  11  -2    0.17    0.69
  -2  11  -2    0.53    1.14
   2 -11   2    0.06    1.00
  -3  11  -2    5.02    0.82
  -3  11  -2    6.10    1.32
   3 -11   2    6.39    1.15
  -4  11  -2   13.28    1.88
   4 -11   2   13.79    1.76
  -5  11  -2    0.50    1.07
   5 -11   2    0.20    1.15
  -6  11  -2    0.47    1.13
   6 -11   2    0.79    1.16
  -7  11  -2    0.93    1.19
   7 -11   2    0.28    1.20
  -8  11  -2    1.09    1.25
   8 -11   2    2.84    1.34
  -9  11  -2    4.00    1.37
   9 -11   2    3.63    1.38
 -10  11  -2    3.19    1.34
 -11  11  -2    4.20    1.41
 -11  11  -2    5.75    1.39
 -12  11  -2    0.80    1.23
 -13  11  -2    1.48    1.37
 -14  11  -2    0.11    1.57
  15 -11   2   -0.13    1.61
  16 -11   2    2.04    1.81
  17 -11   2    2.56    1.90
  13  10  -2    2.14    1.51
  13  10  -2    0.64    2.33
  12  10  -2    1.38    1.44
  12  10  -2   -1.99    2.04
  11  10  -2    0.10    1.26
  11  10  -2   -2.48    1.79
  10  10  -2   -0.35    1.84
  10  10  -2    0.28    1.13
   9  10  -2    2.62    1.77
   9  10  -2    1.91    1.28
   8  10  -2   -1.31    1.06
   8  10  -2   -1.13    1.55
   7  10  -2    0.77    1.39
   7  10  -2    1.74    1.01
   6  10  -2    0.09    0.99
   6  10  -2   -1.33    1.33
   5  10  -2   -0.31    0.83
   5  10  -2   -0.80    1.26
   4  10  -2    1.53    0.89
   4  10  -2    3.06    1.36
   3  10  -2    2.34    0.91
   2  10  -2    2.12    0.86
  -2 -10   2    2.34    0.93
  -2 -10   2    1.67    0.91
   1  10  -2   12.22    1.85
   1  10  -2   11.20    1.47
  -1 -10   2   10.28    1.49
  -1 -10   2    9.64    1.37
   0  10  -2    2.26    0.74
   0  10  -2    3.85    0.87
   0 -10   2    4.05    1.02
  -1  10  -2    0.63    0.64
  -1  10  -2   -0.28    0.72
   1 -10   2    0.14    0.90
  -2  10  -2    0.89    0.62
   2 -10   2    0.94    0.87
  -3  10  -2    8.93    1.42
   3 -10   2    8.60    1.37
  -4  10  -2    4.48    1.18
   4 -10   2    4.63    1.15
  -5  10  -2   -0.43    1.05
   5 -10   2    1.04    0.97
  -6  10  -2    3.86    1.20
  -7  10  -2    2.26    1.10
   7 -10   2    4.20    1.24
  -8  10  -2   -0.55    1.12
  -9  10  -2    5.70    1.36
  -9  10  -2    7.58    1.44
 -10  10  -2    5.30    1.50
 -10  10  -2    5.26    1.30
 -11  10  -2   -0.02    1.20
 -11  10  -2    0.86    1.13
 -12  10  -2   -0.44    1.19
 -13  10  -2    0.61    1.27
 -14  10  -2    0.37    1.36
 -15  10  -2   -0.04    1.44
 -16  10  -2    0.32    1.71
  13   9  -2   -0.68    2.20
  12   9  -2    1.62    1.40
  12   9  -2   -0.74    1.98
  11   9  -2    1.18    1.18
  11   9  -2    3.18    1.88
  10   9  -2    3.22    1.80
  10   9  -2    1.71    1.22
   9   9  -2    1.48    1.55
   9   9  -2    1.24    1.07
   8   9  -2    0.24    1.39
   8   9  -2    0.07    0.96
   7   9  -2   -2.20    1.36
   7   9  -2    0.15    0.89
   6   9  -2   -0.41    0.86
   5   9  -2    6.09    1.15
   5   9  -2    9.78    1.56
   4   9  -2    9.50    1.48
   4   9  -2    5.62    1.06
   3   9  -2   -1.52    0.99
   3   9  -2   -0.91    0.63
   2   9  -2   -0.54    0.63
   2   9  -2    0.09    0.86
  -2  -9   2   -0.35    0.76
  -2  -9   2    0.05    0.74
   1   9  -2    2.17    0.81
   1   9  -2    1.54    0.68
  -1  -9   2    2.13    0.78
  -1  -9   2    2.42    0.86
   0   9  -2    2.12    0.66
   0   9  -2    1.42    0.62
   0  -9   2    2.12    0.83
   0  -9   2    1.20    0.84
  -1   9  -2    1.99    0.60
  -1   9  -2    3.70    0.74
   1  -9   2    3.27    0.86
  -2   9  -2   20.68    1.42
  -2   9  -2   19.93    1.39
   2  -9   2   18.56    1.39
  -3   9  -2   18.39    1.32
  -3   9  -2   17.78    1.41
   3  -9   2   17.49    1.40
  -4   9  -2    1.03    0.79
   4  -9   2    0.49    0.71
  -5   9  -2    8.62    1.32
   5  -9   2    6.93    1.11
   6  -9   2    5.57    0.99
  -7   9  -2    1.24    0.95
  -7   9  -2    0.57    1.04
  -8   9  -2    3.66    1.19
  -8   9  -2    4.93    1.27
  -9   9  -2    0.94    1.10
  -9   9  -2    0.36    1.05
 -10   9  -2   -0.07    1.08
 -10   9  -2    0.18    1.12
 -11   9  -2    1.30    1.15
 -12   9  -2    5.23    1.49
 -13   9  -2   -0.39    1.34
 -14   9  -2    0.32    1.38
 -15   9  -2    1.63    1.44
 -16   9  -2    0.94    1.53
  14   8  -2   -1.70    2.18
  13   8  -2    0.94    1.44
  13   8  -2   -2.42    2.02
  12   8  -2   -0.19    1.81
  12   8  -2   -0.18    1.19
  11   8  -2    4.01    1.77
  11   8  -2    1.03    1.08
  10   8  -2    2.67    1.63
  10   8  -2    1.72    1.05
   9   8  -2   -0.53    1.41
   9   8  -2    0.67    1.06
   8   8  -2    7.67    1.31
   7   8  -2    3.24    1.09
   7   8  -2    5.30    1.60
   6   8  -2    0.51    0.87
   6   8  -2   -0.13    1.18
   5   8  -2   12.49    1.80
   5   8  -2   11.26    1.95
   4   8  -2   13.16    1.62
   4   8  -2   12.76    1.51
   3   8  -2    0.26    0.56
   3   8  -2    1.56    0.91
  -3  -8   2    1.28    0.68
   2   8  -2    8.12    1.11
   2   8  -2    7.63    1.01
   2   8  -2    9.76    1.35
  -2  -8   2    7.23    0.87
   1   8  -2    2.20    0.68
   1   8  -2    0.92    0.56
  -1  -8   2    1.37    0.66
  -1  -8   2    1.37    0.73
   0   8  -2    4.52    0.75
   0  -8   2    4.70    0.80
   0  -8   2    5.02    0.79
  -1   8  -2    3.17    0.57
  -1   8  -2    4.67    0.73
   1  -8   2    4.20    0.78
   1  -8   2    3.76    0.81
  -2   8  -2   22.69    1.32
  -2   8  -2   21.80    1.38
   2  -8   2   20.89    1.29
  -3   8  -2    2.75    0.47
  -3   8  -2    4.53    0.82
   3  -8   2    2.33    0.75
  -4   8  -2    5.09    0.96
   4  -8   2    3.36    0.78
  -5   8  -2   26.68    1.67
   5  -8   2   29.37    1.53
  -6   8  -2    1.17    0.68
  -6   8  -2    1.09    0.68
  -7   8  -2   11.73    1.18
  -7   8  -2   12.58    1.29
  -8   8  -2   -0.88    0.87
  -8   8  -2    0.26    0.89
  -9   8  -2    2.51    1.10
  -9   8  -2    2.68    1.13
 -10   8  -2    3.54    1.21
 -11   8  -2    6.09    1.37
 -12   8  -2   -0.98    1.19
 -13   8  -2    0.56    1.40
 -14   8  -2    1.60    1.45
 -15   8  -2    2.72    1.69
 -16   8  -2    2.49    1.71
 -17   8  -2    2.55    1.94
  18  -8   2    1.48    1.96
  15   7  -2    1.31    1.46
  14   7  -2    2.87    1.52
  14   7  -2    0.11    2.06
  13   7  -2    1.85    1.87
  13   7  -2    0.73    1.30
  12   7  -2    1.09    1.70
  12   7  -2    1.79    1.12
 -12  -7   2    0.83    1.52
  11   7  -2    1.15    1.04
  11   7  -2    1.62    1.52
 -11  -7   2    1.74    1.31
 -10  -7   2    5.32    1.26
   9   7  -2   -0.45    1.41
   9   7  -2    0.47    1.00
   8   7  -2   -0.03    0.89
   8   7  -2   -0.19    1.30
   7   7  -2    0.88    0.94
   7   7  -2    1.18    1.27
   6   7  -2    2.90    0.85
   5   7  -2    0.57    0.61
   5   7  -2    0.17    0.95
   4   7  -2    0.05    0.50
   4   7  -2    0.63    0.93
   3   7  -2   16.42    1.13
   3   7  -2   19.62    1.43
   3   7  -2   17.87    1.37
   2   7  -2   10.07    1.10
   2   7  -2    8.46    0.97
   2   7  -2    9.66    1.09
  -2  -7   2    6.64    0.92
   1   7  -2   13.87    1.11
   1   7  -2   12.79    1.02
   1   7  -2   14.10    1.25
  -1  -7   2   13.74    1.11
   0   7  -2   90.07    3.09
   0   7  -2   87.38    3.07
   0  -7   2   90.68    2.90
   0  -7   2   81.61    2.82
  -1   7  -2    0.24    0.56
  -1   7  -2    0.38    0.42
   1  -7   2    0.75    0.58
   1  -7   2    1.24    0.58
  -2   7  -2    8.68    0.97
  -2   7  -2    8.49    1.01
   2  -7   2    8.17    0.99
  -3   7  -2    1.94    0.72
  -3   7  -2    1.54    0.37
   3  -7   2    2.91    0.62
   3  -7   2    2.03    0.41
  -4   7  -2    1.15    0.65
   4  -7   2    0.02    0.48
  -5   7  -2    6.90    1.02
  -5   7  -2    7.03    0.87
  -6   7  -2    1.16    0.63
  -6   7  -2   -0.20    0.57
  -7   7  -2   17.19    1.28
  -7   7  -2   17.26    1.30
  -8   7  -2    0.89    0.67
  -9   7  -2    2.84    1.10
 -10   7  -2    5.28    1.26
 -11   7  -2    7.88    1.49
 -12   7  -2    0.52    1.16
  12  -7   2    0.61    0.81
 -13   7  -2    3.12    1.49
  13  -7   2    1.73    0.94
 -14   7  -2    2.13    1.51
  14  -7   2    2.20    1.15
 -15   7  -2   -0.40    1.48
  15  -7   2    0.65    1.27
 -16   7  -2   -0.23    1.52
 -17   7  -2    2.50    1.87
  15   6  -2    2.19    1.48
  15   6  -2   -3.22    2.08
  14   6  -2   -3.68    1.88
  14   6  -2    0.21    1.20
  13   6  -2   -0.24    1.69
  13   6  -2    1.05    1.17
 -13  -6   2    0.69    1.69
  12   6  -2   -0.14    1.09
  12   6  -2    0.70    1.56
 -12  -6   2    0.32    1.39
  11   6  -2   -0.28    1.00
 -11  -6   2   -0.13    1.23
  10   6  -2    2.26    1.09
  10   6  -2    2.88    1.48
 -10  -6   2    3.78    1.15
   9   6  -2    0.60    0.90
   9   6  -2    0.28    1.31
  -9  -6   2    0.40    0.97
   8   6  -2    1.52    1.24
   8   6  -2    1.54    1.29
   8   6  -2    1.12    0.95
  -8  -6   2    1.35    0.86
   7   6  -2    0.64    1.01
   7   6  -2    0.69    1.05
   7   6  -2    0.52    0.80
  -7  -6   2    0.76    0.76
   6   6  -2    9.06    1.29
   6   6  -2    7.89    0.99
  -6  -6   2    8.35    0.90
   5   6  -2   11.77    1.17
   5   6  -2   11.84    1.48
   5   6  -2   16.16    1.43
  -5  -6   2   11.44    1.03
   4   6  -2   -0.53    0.41
   4   6  -2    0.49    0.67
  -4  -6   2    0.14    0.56
   3   6  -2   11.43    0.99
   3   6  -2   14.15    1.18
   3   6  -2   12.12    1.22
  -3  -6   2   12.96    0.90
   2   6  -2    0.74    0.58
   2   6  -2    0.58    0.42
   2   6  -2    1.21    0.55
  -2  -6   2    0.90    0.52
   1   6  -2    0.59    0.53
   1   6  -2    0.25    0.38
   1   6  -2    1.25    0.49
  -1  -6   2    0.93    0.55
   0   6  -2   38.48    1.63
   0   6  -2   35.60    1.58
   0   6  -2   38.18    1.48
   0  -6   2   37.65    1.53
  -1   6  -2   14.55    1.06
  -1   6  -2   13.64    0.98
   1  -6   2   14.93    0.95
   1  -6   2   14.35    0.96
  -2   6  -2    6.28    0.76
  -2   6  -2    6.57    0.90
   2  -6   2    6.49    0.77
   2  -6   2    5.68    0.79
   2  -6   2    4.69    0.74
  -3   6  -2    0.74    0.52
   3  -6   2    0.14    0.44
  -4   6  -2    0.39    0.57
  -4   6  -2    0.91    0.49
  -5   6  -2    1.52    0.58
  -5   6  -2    1.44    0.61
  -6   6  -2   16.02    1.21
  -6   6  -2   16.43    1.17
  -7   6  -2   20.33    1.40
  -7   6  -2   19.11    1.29
  -8   6  -2    2.90    0.85
  -9   6  -2    5.91    1.22
 -10   6  -2    3.48    1.11
 -11   6  -2    0.68    1.11
 -12   6  -2    6.69    1.49
 -13   6  -2    3.87    1.40
  13  -6   2    2.74    1.05
 -14   6  -2    0.69    1.33
  14  -6   2   -0.63    1.08
 -15   6  -2    0.96    1.54
 -16   6  -2   -0.98    1.58
  16  -6   2    0.41    1.21
 -17   6  -2    2.10    1.84
  17  -6   2    1.49    1.49
  15   5  -2    2.49    1.46
  15   5  -2    1.80    2.06
 -15  -5   2    2.53    1.90
  14   5  -2   -0.78    1.28
  14   5  -2    4.48    1.95
 -14  -5   2    0.95    1.57
  13   5  -2   -0.19    0.99
  13   5  -2    3.22    1.75
  12   5  -2   -0.92    1.02
 -12  -5   2   -0.05    1.31
  11   5  -2   -1.89    1.50
  11   5  -2    0.80    0.92
 -11  -5   2    1.24    1.15
  10   5  -2    6.71    1.68
 -10  -5   2    8.03    1.27
   9   5  -2    0.70    0.93
   9   5  -2    0.44    1.35
  -9  -5   2    0.46    0.90
   8   5  -2   -1.14    1.16
   8   5  -2    0.15    0.72
  -8  -5   2   -0.54    0.75
   7   5  -2   13.22    1.40
   7   5  -2   11.49    1.44
  -7  -5   2   12.25    1.18
   6   5  -2    1.05    0.60
   6   5  -2    1.66    0.74
   6   5  -2    2.97    0.93
  -6  -5   2    1.21    0.67
   5   5  -2    5.96    0.97
   5   5  -2    4.30    0.71
  -5  -5   2    6.35    0.86
   4   5  -2   58.55    2.08
   4   5  -2   64.08    2.55
  -4  -5   2   58.66    2.34
  -4  -5   2   63.57    2.06
   3   5  -2   28.13    1.33
   3   5  -2   25.87    1.20
   3   5  -2   27.67    1.53
  -3  -5   2   26.45    1.16
   2   5  -2    0.22    0.47
   2   5  -2   -0.57    0.34
   2   5  -2   -0.58    0.48
  -2  -5   2    0.43    0.47
  -2  -5   2    0.07    0.41
   1   5  -2   66.17    2.26
   1   5  -2   68.28    2.33
   1   5  -2   60.96    2.08
  -1  -5   2   63.43    2.22
  -1  -5   2   62.52    2.11
   0   5  -2   12.77    0.76
   0   5  -2   11.99    0.92
   0   5  -2   13.24    0.89
   0  -5   2   12.01    0.79
   0  -5   2   12.81    0.86
   0  -5   2   13.98    0.84
  -1   5  -2   21.43    1.06
  -1   5  -2   22.16    1.20
   1  -5   2   21.43    1.05
   1  -5   2   23.43    1.03
   1  -5   2   23.66    1.06
   1  -5   2   21.47    1.08
  -2   5  -2    7.09    0.83
  -2   5  -2    6.58    0.64
   2  -5   2    6.19    0.76
   2  -5   2    5.95    0.63
   2  -5   2    6.11    0.64
   2  -5   2    6.61    0.74
  -3   5  -2   73.59    2.60
   3  -5   2   71.70    2.42
   3  -5   2   73.88    2.50
  -4   5  -2    2.31    0.65
  -4   5  -2    2.75    0.60
  -5   5  -2    2.53    0.58
  -5   5  -2    3.58    0.73
  -6   5  -2   22.99    1.40
  -6   5  -2   23.25    1.34
  -7   5  -2   17.06    1.22
  -8   5  -2    0.32    0.59
 -10   5  -2    2.13    1.04
 -11   5  -2    1.17    1.03
 -12   5  -2    4.14    1.28
 -13   5  -2    4.86    1.35
 -14   5  -2    1.28    1.37
 -15   5  -2    2.92    1.63
  15  -5   2    4.46    1.25
 -16   5  -2    1.43    1.69
  16  -5   2    1.61    1.33
 -17   5  -2   -0.35    1.72
  17  -5   2   -1.32    1.45
  18  -5   2   -0.01    1.71
  16   4  -2    1.77    2.17
  16   4  -2    2.12    1.45
 -16  -4   2    3.96    2.12
  15   4  -2   -0.41    1.20
  15   4  -2   -0.54    1.88
 -15  -4   2   -1.22    1.72
  14   4  -2    0.58    1.20
  14   4  -2    3.73    1.68
 -14  -4   2    2.82    1.54
  13   4  -2    0.76    1.12
 -13  -4   2    0.85    1.27
  12   4  -2   -0.81    1.02
  12   4  -2    0.38    1.54
 -12  -4   2   -0.05    1.23
  11   4  -2    3.07    1.45
  11   4  -2    1.44    0.97
 -11  -4   2    3.69    1.24
  10   4  -2    5.32    1.44
  10   4  -2    2.30    0.94
 -10  -4   2    4.44    1.12
   9   4  -2    0.01    1.18
   9   4  -2    0.21    0.86
  -9  -4   2   -0.01    0.85
   8   4  -2    3.92    0.90
   8   4  -2    5.23    1.15
  -8  -4   2    5.03    0.91
   7   4  -2   14.48    1.45
   7   4  -2   13.34    1.32
  -7  -4   2   15.08    1.17
   6   4  -2    0.56    0.49
   6   4  -2    0.06    0.64
   6   4  -2    1.23    0.88
  -6  -4   2    0.62    0.59
   5   4  -2    1.71    0.60
   5   4  -2    1.24    0.53
  -5  -4   2    1.85    0.57
  -5  -4   2    1.67    0.67
   4   4  -2   14.44    1.26
   4   4  -2   15.52    0.91
   4   4  -2   14.86    1.03
  -4  -4   2   16.25    0.93
  -4  -4   2   15.06    1.05
   3   4  -2    5.70    0.97
   3   4  -2    4.81    0.67
  -3  -4   2    5.21    0.85
  -3  -4   2    6.78    0.68
   2   4  -2   40.46    1.69
   2   4  -2   39.23    1.40
   2   4  -2   42.09    1.53
  -2  -4   2   36.93    1.35
  -2  -4   2   37.11    1.46
   1   4  -2    0.20    0.39
   1   4  -2   -0.11    0.33
  -1  -4   2   -0.01    0.23
  -1  -4   2    0.22    0.41
   0   4  -2   75.91    2.36
   0   4  -2   74.01    2.51
   0   4  -2   77.14    2.48
   0  -4   2   71.40    2.46
   0  -4   2   77.49    2.41
   0  -4   2   77.88    2.47
  -1   4  -2    0.17    0.47
  -1   4  -2    0.65    0.35
  -1   4  -2    0.24    0.27
   1  -4   2    0.75    0.44
   1  -4   2    0.58    0.27
   1  -4   2    0.26    0.46
  -2   4  -2    8.60    0.63
  -2   4  -2    7.06    0.85
   2  -4   2    7.29    0.82
   2  -4   2    7.60    0.82
   2  -4   2    7.04    0.66
   2  -4   2    8.73    0.60
  -3   4  -2    0.15    0.48
   3  -4   2    0.12    0.35
   3  -4   2    0.97    0.46
  -4   4  -2    2.77    0.63
  -4   4  -2    2.30    0.61
   4  -4   2    2.95    0.58
   4  -4   2    2.61    0.55
  -5   4  -2   19.56    1.19
  -5   4  -2   19.51    1.17
  -6   4  -2   34.75    1.62
  -7   4  -2    1.29    0.53
  -8   4  -2    2.18    0.62
  -9   4  -2    8.54    1.11
 -10   4  -2    3.04    1.00
 -11   4  -2    5.86    1.34
 -12   4  -2    1.31    1.12
 -13   4  -2    0.18    1.22
 -14   4  -2    2.69    1.44
  14  -4   2    0.76    1.02
 -15   4  -2    3.74    1.67
  15  -4   2    1.60    1.18
 -16   4  -2    1.49    1.71
  16  -4   2    3.99    1.40
 -17   4  -2    1.29    1.83
  17  -4   2    1.13    1.51
  18  -4   2   -2.37    1.71
  17   3  -2    1.57    1.57
 -17  -3   2    0.87    2.20
  16   3  -2    0.08    1.48
  16   3  -2   -1.52    2.04
 -16  -3   2    0.18    1.89
  15   3  -2   -0.17    1.62
  15   3  -2    0.95    1.37
 -15  -3   2    1.76    1.65
  14   3  -2    1.49    1.50
  14   3  -2   -0.16    1.17
 -14  -3   2    0.91    1.39
  13   3  -2    1.71    1.49
  13   3  -2    1.90    1.17
 -13  -3   2    2.18    1.26
  12   3  -2    2.10    1.00
  12   3  -2    3.89    1.51
 -12  -3   2    5.33    1.44
  11   3  -2   14.26    2.26
  11   3  -2   12.70    2.00
 -11  -3   2   17.80    1.88
  10   3  -2    8.96    1.34
  10   3  -2    6.77    1.17
 -10  -3   2    9.60    1.58
   9   3  -2    3.45    1.09
   9   3  -2    2.06    0.87
  -9  -3   2    2.83    0.90
   8   3  -2   20.74    1.58
   8   3  -2   22.66    1.56
  -8  -3   2   19.89    1.42
   7   3  -2    0.70    0.72
   7   3  -2    0.34    0.78
  -7  -3   2   -0.38    0.60
   6   3  -2    2.50    0.65
   6   3  -2    1.44    0.53
   6   3  -2    2.44    0.64
  -6  -3   2    1.99    0.60
   5   3  -2    5.38    0.90
   5   3  -2    4.92    0.77
   5   3  -2    3.71    0.63
  -5  -3   2    4.63    0.75
   4   3  -2   18.23    0.93
   4   3  -2   18.88    1.01
   4   3  -2   18.42    1.30
  -4  -3   2   18.54    1.01
  -4  -3   2   18.15    0.95
   3   3  -2    1.34    0.51
   3   3  -2    1.85    0.46
   3   3  -2    3.25    0.43
  -3  -3   2    2.63    0.50
  -3  -3   2    2.89    0.44
   2   3  -2  180.74    5.77
   2   3  -2  199.74    5.45
   2   3  -2  190.54    5.63
  -2  -3   2  196.29    5.63
  -2  -3   2  184.35    5.75
  -2  -3   2  195.65    5.44
   1   3  -2  481.03   14.32
   1   3  -2  507.16   14.35
   1   3  -2  503.41   13.86
  -1  -3   2  503.22   14.34
  -1  -3   2  486.94   14.30
  -1  -3   2  515.80   13.87
   0   3  -2   -0.78    0.39
   0   3  -2    0.63    0.37
   0   3  -2    0.46    0.28
   0  -3   2    0.96    0.43
   0  -3   2    0.11    0.25
   0  -3   2   -0.26    0.36
  -1   3  -2   29.58    1.15
  -1   3  -2   26.89    1.19
  -1   3  -2   30.35    1.09
   1  -3   2   27.61    1.19
   1  -3   2   29.39    1.06
   1  -3   2   29.00    1.17
  -2   3  -2   13.47    0.92
   2  -3   2   14.33    0.92
   2  -3   2   13.46    0.96
   2  -3   2   13.08    0.81
   2  -3   2   15.31    0.73
  -3   3  -2    0.28    0.39
  -3   3  -2   -0.27    0.44
   3  -3   2   -0.11    0.39
   3  -3   2    0.08    0.39
  -4   3  -2    4.26    0.67
   4  -3   2    4.45    0.62
   4  -3   2    3.80    0.57
  -5   3  -2   21.20    1.15
  -6   3  -2   11.77    0.94
  -7   3  -2   20.92    1.24
  -8   3  -2    0.09    0.60
  -9   3  -2    1.95    0.67
 -11   3  -2    1.52    1.08
 -12   3  -2    3.81    1.26
 -13   3  -2    1.51    1.19
 -14   3  -2    1.63    1.43
  14  -3   2    1.11    1.12
 -15   3  -2    0.03    1.59
  15  -3   2   -0.08    1.20
 -16   3  -2   -0.43    1.66
  16  -3   2    1.79    1.42
 -17   3  -2    1.49    1.85
  17  -3   2    0.68    1.61
  18  -3   2    0.73    1.73
  18  -3   2    0.19    2.04
  18  -3   2    6.83    2.61
  17   2  -2    2.38    1.52
 -17  -2   2    2.75    2.05
  16   2  -2    3.42    1.50
  16   2  -2   -0.25    1.95
 -16  -2   2    0.42    1.81
  15   2  -2   -0.95    1.73
  15   2  -2    0.63    1.27
 -15  -2   2    2.11    1.59
  14   2  -2   -0.35    1.10
 -14  -2   2    0.85    1.41
  13   2  -2    2.46    1.51
  13   2  -2    0.17    1.04
 -13  -2   2    0.36    1.14
  12   2  -2   -0.39    0.86
  12   2  -2    0.15    1.25
  11   2  -2    1.23    1.15
  11   2  -2    1.43    1.00
 -11  -2   2    2.78    1.17
  10   2  -2    3.93    1.15
  10   2  -2    2.15    0.95
 -10  -2   2    3.82    1.04
   9   2  -2   31.66    1.85
   9   2  -2   37.26    2.02
  -9  -2   2   33.21    1.80
   8   2  -2    9.64    1.15
   8   2  -2   11.23    1.19
  -8  -2   2    8.22    1.16
   7   2  -2    0.61    0.42
   7   2  -2    1.73    0.64
  -7  -2   2    0.96    0.63
   6   2  -2    0.96    0.59
   6   2  -2    0.22    0.51
   6   2  -2   -0.39    0.34
  -6  -2   2   -0.14    0.50
   5   2  -2    3.40    0.51
   5   2  -2    3.09    0.55
  -5  -2   2    3.05    0.51
   4   2  -2    7.65    1.02
   4   2  -2    8.11    0.66
   4   2  -2    7.88    0.63
  -4  -2   2    7.73    0.69
   3   2  -2   12.09    0.75
   3   2  -2    9.17    1.05
   3   2  -2   11.01    0.68
  -3  -2   2   12.14    0.75
  -3  -2   2   12.27    0.67
   2   2  -2   87.94    2.91
   2   2  -2   86.28    2.71
   2   2  -2   94.19    2.68
  -2  -2   2   88.64    2.70
  -2  -2   2   89.50    2.90
  -2  -2   2   94.63    2.69
   1   2  -2   44.28    1.49
   1   2  -2   48.38    1.49
   1   2  -2   46.99    1.62
  -1  -2   2   45.42    1.49
  -1  -2   2   48.46    1.61
  -1  -2   2   47.46    1.51
   0   2  -2   10.95    0.61
   0   2  -2   10.70    0.57
   0   2  -2   10.57    0.58
   0  -2   2   10.64    0.63
   0  -2   2   11.05    0.56
   0  -2   2   11.59    0.56
  -1   2  -2   36.07    1.32
  -1   2  -2   37.11    1.32
   1  -2   2   34.51    1.29
   1  -2   2   36.14    1.30
   1  -2   2   42.14    1.24
   2  -2   2    4.72    0.67
   2  -2   2    6.41    0.66
   2  -2   2    7.05    0.59
  -3   2  -2   14.38    0.87
   3  -2   2   15.71    0.93
   3  -2   2   14.92    0.86
  -4   2  -2   17.63    0.98
   4  -2   2   17.39    0.93
   4  -2   2   16.90    0.86
  -5   2  -2    4.48    0.69
   5  -2   2    5.07    0.61
  -6   2  -2    9.24    0.87
  -7   2  -2   34.94    1.60
  -8   2  -2    0.81    0.66
  -9   2  -2    4.44    0.92
 -10   2  -2    0.34    0.91
 -11   2  -2    1.20    1.10
 -12   2  -2   -0.07    1.05
 -13   2  -2    4.06    1.38
 -14   2  -2    4.77    1.57
 -15   2  -2   -0.19    1.51
  15  -2   2   -0.45    1.24
 -16   2  -2    1.12    1.78
  16  -2   2    7.48    2.23
  16  -2   2    1.46    1.34
  17  -2   2    1.14    2.28
  17  -2   2    1.76    1.67
 -18  -1   2    2.45    2.31
  17   1  -2    1.23    1.56
 -17  -1   2   -0.49    1.94
  16   1  -2   -0.58    1.90
  16   1  -2    3.68    1.35
 -16  -1   2    2.44    1.78
  15   1  -2    2.02    1.68
  15   1  -2    2.60    1.20
 -15  -1   2    3.23    1.56
  14   1  -2    0.11    1.05
 -14  -1   2    1.11    1.35
  13   1  -2    1.09    0.99
  13   1  -2    0.12    1.34
 -13  -1   2   -0.09    1.15
  12   1  -2    2.08    0.98
  12   1  -2    2.04    1.29
 -12  -1   2    1.27    1.10
  11   1  -2    3.63    1.19
  11   1  -2    3.87    1.00
 -11  -1   2    7.53    1.28
  10   1  -2    7.13    1.21
  10   1  -2    4.23    0.91
 -10  -1   2    6.28    1.13
   9   1  -2    2.96    0.72
   9   1  -2    3.44    0.97
  -9  -1   2    2.78    0.88
   8   1  -2    3.73    0.63
   8   1  -2    6.23    0.92
  -8  -1   2    3.67    0.79
   7   1  -2    3.35    0.54
   7   1  -2    6.39    0.81
  -7  -1   2    5.35    0.75
   6   1  -2    0.09    0.32
   6   1  -2    0.80    0.46
   6   1  -2    0.12    0.52
  -6  -1   2    0.49    0.47
   5   1  -2    4.12    0.64
   5   1  -2    4.55    0.64
  -5  -1   2    3.65    0.56
   4   1  -2   21.47    0.89
   4   1  -2   20.95    1.21
   4   1  -2   21.50    0.95
  -4  -1   2   20.33    0.96
   3   1  -2    3.09    0.44
   3   1  -2    1.83    0.38
  -3  -1   2    3.06    0.47
  -3  -1   2    1.67    0.34
   2   1  -2    4.91    0.44
   2   1  -2    4.73    0.58
  -2  -1   2    5.63    0.51
  -2  -1   2    5.28    0.60
  -1   1  -2   32.57    1.11
   2  -1   2  115.97    3.44
   2  -1   2  117.61    3.42
  -3   1  -2   39.49    1.43
   3  -1   2   37.71    1.37
  -4   1  -2    6.76    0.67
   4  -1   2    6.59    0.58
  -5   1  -2    9.29    0.77
   5  -1   2    8.22    0.70
  -6   1  -2    1.72    0.55
  -7   1  -2   19.64    1.24
  -8   1  -2    4.79    0.86
  -9   1  -2    2.56    0.90
 -10   1  -2    0.92    0.95
 -12   1  -2    0.59    1.13
 -13   1  -2   11.37    1.69
 -14   1  -2    2.95    1.49
  14  -1   2    3.51    1.79
 -15   1  -2    3.35    1.70
  15  -1   2    0.45    1.24
  15  -1   2    4.99    1.94
 -16   1  -2    2.65    1.85
  16  -1   2    1.96    1.40
  16  -1   2   -0.71    2.03
  17  -1   2    4.69    2.28
  17  -1   2    2.83    1.70
  18   0  -2   -0.22    1.59
 -18   0   2    2.90    2.14
  17   0  -2    0.92    1.53
  17   0  -2    1.06    2.05
 -17   0   2    1.53    1.93
  16   0  -2    1.07    1.29
  16   0  -2    0.06    1.79
 -16   0   2    0.83    1.77
  15   0  -2   -0.23    1.54
  15   0  -2    1.17    1.16
 -15   0   2    0.04    1.41
  14   0  -2    0.30    1.01
  14   0  -2    0.46    1.51
 -14   0   2   -0.31    1.24
  13   0  -2    2.41    1.01
  13   0  -2    4.00    1.51
 -13   0   2    3.54    1.21
  12   0  -2   -0.68    1.28
  12   0  -2    0.61    0.89
 -12   0   2   -1.30    1.04
 -11   0   2    2.31    0.99
  10   0  -2    5.20    0.89
 -10   0   2    6.90    1.11
   9   0  -2    1.08    0.60
  -9   0   2    2.02    0.79
   8   0  -2    4.14    0.65
  -8   0   2    4.82    0.76
   7   0  -2    1.61    0.42
  -7   0   2    2.91    0.58
   6   0  -2    2.86    0.46
   6   0  -2    2.07    0.43
  -6   0   2    2.94    0.55
   5   0  -2    8.70    0.87
   5   0  -2   10.81    0.68
  -5   0   2    9.64    0.75
   4   0  -2   15.57    0.81
   4   0  -2   16.54    0.99
  -4   0   2   14.83    0.87
   3   0  -2  339.36    9.78
   3   0  -2  330.53    9.49
  -3   0   2  346.77    9.78
   2   0  -2   41.92    1.37
   2   0  -2   42.80    1.41
  -2   0   2   43.57    1.40
  -2   0   2   40.94    1.37
  -1   0  -2   68.45    2.05
   2   0   2   16.76    0.69
   2   0   2   16.20    0.73
  -3   0  -2    3.22    0.52
   3   0   2    3.00    0.41
  -4   0  -2    3.71    0.57
   4   0   2    4.17    0.53
  -5   0  -2   23.78    1.12
   5   0   2   23.17    1.11
  -6   0  -2    2.50    0.61
   6   0   2    3.29    0.64
  -7   0  -2    1.55    0.65
  -8   0  -2   10.89    1.17
  -9   0  -2    0.92    0.84
 -10   0  -2   11.10    1.52
 -11   0  -2    0.59    1.04
 -12   0  -2    8.77    1.42
  12   0   2   11.94    1.77
 -13   0  -2    2.43    1.27
  13   0   2    0.66    1.44
 -14   0  -2    1.37    1.42
  14   0   2    2.37    1.70
  14   0   2    0.74    1.13
 -15   0  -2    2.20    1.66
  15   0   2   -0.62    1.24
  15   0   2    4.44    1.84
  16   0   2   -0.53    1.29
  16   0   2   -0.28    2.09
  17   0   2    1.69    1.78
  17   0   2    3.10    2.04
  17   0   2    1.94    2.41
  18  -1  -2    0.97    2.29
  18  -1  -2   -0.02    1.60
 -18   1   2    2.76    2.11
  17  -1  -2   -0.07    1.41
  17  -1  -2    3.42    2.05
 -17   1   2    1.15    1.86
  16  -1  -2    1.66    1.20
  16  -1  -2    0.96    1.80
 -16   1   2    0.61    1.53
  15  -1  -2    2.96    1.63
  15  -1  -2    2.75    1.18
 -15   1   2    0.84    1.42
  14  -1  -2    2.63    1.07
 -14   1   2    5.58    1.47
  13  -1  -2    0.74    0.91
 -13   1   2    1.61    1.16
  12  -1  -2    1.86    0.89
 -12   1   2    0.99    1.10
  11  -1  -2    1.13    0.81
  10  -1  -2    1.17    0.72
 -10   1   2    1.66    0.80
   9  -1  -2    0.56    0.59
  -9   1   2   -0.13    0.58
   8  -1  -2    1.61    0.74
   8  -1  -2    1.19    0.51
  -8   1   2    1.56    0.56
   7  -1  -2   -0.05    0.55
   7  -1  -2   -0.03    0.39
  -7   1   2   -0.10    0.43
   6  -1  -2   15.26    1.01
   6  -1  -2   16.94    0.93
  -6   1   2   13.89    0.93
   5  -1  -2    8.29    0.65
   5  -1  -2    6.74    0.74
   5  -1  -2    8.68    0.66
  -5   1   2    9.19    0.79
   4  -1  -2    1.18    0.36
   4  -1  -2    0.77    0.32
   4  -1  -2    0.41    0.41
  -4   1   2    0.55    0.26
  -4   1   2    1.30    0.35
  -4   1   2    0.77    0.45
   3  -1  -2   28.99    1.01
   3  -1  -2   29.18    1.09
   3  -1  -2   29.42    1.14
  -3   1   2   29.86    1.10
  -3   1   2   28.02    1.15
  -3   1   2   28.72    1.02
   2  -1  -2    1.00    0.24
   2  -1  -2    0.73    0.29
   2  -1  -2    0.49    0.17
  -2   1   2    0.49    0.30
  -2   1   2    0.41    0.25
  -2   1   2    0.64    0.15
  -1  -1  -2   55.11    1.87
  -1  -1  -2   58.99    1.68
   1   1   2   58.09    1.67
   1   1   2   53.86    1.87
   2   1   2   58.78    2.05
   2   1   2   59.27    1.78
   2   1   2   55.73    1.74
  -3  -1  -2    4.52    0.50
   3   1   2    4.87    0.50
   3   1   2    4.50    0.68
  -4  -1  -2    0.98    0.38
   4   1   2    0.64    0.53
   4   1   2    0.86    0.38
  -5  -1  -2    0.02    0.40
   5   1   2    0.45    0.44
  -6  -1  -2    2.96    0.63
   6   1   2    3.59    0.65
  -7  -1  -2   -0.29    0.58
   7   1   2   -0.11    0.70
  -8  -1  -2    0.59    0.71
   8   1   2   -1.76    0.82
  -9  -1  -2    0.10    0.80
   9   1   2   -0.09    1.12
 -10  -1  -2    0.08    0.95
  10   1   2   -0.47    1.17
 -11  -1  -2    3.04    1.17
  11   1   2    2.37    1.37
 -12  -1  -2    4.14    1.30
  12   1   2    6.78    1.51
 -13  -1  -2   -0.35    1.24
  13   1   2    3.28    1.61
 -14  -1  -2   -0.04    1.42
  14   1   2   -0.69    1.66
  14   1   2    0.17    1.17
  15   1   2   -1.74    1.91
  15   1   2   -0.78    1.33
  16   1   2    0.80    1.43
  16   1   2    0.75    1.81
  16   1   2    0.17    2.15
  17   1   2    0.18    2.50
  17   1   2    1.36    1.70
  17   1   2   -0.52    2.14
  18  -2  -2    2.23    2.22
  18  -2  -2   -0.07    1.62
 -18   2   2    2.19    1.98
  17  -2  -2    1.57    1.99
  17  -2  -2   -1.16    1.34
 -17   2   2   -0.53    1.70
  16  -2  -2   -0.74    1.10
 -16   2   2   -0.19    1.60
  15  -2  -2    7.06    1.30
 -15   2   2    7.59    1.64
  14  -2  -2    6.21    1.15
 -14   2   2    6.80    1.58
  13  -2  -2    3.45    0.99
 -13   2   2    4.02    1.25
  12  -2  -2    2.06    0.93
 -12   2   2    1.18    1.14
  11  -2  -2    5.01    0.92
 -11   2   2    6.13    1.18
  10  -2  -2    0.72    0.64
 -10   2   2    0.93    0.64
   9  -2  -2    4.25    0.69
  -9   2   2    6.58    0.95
   8  -2  -2   41.97    1.85
   8  -2  -2   41.13    1.86
  -8   2   2   40.60    1.76
   7  -2  -2    9.20    0.98
   7  -2  -2   11.09    1.03
  -7   2   2   11.44    0.92
   6  -2  -2   31.73    1.37
   6  -2  -2   32.00    1.38
  -6   2   2   32.65    1.43
   5  -2  -2    1.06    0.29
   5  -2  -2    1.63    0.44
   5  -2  -2    1.38    0.44
  -5   2   2    1.03    0.49
  -5   2   2    0.92    0.41
   4  -2  -2    1.68    0.40
   4  -2  -2    0.92    0.44
   4  -2  -2    1.12    0.28
  -4   2   2    1.42    0.41
  -4   2   2    1.37    0.27
  -4   2   2    1.86    0.49
   3  -2  -2   28.52    1.05
   3  -2  -2   29.34    1.14
   3  -2  -2   30.73    1.20
  -3   2   2   29.20    1.21
  -3   2   2   29.42    1.17
  -3   2   2   31.40    1.05
   2  -2  -2    0.76    0.33
   2  -2  -2    0.73    0.30
  -2   2   2    0.55    0.33
  -2   2   2    0.77    0.42
   1  -2  -2   13.90    0.73
   1  -2  -2   13.84    0.60
  -1   2   2   13.55    0.79
  -1   2   2   12.85    0.60
   0  -2  -2    0.62    0.39
   0  -2  -2    0.05    0.21
   0   2   2    0.42    0.20
   0   2   2    0.49    0.50
  -1  -2  -2    0.07    0.42
   1   2   2    0.22    0.49
  -2  -2  -2   29.46    1.28
   2   2   2   30.58    1.35
   3   2   2    5.49    0.47
   3   2   2    5.79    0.76
   3   2   2    5.36    0.50
  -4  -2  -2   10.88    0.69
   4   2   2   10.93    0.68
   4   2   2   10.51    0.88
  -5  -2  -2    0.91    0.45
   5   2   2    1.13    0.54
   5   2   2    0.63    0.47
  -6  -2  -2    6.86    0.81
   6   2   2    6.10    0.92
   6   2   2    7.05    0.92
  -7  -2  -2   10.90    1.05
   7   2   2   10.38    1.18
   7   2   2   10.54    1.25
  -8  -2  -2    8.40    1.01
   8   2   2    9.56    1.29
  -9  -2  -2    6.41    1.05
   9   2   2    5.62    1.32
 -10  -2  -2    3.33    1.07
 -11  -2  -2   -0.15    1.05
  11   2   2   -1.13    1.19
 -12  -2  -2    1.63    1.33
  12   2   2   -0.15    1.36
 -13  -2  -2    0.04    1.24
  13   2   2    0.58    1.61
  14   2   2   -0.12    1.10
  14   2   2    0.84    1.76
  15   2   2    0.02    1.36
  15   2   2    0.16    1.59
  15   2   2   -2.08    1.93
  16   2   2   -3.03    2.30
  16   2   2    1.40    1.94
  16   2   2    3.00    1.43
  18  -3  -2   -0.41    1.52
 -18   3   2    0.61    2.00
  17  -3  -2   -0.63    1.33
 -17   3   2    0.79    1.80
  16  -3  -2   -0.51    1.16
 -16   3   2    0.93    1.39
  15  -3  -2    1.04    1.03
 -15   3   2    3.37    1.49
  14  -3  -2    1.19    0.90
 -14   3   2    0.15    1.27
  13  -3  -2    2.34    1.00
 -13   3   2    2.34    1.18
  12  -3  -2    1.45    0.86
 -12   3   2    2.18    1.06
  11  -3  -2   -0.25    0.69
 -11   3   2   -1.04    0.84
  10  -3  -2    5.24    0.79
 -10   3   2    6.54    1.06
   9  -3  -2    3.19    0.61
  -9   3   2    3.65    0.76
   8  -3  -2    0.85    0.45
  -8   3   2    1.62    0.61
   7  -3  -2   23.99    1.36
   7  -3  -2   23.46    1.21
  -7   3   2   23.38    1.30
  -7   3   2   22.45    1.28
   6  -3  -2   33.64    1.33
   6  -3  -2   33.57    1.45
  -6   3   2   32.01    1.48
  -6   3   2   32.66    1.40
   5  -3  -2    0.31    0.39
  -5   3   2    0.14    0.43
  -5   3   2    0.09    0.48
   4  -3  -2   24.62    1.10
   4  -3  -2   24.55    1.05
  -4   3   2   23.38    1.09
  -4   3   2   23.31    1.14
   3  -3  -2  125.04    3.96
   3  -3  -2  132.85    3.88
  -3   3   2  127.96    3.87
  -3   3   2  131.62    3.99
   2  -3  -2   26.38    1.24
   2  -3  -2   26.12    1.04
  -2   3   2   26.46    1.31
  -2   3   2   25.44    1.04
   1  -3  -2    6.44    0.79
   1  -3  -2    4.83    0.53
  -1   3   2    6.07    1.02
  -1   3   2    5.52    0.49
   0  -3  -2    9.55    0.89
   0  -3  -2    6.47    0.48
   0   3   2    9.08    1.06
  -1  -3  -2   37.17    1.50
  -2  -3  -2    0.32    0.35
   2   3   2    0.90    0.59
  -3  -3  -2    0.80    0.41
   3   3   2    0.82    0.50
   4   3   2    7.70    0.83
  -5  -3  -2    0.61    0.44
   5   3   2    1.95    0.61
   5   3   2    1.17    0.48
  -6  -3  -2    1.42    0.55
   6   3   2    1.54    0.59
   6   3   2    1.88    0.69
  -7  -3  -2    0.00    0.59
   7   3   2   -0.76    0.71
   7   3   2   -0.70    0.72
  -8  -3  -2    4.78    0.91
   8   3   2    4.72    1.17
  -9  -3  -2   14.15    1.43
   9   3   2   14.32    1.92
 -10  -3  -2    2.36    1.10
  10   3   2    4.51    1.33
 -11  -3  -2   -0.16    1.12
  11   3   2   -1.21    1.25
 -12  -3  -2   -0.79    1.24
  12   3   2   -1.68    1.42
  13   3   2   -0.63    1.71
  14   3   2    0.12    1.30
  14   3   2    2.52    1.48
  14   3   2   -3.21    1.84
  15   3   2   -1.29    1.71
  15   3   2   -1.65    2.12
  15   3   2   -0.20    1.32
  16   3   2    1.47    1.54
  16   3   2   -4.43    2.25
  18  -4  -2   -1.10    1.47
 -18   4   2   -0.84    1.89
  17  -4  -2    0.58    1.33
 -17   4   2   -0.06    1.72
  16  -4  -2   -0.51    1.15
 -16   4   2    0.06    1.53
  15  -4  -2   -1.43    1.00
 -15   4   2    1.18    1.36
  14  -4  -2    0.69    1.02
 -14   4   2    0.33    1.19
  13  -4  -2    0.10    0.83
 -13   4   2   -0.28    1.03
  12  -4  -2    5.27    0.92
 -12   4   2    4.85    1.24
  11  -4  -2    0.48    0.69
 -11   4   2   -0.19    0.87
  10  -4  -2   20.13    1.55
   9  -4  -2    9.27    1.15
  -9   4   2    8.16    1.05
   8  -4  -2    1.09    0.42
  -8   4   2    0.81    0.68
  -8   4   2    0.69    0.55
  -7   4   2   19.89    1.27
  -7   4   2   18.65    1.20
   6  -4  -2   20.92    1.17
  -6   4   2   19.00    1.17
  -6   4   2   20.27    1.22
   5  -4  -2    0.21    0.43
  -5   4   2   -0.16    0.45
  -5   4   2    0.41    0.42
   4  -4  -2    1.72    0.39
   4  -4  -2    1.16    0.39
  -4   4   2    1.09    0.46
  -4   4   2    1.39    0.48
   3  -4  -2   10.39    0.76
   3  -4  -2    9.82    0.70
  -3   4   2   10.83    0.74
  -3   4   2    8.83    0.90
   2  -4  -2   31.55    1.21
  -2   4   2   30.29    1.18
  -2   4   2   30.65    1.47
   1  -4  -2    0.44    0.34
   1  -4  -2   -1.01    0.51
  -1   4   2    0.14    0.30
   0  -4  -2    0.74    0.51
   0   4   2    0.78    0.64
  -1  -4  -2    4.49    0.75
   1   4   2    6.93    0.92
   2   4   2   30.19    1.56
   3   4   2   -0.01    0.50
   4   4   2    8.01    0.95
   5   4   2    2.12    0.70
   6   4   2    2.29    0.90
   7   4   2   17.80    1.75
  -8  -4  -2   35.76    1.70
   8   4   2   33.94    1.92
   8   4   2   38.78    2.35
  -9  -4  -2    3.37    0.98
  10   4   2    1.07    1.33
  11   4   2   -0.08    1.42
  12   4   2    1.00    1.67
  13   4   2    1.65    1.81
  13   4   2    4.94    1.73
  13   4   2    3.07    1.23
  14   4   2   -0.79    1.14
  14   4   2    0.98    1.60
  14   4   2   -2.92    1.78
  15   4   2   -0.63    1.32
  15   4   2   -0.94    2.06
  18  -5  -2   -1.69    1.43
 -18   5   2   -0.93    1.74
  17  -5  -2    0.80    1.30
 -17   5   2    2.06    1.70
  16  -5  -2   -1.72    1.00
 -16   5   2    0.94    1.51
  15  -5  -2    1.39    1.13
 -15   5   2    1.96    1.35
  14  -5  -2    3.76    1.09
 -14   5   2    3.82    1.50
  13  -5  -2    0.17    0.85
 -13   5   2    0.11    1.10
  12  -5  -2    1.21    0.75
 -12   5   2    2.04    0.97
  11  -5  -2   12.95    1.55
 -11   5   2   10.42    1.59
  10  -5  -2    7.49    1.27
 -10   5   2    5.13    1.08
  -9   5   2    1.03    0.81
  -9   5   2    0.06    0.59
  -8   5   2    0.23    0.58
  -8   5   2   -0.41    0.64
  -7   5   2    1.04    0.60
  -7   5   2    0.62    0.60
  -6   5   2    6.69    0.89
  -6   5   2    6.17    0.89
  -5   5   2   14.92    1.02
  -5   5   2   16.36    1.04
   4  -5  -2    8.76    0.79
  -4   5   2   10.71    0.80
  -4   5   2   10.80    0.89
   3  -5  -2   15.16    0.87
   3  -5  -2   14.72    0.90
  -3   5   2   11.93    0.82
  -3   5   2   12.85    1.09
   2  -5  -2   45.87    1.81
   2  -5  -2   48.59    1.69
  -2   5   2   47.06    1.64
  -2   5   2   49.61    1.97
   1  -5  -2   14.47    0.82
   1  -5  -2   17.41    1.14
  -1   5   2   14.13    0.75
  -1   5   2   14.63    1.26
   1   5   2   11.17    1.09
   2   5   2   14.85    1.21
   3   5   2    4.55    0.99
   4   5   2    4.74    0.93
   5   5   2   21.34    1.54
   6   5   2    0.05    0.92
   7   5   2    0.90    1.06
   9   5   2    8.52    1.55
  10   5   2    4.50    1.49
  10   5   2    5.50    1.13
  11   5   2    0.68    1.45
  11   5   2    1.70    1.27
  12   5   2   -0.77    1.43
  12   5   2   -0.46    1.61
  13   5   2    0.49    1.79
  13   5   2   -2.45    1.87
  13   5   2    0.41    1.11
  14   5   2    1.92    2.14
  14   5   2    0.21    1.19
  15   5   2    3.16    2.38
 -18   6   2    0.23    1.81
  17  -6  -2   -1.84    1.16
 -17   6   2   -0.18    1.62
  16  -6  -2    0.05    1.24
 -16   6   2    1.26    1.44
  15  -6  -2    1.73    1.14
 -15   6   2    1.85    1.32
  14  -6  -2   16.72    2.19
 -14   6   2   19.12    2.20
  13  -6  -2    0.16    0.81
 -13   6   2    0.34    1.09
 -12   6   2    7.70    1.37
 -11   6   2    2.00    1.02
 -10   6   2    0.50    0.92
 -10   6   2    0.06    0.81
  -9   6   2    7.69    1.33
  -8   6   2    0.82    0.65
  -8   6   2    2.59    0.83
  -7   6   2    0.71    0.55
  -7   6   2    0.97    0.61
  -6   6   2   28.19    1.47
  -6   6   2   27.23    1.39
  -5   6   2    8.17    0.93
  -5   6   2    7.84    0.81
  -4   6   2    4.80    0.73
  -4   6   2    4.12    0.72
   3  -6  -2    0.31    0.50
  -3   6   2    0.62    0.45
  -3   6   2    0.37    0.63
   2  -6  -2   47.54    1.75
  -2   6   2   48.02    2.04
  -2   6   2   48.27    1.72
   1  -6  -2    2.85    0.53
  -1   6   2    2.59    0.45
  -1   6   2    3.36    0.77
   0   6   2    1.36    0.72
   1   6   2    5.08    0.94
   4   6   2   11.94    1.38
   5   6   2   10.27    1.64
   6   6   2   -0.54    1.55
   8   6   2    2.80    1.64
   9   6   2    2.55    1.69
  10   6   2    2.93    1.72
  11   6   2    1.95    1.78
  12   6   2    0.31    1.12
  12   6   2    1.84    1.97
  13   6   2    2.69    1.46
  13   6   2    1.58    2.32
  14   6   2    3.94    2.44
  14   6   2   -1.06    1.19
 -18   7   2    2.13    1.94
 -17   7   2    0.72    1.48
 -16   7   2    0.84    1.34
 -15   7   2    0.29    1.23
 -14   7   2   -1.07    1.07
 -13   7   2    4.95    1.37
 -12   7   2   24.32    2.14
 -11   7   2    1.05    1.00
 -10   7   2    2.44    0.93
 -10   7   2    2.75    1.06
  -9   7   2    9.46    1.52
  -9   7   2    8.69    1.38
  -8   7   2    6.39    0.96
  -8   7   2    8.95    1.37
  -7   7   2    0.68    0.65
  -7   7   2    0.30    0.49
  -6   7   2   12.64    1.01
  -6   7   2   12.74    1.14
  -5   7   2    6.02    0.93
  -5   7   2    6.00    0.87
  -4   7   2    5.43    0.87
  -4   7   2    6.07    1.01
   3  -7  -2    0.25    0.62
  -3   7   2    0.24    0.51
  -3   7   2    0.64    0.66
   2  -7  -2    4.11    0.70
  -2   7   2    2.34    0.84
  -2   7   2    2.91    0.55
   1  -7  -2    8.22    0.87
  -1   7   2    8.72    0.74
  -1   7   2    8.95    1.21
   1   7   2   23.45    1.65
   2   7   2    7.79    1.06
   3   7   2    8.91    1.16
   4   7   2    3.33    1.07
   5   7   2   -1.08    1.32
   6   7   2    1.83    1.64
   8   7   2   15.27    2.21
   9   7   2    5.78    1.98
  10   7   2    2.82    2.00
  11   7   2    1.29    1.14
  11   7   2    2.48    2.03
  12   7   2    1.84    2.13
  12   7   2    0.65    1.26
  13   7   2   -0.46    1.24
  13   7   2    3.12    2.25
  14   7   2    1.04    1.40
  14   7   2    3.09    2.39
 -17   8   2    0.16    1.41
 -16   8   2   -0.98    1.41
 -15   8   2    0.93    1.33
 -14   8   2   -0.01    1.16
 -13   8   2    1.54    1.29
 -12   8   2    1.32    1.13
 -12   8   2    0.16    1.23
 -11   8   2    0.90    1.16
 -11   8   2    0.49    0.96
 -10   8   2    5.09    1.29
 -10   8   2    4.32    1.21
  -9   8   2    2.01    1.18
  -9   8   2    1.47    1.06
  -8   8   2    0.31    0.80
  -7   8   2    0.05    0.62
  -7   8   2    1.65    0.78
  -6   8   2   13.20    1.21
  -6   8   2   12.76    1.21
  -5   8   2    2.15    0.69
  -5   8   2    2.47    0.76
  -4   8   2    1.39    0.72
  -4   8   2    0.71    0.61
  -3   8   2   18.72    1.17
  -3   8   2   17.68    1.49
   2  -8  -2    3.50    0.80
  -2   8   2    2.45    0.94
  -2   8   2    3.18    0.63
   1  -8  -2   11.04    1.02
  -1   8   2   10.11    1.31
   0   8   2    7.78    1.28
   1   8   2   -0.18    0.68
   2   8   2    3.18    1.05
   3   8   2   10.87    1.56
   5   8   2    0.86    1.39
   6   8   2    3.93    1.66
   7   8   2    2.43    1.73
   8   8   2   -0.33    1.67
   9   8   2    0.20    1.76
  10   8   2   -1.13    1.80
  10   8   2    1.25    1.14
  11   8   2    0.23    1.04
  11   8   2   -2.30    1.85
  12   8   2    0.33    1.18
  12   8   2   -1.20    2.07
  13   8   2   -3.18    2.21
 -18   9   2   -1.08    1.75
 -17   9   2    0.89    1.57
 -16   9   2    3.71    1.76
 -15   9   2   -1.23    1.27
 -14   9   2    3.39    1.28
 -13   9   2   12.77    2.03
 -12   9   2   -0.29    1.03
 -12   9   2    0.87    1.26
 -11   9   2    0.61    1.01
 -11   9   2    1.85    1.27
 -10   9   2    1.17    1.28
 -10   9   2    0.83    0.93
  -9   9   2    5.80    1.24
  -9   9   2    5.20    1.29
  -8   9   2   -1.39    1.08
  -8   9   2    1.07    0.85
  -7   9   2    5.05    0.92
  -6   9   2    3.71    0.86
  -6   9   2    5.11    0.95
  -5   9   2    4.50    1.06
  -5   9   2    3.24    0.81
  -4   9   2    7.48    1.30
  -4   9   2    7.35    1.00
  -3   9   2    4.82    1.06
  -3   9   2    5.59    0.84
   2  -9  -2   -0.17    0.81
  -2   9   2    0.79    0.86
  -2   9   2   -0.64    0.54
   1  -9  -2   11.93    1.10
   1  -9  -2   12.33    1.23
  -1   9   2   12.17    1.44
   0   9   2    0.09    0.83
   2   9   2    3.04    1.22
   3   9   2    2.77    1.52
   4   9   2    0.85    1.49
   5   9   2    3.26    1.77
   6   9   2    4.87    1.78
   7   9   2    3.74    1.67
   8   9   2    2.03    1.77
   9   9   2    1.26    1.20
   9   9   2    2.53    1.86
  10   9   2    0.61    1.82
  10   9   2   -0.56    1.02
  11   9   2    2.14    2.06
  11   9   2    1.06    1.14
  12   9   2    1.39    2.18
 -18  10   2   -1.13    1.76
 -17  10   2   -0.69    1.62
 -16  10   2   -0.79    1.43
 -15  10   2    1.69    1.34
 -14  10   2   -0.47    1.22
 -13  10   2   -0.39    1.30
 -13  10   2    0.15    1.39
 -12  10   2    1.93    1.21
 -12  10   2    1.79    1.42
 -11  10   2   -0.36    1.08
 -11  10   2    2.49    1.28
 -10  10   2    0.54    1.24
 -10  10   2    0.36    0.97
  -9  10   2   -1.00    1.14
  -9  10   2    0.00    0.92
  -8  10   2    0.62    0.96
  -8  10   2    0.11    1.16
  -7  10   2   10.91    1.88
  -6  10   2    8.16    1.56
  -6  10   2    8.24    1.18
  -5  10   2    8.09    1.31
  -5  10   2    6.41    1.34
  -4  10   2   -0.36    1.12
  -4  10   2    0.42    0.77
  -3  10   2    0.08    0.74
  -3  10   2    0.77    1.08
  -3  10   2    0.09    0.57
   2 -10  -2    5.37    0.95
  -2  10   2    5.35    1.42
   1 -10  -2    3.71    0.83
   1 -10  -2    2.55    0.95
  -1  10   2    3.60    1.23
   0  10   2   -0.50    1.11
   1  10   2    0.78    1.30
   2  10   2    2.77    1.49
   3  10   2   -1.60    1.49
   4  10   2    3.45    1.52
   5  10   2    4.58    1.84
   6  10   2    2.51    1.79
   7  10   2   -0.17    1.85
   7  10   2    0.82    1.10
   8  10   2    0.73    1.18
   8  10   2    1.04    1.85
   9  10   2    0.58    1.12
   9  10   2   -1.28    1.90
  10  10   2    1.16    1.23
  10  10   2    2.93    2.08
  11  10   2   -0.04    2.18
  11  10   2    1.52    1.31
  12  10   2    0.93    2.51
  12  10   2    2.04    1.34
 -16  11   2   -1.78    1.51
 -15  11   2    0.75    1.43
 -14  11   2    1.93    1.45
 -14  11   2   -1.94    1.67
 -13  11   2   -0.12    1.28
 -13  11   2    3.20    1.55
 -12  11   2    2.61    1.46
 -12  11   2    2.46    1.42
 -11  11   2    4.37    1.32
 -11  11   2    4.98    1.60
 -10  11   2    0.54    1.26
 -10  11   2    1.36    1.10
  -9  11   2    0.82    1.39
  -9  11   2    3.24    1.22
  -8  11   2    2.57    1.11
  -8  11   2   -0.29    1.38
  -7  11   2   -0.90    1.25
  -7  11   2    1.01    0.99
  -6  11   2    2.77    1.05
  -6  11   2    1.89    1.31
  -5  11   2    7.96    1.24
  -5  11   2    7.37    1.49
  -4  11   2    0.16    1.17
  -4  11   2    1.00    0.90
  -4  11   2    0.23    0.68
   3 -11  -2    1.65    0.98
  -3  11   2    1.44    1.27
  -3  11   2    1.13    0.69
   2 -11  -2    2.11    0.97
  -2  11   2    1.34    1.33
  -2  11   2    1.95    0.79
   1 -11  -2    0.03    0.86
  -1  11   2    0.62    0.82
  -1  11   2   -0.67    1.28
   0  11   2    3.90    1.51
   1  11   2    2.50    1.51
   2  11   2   -1.28    1.45
   3  11   2    4.35    1.79
   4  11   2    0.65    1.62
   5  11   2   -0.40    1.04
   5  11   2    0.02    1.54
   6  11   2    2.05    1.27
   6  11   2    4.45    1.78
   7  11   2   -1.07    1.04
   7  11   2   -2.02    1.73
   8  11   2    1.06    2.09
   8  11   2   -0.57    1.17
   9  11   2   -0.81    1.15
   9  11   2   -1.68    2.06
  10  11   2   -1.14    2.25
  10  11   2    0.99    1.24
  11  11   2   -1.56    2.40
  11  11   2    1.05    1.38
 -17  12   2    2.21    1.86
 -16  12   2    0.04    1.72
 -15  12   2   -0.17    1.67
 -14  12   2   -2.33    1.44
 -14  12   2    1.03    1.74
 -13  12   2   -0.19    1.47
 -13  12   2    1.32    1.78
 -12  12   2    2.02    1.51
 -12  12   2    0.50    1.26
 -11  12   2    0.83    1.59
 -11  12   2    0.69    1.18
 -10  12   2    6.47    1.68
 -10  12   2    4.48    1.44
  -9  12   2    4.21    1.38
  -9  12   2    3.25    1.48
  -8  12   2   -0.06    1.08
  -8  12   2    0.70    1.28
  -7  12   2    1.42    1.38
  -7  12   2    0.74    1.08
  -6  12   2   -0.12    1.02
  -6  12   2   -0.99    1.24
  -5  12   2    0.84    1.02
  -5  12   2    1.54    1.40
   4 -12  -2    0.55    1.09
  -4  12   2   -0.96    1.19
  -4  12   2    0.18    0.79
   3 -12  -2    9.15    1.29
  -3  12   2    7.06    0.99
  -3  12   2    8.37    1.58
   2 -12  -2    5.22    1.10
  -2  12   2    3.85    1.57
  -2  12   2    2.71    0.90
  -1  12   2   -1.59    1.27
  -1  12   2    0.20    0.82
   0  12   2    3.19    1.53
   1  12   2    1.60    1.53
   1  12   2    0.42    0.86
   2  12   2    0.54    1.40
   2  12   2   -0.37    0.93
   3  12   2    1.39    1.45
   3  12   2    1.95    1.05
   4  12   2   -0.25    1.05
   4  12   2   -1.22    1.56
   5  12   2   -0.67    1.16
   5  12   2    0.57    1.84
   6  12   2    1.18    1.16
   6  12   2   -1.41    1.88
   7  12   2   -0.02    1.26
   7  12   2   -0.78    1.92
   8  12   2    1.09    1.25
   8  12   2    0.58    2.06
   9  12   2    1.58    1.26
   9  12   2    0.58    2.03
  10  12   2    1.59    2.46
  10  12   2    2.23    1.46
 -15  13   2   -1.65    2.15
 -15  13   2    0.80    1.64
 -14  13   2    1.62    1.87
 -14  13   2    0.86    1.76
 -13  13   2    1.04    1.54
 -13  13   2   -0.66    1.67
 -12  13   2    0.27    1.45
 -12  13   2    1.20    1.68
 -11  13   2    2.00    1.57
 -11  13   2    1.99    1.49
 -10  13   2   -1.09    1.23
 -10  13   2    0.27    1.56
  -9  13   2   -0.58    1.30
  -9  13   2    0.48    1.35
  -8  13   2   -0.03    1.18
  -8  13   2    0.08    1.29
  -7  13   2    0.28    1.14
  -7  13   2   -0.64    1.40
  -6  13   2    3.44    1.44
   5 -13  -2    8.04    1.48
  -5  13   2    8.20    1.63
   4 -13  -2    1.74    1.21
  -4  13   2   -0.24    1.23
  -4  13   2    0.27    0.89
   3 -13  -2    0.45    1.14
  -3  13   2   -0.17    1.31
  -3  13   2    0.56    0.98
   2 -13  -2    1.98    1.20
  -2  13   2    1.03    0.95
  -2  13   2    2.25    1.41
  -1  13   2    0.66    1.40
   0  13   2    4.03    1.68
   0  13   2    2.62    0.96
   1  13   2    3.26    1.51
   1  13   2    2.75    1.05
   2  13   2    0.46    1.44
   2  13   2   -0.54    0.97
   3  13   2    1.52    1.61
   3  13   2   -0.16    1.03
   4  13   2   -0.10    1.05
   4  13   2   -0.70    1.58
   5  13   2    1.87    1.17
   5  13   2    1.77    1.84
   6  13   2    1.96    1.17
   6  13   2   -1.08    1.86
   7  13   2    0.93    1.90
   7  13   2    0.77    1.35
   8  13   2   -1.34    2.15
   8  13   2    1.71    1.33
   9  13   2   -0.59    2.48
   9  13   2    1.77    1.46
 -16  14   2   -0.49    1.93
 -15  14   2    0.96    2.19
 -15  14   2   -0.21    1.89
 -14  14   2    1.74    2.04
 -14  14   2   -0.95    1.69
 -13  14   2    2.08    1.99
 -13  14   2   -0.60    1.67
 -12  14   2    2.49    1.98
 -12  14   2   -0.48    1.54
 -11  14   2    3.58    1.78
 -11  14   2    3.12    1.61
 -10  14   2    2.59    1.80
 -10  14   2   -1.83    1.41
  -9  14   2    0.65    1.39
  -9  14   2   -1.11    1.42
  -8  14   2    0.69    1.52
  -8  14   2    0.42    1.30
   7 -14  -2    4.79    1.48
  -7  14   2    3.93    1.69
   6 -14  -2   -0.09    1.22
  -6  14   2    1.57    1.48
   5 -14  -2    0.13    1.22
  -5  14   2   -0.49    1.22
   4 -14  -2    3.27    1.44
  -4  14   2    2.60    1.43
  -4  14   2    2.47    1.09
   3 -14  -2    1.78    1.31
  -3  14   2   -0.26    1.13
  -3  14   2   -0.38    1.38
   2 -14  -2    1.20    1.40
  -2  14   2    2.89    1.53
  -2  14   2    2.29    1.24
  -1  14   2    1.48    1.44
  -1  14   2   -0.16    1.09
   0  14   2    0.79    1.05
   0  14   2    0.10    1.54
   1  14   2    0.55    1.06
   1  14   2    0.24    1.68
   2  14   2    1.92    1.67
   2  14   2    1.64    1.15
   3  14   2    2.29    1.19
   3  14   2   -0.13    1.74
   4  14   2    3.24    1.95
   4  14   2    1.33    1.21
   5  14   2    1.60    1.97
   5  14   2    3.28    1.43
   6  14   2    0.98    1.43
   6  14   2    0.90    2.20
   7  14   2    1.47    2.18
   7  14   2    0.22    1.31
 -15  15   2    3.63    2.50
 -15  15   2    2.58    2.12
 -14  15   2    0.40    2.23
 -14  15   2    0.00    1.76
 -13  15   2    2.81    2.09
 -13  15   2   -0.87    1.63
 -12  15   2   -0.83    1.57
 -12  15   2    2.40    1.92
 -11  15   2   -0.83    1.49
 -11  15   2    0.08    1.90
 -10  15   2    0.39    1.88
 -10  15   2    1.72    1.63
   9 -15  -2    0.47    1.58
  -9  15   2   -1.51    1.64
   8 -15  -2    0.81    1.58
  -8  15   2   -1.16    1.51
   7 -15  -2    0.77    1.47
  -7  15   2    1.44    1.52
   6 -15  -2    1.49    1.43
  -6  15   2    2.09    1.49
   5 -15  -2    0.92    1.38
  -5  15   2   -0.51    1.42
   4 -15  -2    0.70    1.53
  -4  15   2    0.27    1.18
  -4  15   2    1.55    1.45
   3 -15  -2   -0.10    1.56
  -3  15   2    1.64    1.59
  -3  15   2    0.96    1.29
  -2  15   2    5.37    1.27
  -2  15   2    5.03    1.76
  -1  15   2   -0.27    1.12
  -1  15   2    1.42    1.58
   0  15   2    0.56    1.26
   0  15   2    3.96    1.89
   1  15   2    0.29    1.35
   1  15   2    1.52    1.68
   2  15   2    1.27    1.51
   2  15   2    1.56    1.87
   3  15   2    0.16    1.37
   3  15   2    0.71    1.93
   4  15   2    1.81    2.02
   4  15   2   -0.25    1.47
   5  15   2   -0.21    2.04
   5  15   2   -0.44    1.72
   6  15   2   -0.44    2.17
   6  15   2   -0.28    1.79
 -13  16   2    4.24    2.42
  12 -16  -2    2.37    1.92
 -12  16   2    1.73    2.18
  11 -16  -2    2.08    1.84
 -11  16   2   -1.46    1.97
  10 -16  -2    2.40    1.79
 -10  16   2   -0.51    1.79
   9 -16  -2    0.79    1.73
  -9  16   2    0.37    1.88
   8 -16  -2    0.19    1.68
  -8  16   2   -0.42    1.62
   7 -16  -2    2.63    1.61
  -7  16   2    0.14    1.54
   6 -16  -2    1.25    1.56
  -6  16   2    2.03    1.68
   5 -16  -2   -2.47    1.45
  -5  16   2    1.69    1.58
  -4  16   2    0.62    1.44
  -4  16   2    0.60    1.64
   3 -16  -2    1.09    1.91
  -3  16   2    5.14    1.78
  -3  16   2   -0.29    1.36
  -2  16   2    0.04    1.24
  -2  16   2    1.69    1.69
  -1  16   2    2.17    1.67
  -1  16   2    1.19    1.36
   0  16   2    0.23    1.42
   0  16   2    2.57    1.83
   1  16   2    0.37    1.48
   1  16   2    3.59    1.82
   2  16   2   -0.36    1.56
   2  16   2   -0.18    1.85
   3  16   2   -1.84    1.59
   3  16   2    1.89    2.11
   4  16   2    0.15    2.10
   4  16   2   -0.54    1.69
  12 -17  -2    0.13    2.09
  11 -17  -2    2.72    2.18
 -11  17   2    0.36    2.43
  10 -17  -2    0.71    2.03
 -10  17   2    2.25    2.07
   9 -17  -2    0.42    1.85
  -9  17   2    0.50    1.86
   8 -17  -2    1.81    1.93
  -8  17   2    0.07    1.73
   7 -17  -2   -0.09    1.74
  -7  17   2    1.84    1.99
  -6  17   2    0.10    1.79
   5 -17  -2   -0.28    1.72
  -5  17   2    3.07    1.78
  -4  17   2    1.80    1.61
  -3  17   2   -0.52    1.44
  -3  17   2    1.91    1.74
  -2  17   2    0.69    1.69
  -2  17   2   -0.30    1.48
  -1  17   2    0.83    1.86
  -1  17   2    0.59    1.61
   0  17   2    0.26    1.96
   0  17   2    2.01    1.67
   1  17   2    2.45    1.76
   1  17   2    2.09    1.97
   2  17   2    4.82    2.46
   2  17   2    4.25    1.81
  10 -18  -2    2.01    2.23
 -10  18   2    0.77    2.31
   9 -18  -2   -0.02    2.22
   8 -18  -2   -1.59    2.09
   7 -18  -2   -1.92    1.96
   6 -18  -2    0.90    2.06
  -6  18   2    1.00    2.10
  -5  18   2    1.38    1.73
  -4  18   2    5.20    2.38
  -1  18   2   -1.35    1.75
   0  18   2   -0.86    2.15
   0  18   2   -0.20    1.80
  -4  19  -3   -2.63    1.98
  -5  19  -3   -1.63    1.88
   5 -19   3   -0.99    2.27
  -6  19  -3    0.31    2.17
   6 -19   3    1.22    2.33
  -7  19  -3   -0.45    1.97
   7 -19   3    2.81    2.39
   2  18  -3    4.00    2.27
   2  18  -3   -3.42    1.72
   1  18  -3   -0.81    1.89
   1  18  -3    0.74    2.22
   0  18  -3    2.61    2.10
   0  18  -3    0.51    1.89
  -1  18  -3    0.72    1.83
  -1  18  -3    0.81    1.83
  -2  18  -3   -0.51    1.76
  -3  18  -3    2.69    1.84
   3 -18   3   -1.31    2.00
  -4  18  -3    1.76    1.94
   4 -18   3    0.82    2.01
  -5  18  -3    0.65    1.92
   5 -18   3   -0.28    2.02
  -6  18  -3   -2.12    1.93
   6 -18   3    2.34    2.08
  -7  18  -3   -0.65    2.11
   7 -18   3    2.52    2.10
  -8  18  -3    0.79    2.15
   8 -18   3   -1.26    2.02
   9 -18   3    0.38    2.09
 -10  18  -3    3.26    2.18
  10 -18   3   -1.08    2.09
   4  17  -3    0.42    1.78
   4  17  -3    4.65    2.31
   3  17  -3    2.92    2.29
   3  17  -3   -1.29    1.62
   2  17  -3   -1.90    1.55
   2  17  -3    3.53    2.32
   1  17  -3    1.24    1.92
   0  17  -3    1.49    1.69
   0  17  -3    0.64    1.65
  -1  17  -3   -0.18    1.75
  -1  17  -3   -0.55    1.53
  -2  17  -3    1.20    1.69
  -2  17  -3   -1.22    1.58
   2 -17   3   -2.07    1.84
  -3  17  -3    0.50    1.71
   3 -17   3   -1.83    1.84
  -4  17  -3   -1.54    1.47
   4 -17   3   -2.55    1.74
  -5  17  -3   -0.82    1.54
   5 -17   3    2.01    1.77
  -6  17  -3   -0.22    1.64
   6 -17   3    0.60    1.76
  -7  17  -3    1.02    1.87
   7 -17   3   -0.30    1.80
  -8  17  -3    0.48    1.76
   8 -17   3   -0.28    1.88
  -9  17  -3    2.57    1.98
   9 -17   3   -0.15    1.92
 -10  17  -3    1.45    1.92
  10 -17   3   -3.49    1.76
  11 -17   3   -2.86    2.09
 -12  17  -3    3.63    2.27
  12 -17   3    0.13    2.24
   6  16  -3   -2.69    1.57
   6  16  -3   -0.53    2.38
   5  16  -3    1.38    2.23
   5  16  -3   -2.27    1.57
   4  16  -3   -1.43    1.51
   4  16  -3   -1.20    2.10
   3  16  -3    0.26    1.53
   3  16  -3    0.77    1.81
   2  16  -3    1.78    1.85
   2  16  -3   -0.88    1.37
   1  16  -3   -1.57    1.30
   1  16  -3    1.66    1.77
   0  16  -3   -1.89    1.41
   0  16  -3    1.58    1.70
   0 -16   3   -0.22    1.97
  -1  16  -3   -0.40    1.36
  -1  16  -3    2.00    1.60
   1 -16   3    1.06    2.03
  -2  16  -3    0.80    1.37
  -2  16  -3    1.42    1.61
   2 -16   3   -0.98    1.62
  -3  16  -3    2.10    1.58
  -3  16  -3   -0.83    1.53
   3 -16   3   -2.57    1.51
  -4  16  -3   -0.97    1.51
  -4  16  -3    0.47    1.41
   4 -16   3   -0.16    1.63
  -5  16  -3    2.93    1.65
   5 -16   3    5.43    1.70
  -6  16  -3   -0.68    1.54
   6 -16   3    0.54    1.57
  -7  16  -3    1.23    1.72
   7 -16   3   -0.22    1.58
  -8  16  -3    0.87    1.54
   8 -16   3   -0.66    1.60
  -9  16  -3    0.97    1.65
   9 -16   3   -2.57    1.73
 -10  16  -3    4.70    1.84
  10 -16   3   -3.50    1.75
 -11  16  -3    0.35    1.80
  11 -16   3    0.27    1.97
 -12  16  -3    1.81    2.04
  12 -16   3    2.10    2.26
   7  15  -3    4.75    2.28
   7  15  -3   -0.44    1.51
   6  15  -3   -0.60    1.54
   6  15  -3    1.85    1.99
   5  15  -3    0.30    1.37
   5  15  -3    2.84    1.89
   4  15  -3    0.53    1.83
   4  15  -3   -0.45    1.43
   3  15  -3   -0.54    1.28
   3  15  -3    0.56    1.74
   2  15  -3    1.04    1.55
   2  15  -3   -0.56    1.19
   1  15  -3    1.59    1.53
   1  15  -3    0.29    1.24
  -1 -15   3   -0.12    1.66
   0  15  -3    0.16    1.53
   0  15  -3   -2.17    1.05
   0 -15   3    1.23    1.74
  -1  15  -3    1.51    1.28
  -1  15  -3    2.61    1.48
   1 -15   3    2.71    1.86
  -2  15  -3   -0.24    1.47
  -3  15  -3    0.56    1.41
  -3  15  -3    3.31    1.35
   3 -15   3    3.27    1.51
  -4  15  -3   -0.13    1.45
  -4  15  -3    0.64    1.20
   4 -15   3    3.12    1.48
  -5  15  -3    1.15    1.34
   5 -15   3    1.98    1.49
  -6  15  -3    1.06    1.43
   6 -15   3   -1.30    1.41
  -7  15  -3   -1.11    1.46
   7 -15   3   -0.67    1.41
  -8  15  -3   -0.48    1.45
   8 -15   3   -1.93    1.56
  -9  15  -3   -0.24    1.58
   9 -15   3   -1.17    1.57
 -10  15  -3    4.42    1.79
  10 -15   3    2.04    1.70
 -11  15  -3    1.49    1.59
  11 -15   3    0.58    1.74
 -12  15  -3    3.38    2.05
  12 -15   3    3.64    1.92
 -13  15  -3    0.94    1.79
  13 -15   3    1.71    1.95
   9  14  -3    4.83    2.47
   9  14  -3   -2.42    1.65
   8  14  -3    2.02    2.31
   8  14  -3   -1.60    1.49
   7  14  -3    2.50    2.14
   7  14  -3   -1.67    1.47
   6  14  -3   -0.76    1.32
   6  14  -3    3.91    1.89
   5  14  -3    4.08    1.75
   5  14  -3   -1.37    1.24
   4  14  -3   -0.18    1.20
   4  14  -3    1.23    1.55
   3  14  -3    0.86    1.27
   3  14  -3    2.92    1.70
   2  14  -3    1.34    1.51
   2  14  -3   -0.30    1.14
   1  14  -3   -0.84    1.04
   1  14  -3    2.27    1.59
  -1 -14   3   -0.05    1.47
   0  14  -3    0.07    1.28
   0  14  -3   -0.64    0.96
   0 -14   3   -0.28    1.48
  -1  14  -3    5.64    1.50
   1 -14   3    8.84    1.70
  -2  14  -3    1.85    1.20
  -2  14  -3    1.51    1.51
   2 -14   3   -0.26    1.47
  -3  14  -3    3.86    1.22
  -3  14  -3    3.82    1.52
   3 -14   3    5.43    1.45
  -4  14  -3    0.74    1.02
  -4  14  -3   -0.15    1.22
   4 -14   3    1.05    1.28
  -5  14  -3   -0.45    1.24
   5 -14   3   -0.03    1.31
  -6  14  -3    0.89    1.52
   6 -14   3   -0.71    1.20
  -7  14  -3    0.45    1.40
   7 -14   3   -0.93    1.35
  -8  14  -3    2.68    1.71
   8 -14   3    1.26    1.60
  -9  14  -3    0.60    1.43
   9 -14   3   -0.62    1.42
 -10  14  -3    3.48    1.68
  10 -14   3    4.56    1.74
 -11  14  -3    2.04    1.70
  11 -14   3    0.29    1.59
 -12  14  -3    1.50    1.67
  12 -14   3    0.27    1.60
  13 -14   3   -0.22    1.68
  14 -14   3    0.70    1.82
  15 -14   3   -0.19    1.94
  10  13  -3    0.86    1.51
  10  13  -3   -0.61    2.35
   9  13  -3   -0.06    2.17
   9  13  -3   -0.03    1.39
   8  13  -3   -2.34    1.33
   8  13  -3   -2.08    1.92
   7  13  -3   -1.16    1.81
   7  13  -3   -1.06    1.30
   6  13  -3    0.31    1.27
   6  13  -3    2.02    1.72
   5  13  -3    2.32    1.73
   5  13  -3   -0.36    1.15
   4  13  -3    1.43    1.20
   4  13  -3    4.27    1.55
   3  13  -3    4.13    1.54
   3  13  -3    2.22    1.22
   2  13  -3   -0.23    1.37
   2  13  -3   -0.16    0.95
   1  13  -3    0.83    0.95
   1  13  -3    2.89    1.32
  -1 -13   3    1.39    1.34
   0  13  -3    4.91    1.50
   0  13  -3    3.61    1.07
   0 -13   3    7.04    1.53
  -1  13  -3    2.89    1.11
  -1  13  -3    2.27    1.25
   1 -13   3    2.21    1.37
  -2  13  -3   -0.18    1.26
  -2  13  -3    0.51    0.98
   2 -13   3   -0.48    1.31
  -3  13  -3    1.07    1.26
  -3  13  -3    1.90    1.02
   3 -13   3    0.50    1.31
  -4  13  -3    0.12    1.27
   4 -13   3    0.30    1.14
  -5  13  -3   -1.14    1.11
   5 -13   3   -0.62    1.05
  -6  13  -3    5.02    1.48
   6 -13   3    4.15    1.37
  -7  13  -3    1.68    1.42
   7 -13   3    0.36    1.28
  -8  13  -3    0.15    1.37
   8 -13   3    0.60    1.32
  -9  13  -3    6.16    1.71
   9 -13   3    1.43    1.48
 -10  13  -3    2.22    1.69
  10 -13   3    1.94    1.47
 -11  13  -3    1.38    1.53
  11 -13   3   -1.89    1.48
 -12  13  -3    0.37    1.69
  12 -13   3    2.92    1.75
  13 -13   3    0.73    1.62
  14 -13   3    1.51    1.81
  15 -13   3    0.11    1.93
  16 -13   3   -2.06    1.87
  11  12  -3    4.34    2.42
  11  12  -3   -0.17    1.57
  10  12  -3    2.02    2.13
  10  12  -3   -1.94    1.38
   9  12  -3    1.29    1.94
   9  12  -3   -0.75    1.34
   8  12  -3    1.86    1.80
   8  12  -3   -0.28    1.20
   7  12  -3    2.26    1.27
   7  12  -3    3.21    1.75
   6  12  -3    1.40    1.11
   6  12  -3   -2.35    1.47
   5  12  -3    1.20    1.06
   5  12  -3   -0.35    1.43
   4  12  -3    1.20    1.06
   4  12  -3    2.89    1.44
   3  12  -3    2.15    1.38
   3  12  -3    0.60    0.99
   2  12  -3   -0.14    1.28
   2  12  -3    0.06    0.83
  -2 -12   3   -0.72    1.13
   1  12  -3   -0.70    1.16
   1  12  -3    0.44    0.91
  -1 -12   3   -0.37    1.19
   0  12  -3    2.86    1.00
   0  12  -3    1.44    1.32
   0 -12   3    3.80    1.33
  -1  12  -3   11.65    1.96
  -1  12  -3   16.78    2.09
   1 -12   3   12.06    1.55
  -2  12  -3    2.40    0.91
  -2  12  -3    2.98    1.37
   2 -12   3    1.99    1.26
  -3  12  -3   -0.03    1.12
  -3  12  -3    0.39    0.83
   3 -12   3   -0.51    1.11
  -4  12  -3    0.92    0.76
  -4  12  -3    0.07    1.17
  -5  12  -3    4.55    1.46
   5 -12   3    3.67    1.29
  -6  12  -3   11.05    1.78
   6 -12   3   10.67    1.59
  -7  12  -3   -0.51    1.11
   7 -12   3    0.23    1.21
  -8  12  -3    0.11    1.27
   8 -12   3    0.03    1.20
  -9  12  -3    2.15    1.37
   9 -12   3    1.24    1.27
 -10  12  -3    1.25    1.23
  10 -12   3    0.32    1.46
 -11  12  -3    1.37    1.35
  11 -12   3    1.58    1.56
  12 -12   3    0.59    1.54
  13 -12   3    0.70    1.68
  14 -12   3   -0.08    1.70
  15 -12   3    2.23    1.94
  16 -12   3    1.50    2.15
  12  11  -3    2.95    2.37
  12  11  -3   -1.47    1.46
  11  11  -3    1.35    1.36
  11  11  -3    0.73    2.04
  10  11  -3    2.87    1.95
  10  11  -3    2.58    1.35
   9  11  -3    2.23    1.31
   9  11  -3    1.82    1.85
   8  11  -3    3.20    1.22
   8  11  -3    2.29    1.64
   7  11  -3    1.60    1.09
   7  11  -3    1.29    1.55
   6  11  -3    1.62    1.43
   6  11  -3    0.86    1.00
   5  11  -3    1.27    0.96
   5  11  -3   -0.39    1.30
   4  11  -3    3.52    1.06
   4  11  -3    2.96    1.42
   3  11  -3   -0.08    0.88
   3  11  -3    0.65    1.18
   2  11  -3    0.61    0.89
   2  11  -3    0.45    1.20
  -2 -11   3    0.81    1.07
   1  11  -3    0.43    1.14
   1  11  -3    0.14    0.81
  -1 -11   3    0.80    1.15
   0  11  -3    0.27    1.17
   0  11  -3    0.22    0.78
   0 -11   3    0.71    1.10
  -1  11  -3    0.89    0.74
  -1  11  -3   -1.38    1.10
   1 -11   3    0.77    1.06
  -2  11  -3    4.01    1.28
  -2  11  -3    2.99    0.84
   2 -11   3    4.13    1.13
  -3  11  -3   -0.40    1.02
  -3  11  -3    0.28    0.73
   3 -11   3    0.50    1.04
  -4  11  -3    2.93    0.71
  -4  11  -3    3.71    1.25
   4 -11   3    4.94    1.19
  -5  11  -3   10.79    1.70
  -6  11  -3   -1.05    1.14
   6 -11   3    0.48    1.19
  -7  11  -3   -0.26    1.11
   7 -11   3   -0.57    1.10
  -8  11  -3    3.23    1.31
   8 -11   3    2.51    1.36
  -9  11  -3    1.96    1.35
   9 -11   3    2.72    1.38
 -10  11  -3   -0.23    1.15
  10 -11   3    0.18    1.34
  11 -11   3   11.48    1.93
  12 -11   3    4.90    1.63
  13 -11   3    1.33    1.52
  14 -11   3    0.98    1.56
  15 -11   3    0.50    1.77
  16 -11   3    1.67    1.94
  17 -11   3    2.71    2.11
  13  10  -3    0.03    1.48
  13  10  -3   -2.21    2.23
  12  10  -3    1.00    2.06
  12  10  -3    2.29    1.46
  11  10  -3    2.74    1.43
  11  10  -3    0.33    1.84
  10  10  -3    1.05    1.32
  10  10  -3   -0.45    1.67
   9  10  -3    2.55    1.65
   9  10  -3    1.65    1.25
   8  10  -3    1.58    1.50
   8  10  -3    1.26    1.12
   7  10  -3    3.02    1.18
   7  10  -3    4.27    1.54
   6  10  -3    0.97    0.96
   6  10  -3   -0.57    1.32
   5  10  -3    0.13    1.30
   5  10  -3    2.08    0.97
   4  10  -3    0.82    0.90
   3  10  -3    5.38    1.33
   3  10  -3    3.67    0.91
  -3 -10   3    3.76    1.00
   2  10  -3   14.35    1.94
   2  10  -3   13.48    1.70
  -2 -10   3   10.53    1.56
  -2 -10   3   10.27    1.52
   1  10  -3    2.60    0.79
   1  10  -3    2.49    1.04
  -1 -10   3    4.27    1.08
   0  10  -3    3.38    0.87
   0  10  -3    2.03    0.76
   0 -10   3    4.03    1.08
  -1  10  -3    5.74    0.85
  -1  10  -3    8.93    1.17
   1 -10   3    8.24    1.23
  -2  10  -3    1.51    0.78
  -2  10  -3    0.56    0.65
   2 -10   3    0.39    0.89
  -3  10  -3    3.16    0.70
   3 -10   3    3.32    0.99
  -4  10  -3   19.57    1.85
   4 -10   3   22.34    1.79
  -5  10  -3   10.91    1.54
   5 -10   3   11.16    1.60
  -6  10  -3    0.25    0.98
   6 -10   3    0.47    1.09
  -7  10  -3   -0.82    1.02
   7 -10   3   -0.16    1.16
  -8  10  -3    2.67    1.18
   8 -10   3    3.44    1.38
  -9  10  -3    1.94    1.14
   9 -10   3   -0.45    1.24
 -10  10  -3    5.98    1.45
  10 -10   3    6.98    1.51
  11 -10   3    2.50    1.38
  12 -10   3    1.07    1.31
  13 -10   3    1.14    1.44
  14 -10   3    1.98    1.58
  15 -10   3    2.51    1.71
  16 -10   3    0.34    1.84
  17 -10   3    0.38    2.06
  14   9  -3   -1.90    1.47
  13   9  -3    2.75    1.45
  13   9  -3    0.04    2.07
  12   9  -3   -0.45    1.76
  12   9  -3    0.24    1.32
  11   9  -3   -0.38    1.61
  11   9  -3    1.33    1.26
  10   9  -3   -1.07    1.50
  10   9  -3    0.60    1.13
   9   9  -3    4.77    1.68
   9   9  -3    4.47    1.23
   8   9  -3    2.48    1.13
   8   9  -3    3.33    1.56
   7   9  -3    3.69    1.07
   6   9  -3    0.64    0.93
   6   9  -3   -3.00    1.41
   5   9  -3    2.95    1.31
   5   9  -3    2.77    1.04
   4   9  -3    3.24    1.22
   4   9  -3    4.45    0.99
   4   9  -3    4.86    1.08
   3   9  -3    4.27    1.16
   3   9  -3    3.54    0.97
   3   9  -3    1.64    0.72
  -3  -9   3    2.77    0.88
   2   9  -3   12.61    1.48
   2   9  -3   14.23    1.63
   2   9  -3   11.98    1.43
  -2  -9   3   11.14    1.38
   1   9  -3    0.81    0.74
   1   9  -3    0.15    0.59
  -1  -9   3    1.41    0.90
   0   9  -3    7.28    1.00
   0   9  -3    4.97    0.76
   0  -9   3    6.86    0.99
  -1   9  -3    0.07    0.53
  -1   9  -3    0.70    0.55
   1  -9   3    0.19    0.80
  -2   9  -3   -0.31    0.53
  -2   9  -3    0.84    0.64
   2  -9   3   -0.32    0.76
  -3   9  -3   10.23    1.15
  -3   9  -3    8.63    1.21
   3  -9   3    8.55    1.17
  -4   9  -3   19.34    1.48
   4  -9   3   16.98    1.50
  -5   9  -3   -0.11    0.78
   5  -9   3    0.33    0.71
  -6   9  -3    6.16    1.34
   6  -9   3    6.38    1.04
  -7   9  -3    1.81    1.04
   7  -9   3    0.94    1.07
  -8   9  -3   -0.14    0.93
   8  -9   3    1.12    1.14
  -9   9  -3    0.18    1.04
   9  -9   3   -1.40    1.19
 -11   9  -3    0.65    1.16
 -12   9  -3    0.20    1.23
  14  -9   3   -1.13    1.47
  15  -9   3    3.66    1.62
  16  -9   3    3.71    1.81
  14   8  -3   -2.05    2.41
  13   8  -3    2.43    1.59
  13   8  -3   -1.06    1.94
  12   8  -3    0.90    1.90
  12   8  -3    1.52    1.38
  11   8  -3    1.28    1.21
  11   8  -3    1.61    1.69
 -11  -8   3    5.58    1.51
  10   8  -3    4.04    1.30
  10   8  -3    5.23    1.70
   9   8  -3    3.33    1.05
   9   8  -3    4.66    1.64
   8   8  -3   -0.13    1.59
   8   8  -3    1.17    1.35
   8   8  -3   -0.68    0.88
   7   8  -3    1.36    1.40
   7   8  -3    1.27    1.39
   7   8  -3   -0.28    0.89
   6   8  -3    2.80    0.99
   6   8  -3    4.11    1.29
   5   8  -3    1.68    1.10
   5   8  -3    0.38    0.87
   5   8  -3    0.69    1.04
   4   8  -3    5.54    1.15
   4   8  -3    3.46    0.98
   4   8  -3    3.01    0.70
  -4  -8   3    5.05    0.89
   3   8  -3    3.46    0.87
   3   8  -3    4.44    1.01
  -3  -8   3    3.41    0.78
   2   8  -3    0.17    0.75
   2   8  -3    1.14    0.79
   2   8  -3    1.09    0.58
  -2  -8   3    1.00    0.73
   1   8  -3   -0.05    0.45
   1   8  -3    0.30    0.60
   1   8  -3    0.33    0.69
  -1  -8   3    0.28    0.75
   0   8  -3   76.62    2.82
   0   8  -3   77.71    2.89
   0  -8   3   75.36    2.69
  -1   8  -3    1.52    0.53
  -1   8  -3    1.56    0.56
   1  -8   3    1.89    0.73
  -2   8  -3   17.70    1.20
  -2   8  -3   15.83    1.26
   2  -8   3   17.88    1.40
   2  -8   3   14.88    1.24
  -3   8  -3   30.78    1.48
  -3   8  -3   31.76    1.67
   3  -8   3   31.69    1.59
   3  -8   3   31.24    1.57
  -4   8  -3    3.95    0.87
   4  -8   3    2.85    0.68
  -5   8  -3   10.78    1.22
   5  -8   3   10.27    1.13
  -6   8  -3    1.73    0.85
   6  -8   3    2.73    0.81
  -8   8  -3    3.00    1.15
  -9   8  -3    0.66    0.99
 -10   8  -3    1.00    1.09
 -11   8  -3    1.66    1.12
 -12   8  -3    1.73    1.19
 -13   8  -3    3.16    1.41
 -14   8  -3    3.42    1.49
  16  -8   3    0.89    1.72
  17  -8   3    3.24    1.90
  15   7  -3   -1.88    1.48
  14   7  -3    0.85    2.13
  14   7  -3    2.13    1.37
  13   7  -3   -1.25    1.71
  13   7  -3    0.93    1.17
  12   7  -3    2.26    1.12
  12   7  -3   -0.87    1.65
 -12  -7   3    0.92    1.53
  11   7  -3    1.09    1.02
 -11  -7   3    2.07    1.33
  10   7  -3    8.52    1.77
  10   7  -3    5.50    1.29
 -10  -7   3    8.85    1.38
   9   7  -3    1.13    1.45
   9   7  -3    0.26    0.97
  -9  -7   3    0.42    1.03
   8   7  -3   14.32    2.17
  -8  -7   3    9.27    1.18
   7   7  -3    1.60    1.22
   7   7  -3    1.36    0.92
  -7  -7   3    1.67    0.96
   6   7  -3    1.46    1.05
   6   7  -3    2.29    1.10
   6   7  -3    1.06    0.82
  -6  -7   3    0.86    0.83
   5   7  -3   11.95    1.50
   5   7  -3   11.68    1.43
   5   7  -3    9.58    1.43
  -5  -7   3   10.54    1.23
   4   7  -3    3.01    0.84
   4   7  -3    4.01    1.00
   4   7  -3    2.23    0.59
  -4  -7   3    3.31    0.73
   3   7  -3   -0.88    0.70
   3   7  -3    0.91    0.75
  -3  -7   3    0.22    0.63
   2   7  -3   -0.88    0.62
   2   7  -3    0.01    0.39
   2   7  -3   -0.07    0.69
  -2  -7   3   -0.53    0.59
   1   7  -3   77.39    2.78
   1   7  -3   71.44    2.56
   1   7  -3   74.17    2.69
  -1  -7   3   70.51    2.54
   0   7  -3   14.53    1.07
   0   7  -3   10.96    1.22
   0   7  -3   17.37    1.15
   0  -7   3   15.44    1.19
  -1   7  -3    0.07    0.55
  -1   7  -3    0.29    0.43
   1  -7   3    1.40    0.49
   1  -7   3    0.55    0.61
   1  -7   3    0.48    0.63
  -2   7  -3   17.61    1.14
  -2   7  -3   15.20    1.13
   2  -7   3   16.49    1.17
   2  -7   3   16.01    1.09
  -3   7  -3   -0.02    0.53
  -3   7  -3   -0.25    0.37
   3  -7   3   -0.06    0.40
   3  -7   3   -0.74    0.47
  -4   7  -3    5.86    0.87
   4  -7   3    5.68    0.86
  -5   7  -3    9.65    1.18
   5  -7   3    9.38    1.09
  -6   7  -3    0.57    0.58
   6  -7   3    0.78    0.67
  -7   7  -3    0.96    0.66
  -7   7  -3    1.69    0.78
  -8   7  -3    4.18    1.04
  -9   7  -3    2.31    1.16
 -10   7  -3    0.19    1.00
 -11   7  -3    1.24    1.13
 -12   7  -3    2.77    1.26
 -13   7  -3    0.37    1.24
 -14   7  -3    0.86    1.42
  14  -7   3    0.64    1.18
 -15   7  -3    8.56    1.86
  15  -7   3    5.48    1.50
  16  -7   3    1.07    1.35
  16  -7   3    0.15    1.67
  17  -7   3    1.74    1.83
  15   6  -3    2.00    1.46
  14   6  -3   -0.27    1.81
  14   6  -3    1.09    1.31
 -14  -6   3    3.44    1.67
  13   6  -3   -1.08    1.68
  13   6  -3    0.38    1.16
  12   6  -3    1.61    1.12
 -12  -6   3    4.13    1.55
  11   6  -3    1.37    1.50
  11   6  -3    0.15    1.01
 -11  -6   3    1.36    1.33
  10   6  -3    0.66    1.38
  10   6  -3    0.03    0.87
 -10  -6   3    0.10    1.10
   9   6  -3   -1.58    1.27
   9   6  -3    0.52    0.85
  -9  -6   3   -0.17    0.95
   8   6  -3    0.34    1.21
   8   6  -3    0.80    0.84
  -8  -6   3   -1.46    0.84
   7   6  -3    1.63    0.81
   7   6  -3    4.83    1.18
   7   6  -3    1.89    1.13
  -7  -6   3    3.01    0.86
   6   6  -3   10.14    1.50
   6   6  -3    9.40    1.14
  -6  -6   3    8.56    1.18
   5   6  -3    9.28    1.25
   5   6  -3   11.48    1.32
   5   6  -3   13.80    1.36
  -5  -6   3   10.68    1.10
   4   6  -3    0.77    0.50
   4   6  -3    1.51    0.76
   4   6  -3    0.11    0.76
  -4  -6   3    1.96    0.64
   3   6  -3    5.28    0.79
   3   6  -3    4.87    0.85
  -3  -6   3    5.35    0.71
   2   6  -3   24.15    1.30
   2   6  -3   27.15    1.35
   2   6  -3   25.85    1.40
  -2  -6   3   23.45    1.48
  -2  -6   3   24.99    1.25
   1   6  -3   14.25    1.00
   1   6  -3   14.50    0.98
   1   6  -3   13.69    1.05
  -1  -6   3   15.48    1.09
  -1  -6   3   14.87    1.05
   0   6  -3    7.99    0.85
   0   6  -3   10.33    0.91
   0   6  -3    8.84    0.96
   0  -6   3    9.83    0.93
   0  -6   3    9.81    0.97
  -1   6  -3    1.75    0.54
  -1   6  -3    3.15    0.56
  -1   6  -3    1.63    0.40
   1  -6   3    1.98    0.59
   1  -6   3    1.10    0.42
  -2   6  -3    0.50    0.49
  -2   6  -3    0.54    0.33
   2  -6   3    0.50    0.45
   2  -6   3    0.07    0.35
  -3   6  -3    8.33    1.00
   3  -6   3    8.31    0.85
   3  -6   3    9.06    0.81
  -4   6  -3    6.39    0.91
   4  -6   3    5.38    0.86
  -5   6  -3    8.78    0.99
   5  -6   3    8.83    1.07
  -6   6  -3    2.03    0.69
  -6   6  -3    0.84    0.64
  -7   6  -3    0.15    0.62
  -8   6  -3    7.73    1.15
  -9   6  -3    1.66    1.05
 -10   6  -3    3.65    1.17
 -11   6  -3    8.22    1.47
 -12   6  -3    2.29    1.22
 -13   6  -3    3.38    1.33
 -14   6  -3    6.98    1.75
 -15   6  -3    1.68    1.62
  15  -6   3    0.72    1.15
  16  -6   3    1.55    1.34
  17  -6   3    0.59    1.52
  17  -6   3    0.70    1.71
  18  -6   3    1.54    2.25
  16   5  -3   -1.93    1.54
  15   5  -3   -0.51    1.88
  15   5  -3    3.13    1.52
 -15  -5   3    4.27    1.80
  14   5  -3    0.68    1.19
  14   5  -3   -0.47    1.63
 -14  -5   3    2.20    1.65
  13   5  -3    0.10    1.01
 -13  -5   3   -1.40    1.28
  12   5  -3   -1.45    1.47
  12   5  -3    0.56    1.07
 -12  -5   3    1.89    1.39
  11   5  -3   -0.33    1.33
  11   5  -3   -0.56    0.99
 -11  -5   3    0.04    1.17
  10   5  -3   -0.30    0.89
  10   5  -3    4.93    1.37
 -10  -5   3    1.06    1.03
   9   5  -3    5.30    1.28
   9   5  -3    1.64    0.87
  -9  -5   3    3.17    1.03
   8   5  -3   -0.55    0.79
   8   5  -3    0.40    1.04
  -8  -5   3   -1.44    0.79
   7   5  -3    0.74    0.88
  -7  -5   3    0.24    0.72
   6   5  -3    5.44    0.78
   6   5  -3    6.84    1.03
   6   5  -3    7.84    1.24
  -6  -5   3    7.62    1.09
  -6  -5   3    7.02    1.07
   5   5  -3   34.49    1.61
   5   5  -3   37.35    1.94
  -5  -5   3   35.80    1.53
  -5  -5   3   31.83    1.71
   4   5  -3   -0.45    0.43
   4   5  -3   -0.42    0.69
   4   5  -3   -0.06    0.60
  -4  -5   3    0.50    0.71
  -4  -5   3    1.34    0.60
   3   5  -3   15.40    1.03
   3   5  -3   13.13    1.00
   3   5  -3   12.24    1.15
  -3  -5   3   12.70    1.10
  -3  -5   3   15.19    0.95
   2   5  -3   15.36    0.96
   2   5  -3   15.74    0.97
   2   5  -3   16.05    1.08
  -2  -5   3   13.93    1.07
  -2  -5   3   15.22    0.94
   1   5  -3    0.96    0.51
   1   5  -3    0.57    0.45
   1   5  -3    0.97    0.38
  -1  -5   3    0.83    0.31
  -1  -5   3    1.31    0.48
  -1  -5   3    1.56    0.52
   0   5  -3   16.33    0.89
   0   5  -3   16.92    0.98
   0   5  -3   15.42    0.96
   0  -5   3   16.62    0.96
   0  -5   3   16.49    0.88
   0  -5   3   15.92    0.96
  -1   5  -3    9.18    0.79
  -1   5  -3    8.89    0.83
  -1   5  -3   10.31    0.70
   1  -5   3   10.31    0.82
   1  -5   3   10.50    0.70
   1  -5   3    9.66    0.83
  -2   5  -3   22.97    1.05
  -2   5  -3   22.77    1.23
   2  -5   3   21.76    1.14
   2  -5   3   20.65    1.02
   2  -5   3   22.50    1.11
   2  -5   3   21.32    1.06
  -3   5  -3    6.45    0.93
   3  -5   3    8.34    0.69
   3  -5   3    6.49    0.87
  -4   5  -3    0.51    0.49
   4  -5   3    0.14    0.32
   4  -5   3   -0.10    0.53
  -5   5  -3    2.17    0.61
   5  -5   3    1.65    0.68
  -6   5  -3   17.17    1.26
  -7   5  -3    3.66    0.75
  -8   5  -3    5.46    0.92
  -9   5  -3    4.67    1.21
 -10   5  -3    5.43    1.31
 -11   5  -3    3.14    1.23
 -12   5  -3    0.34    1.15
 -13   5  -3    2.88    1.38
 -14   5  -3    2.53    1.41
 -15   5  -3    1.10    1.50
  15  -5   3   -0.40    1.22
  16  -5   3    0.91    1.37
  17  -5   3    2.39    1.60
  17  -5   3    2.24    1.88
  18  -5   3    1.26    2.09
  16   4  -3    1.60    1.45
 -16  -4   3    3.03    2.03
  15   4  -3    3.68    1.94
  15   4  -3    2.31    1.29
 -15  -4   3    2.07    1.71
  14   4  -3    1.68    1.21
 -14  -4   3   -0.14    1.44
  13   4  -3    0.75    1.72
  13   4  -3    0.86    1.12
 -13  -4   3   -1.66    1.22
  12   4  -3    3.00    1.61
  12   4  -3    2.09    1.05
 -12  -4   3    2.65    1.45
  11   4  -3   -0.74    0.87
  11   4  -3   -1.51    1.34
 -11  -4   3    1.53    1.19
  10   4  -3    3.86    1.06
  10   4  -3    5.95    1.39
 -10  -4   3    6.74    1.18
   9   4  -3    1.58    0.93
   9   4  -3    2.64    1.23
  -9  -4   3    2.48    0.95
   8   4  -3   -0.16    1.04
  -8  -4   3   -0.15    0.78
   7   4  -3    8.19    1.27
   7   4  -3   10.78    1.16
  -7  -4   3    9.88    1.16
   6   4  -3   11.79    1.14
   6   4  -3   11.55    1.23
  -6  -4   3   11.43    1.06
  -6  -4   3   10.99    1.28
   5   4  -3    0.33    0.63
   5   4  -3    0.17    0.47
   5   4  -3    0.06    0.59
  -5  -4   3    0.05    0.58
  -5  -4   3   -0.67    0.53
   4   4  -3   47.56    1.77
   4   4  -3   46.26    2.05
   4   4  -3   47.35    1.73
  -4  -4   3   49.16    1.74
  -4  -4   3   46.15    1.79
   3   4  -3   14.82    0.97
   3   4  -3   13.72    1.15
   3   4  -3   14.91    0.94
  -3  -4   3   18.46    1.05
  -3  -4   3   16.83    0.89
   2   4  -3    8.78    0.93
   2   4  -3    9.70    0.76
   2   4  -3    9.65    0.79
  -2  -4   3   10.76    0.79
  -2  -4   3   10.35    0.74
  -2  -4   3    8.87    0.75
   1   4  -3   10.75    0.88
   1   4  -3   10.80    0.73
   1   4  -3    8.69    0.75
  -1  -4   3   10.91    0.76
  -1  -4   3    9.89    0.81
  -1  -4   3    9.38    0.75
   0   4  -3    4.68    0.70
   0   4  -3    5.21    0.73
   0   4  -3    4.19    0.60
   0  -4   3    5.46    0.60
   0  -4   3    5.25    0.65
   0  -4   3    4.94    0.77
  -1   4  -3   28.74    1.17
  -1   4  -3   29.55    1.19
  -1   4  -3   26.09    1.26
   1  -4   3   28.39    1.13
   1  -4   3   26.92    1.19
   1  -4   3   29.30    1.29
  -2   4  -3   16.49    1.05
   2  -4   3   16.94    0.84
   2  -4   3   17.49    1.04
   2  -4   3   16.88    0.98
  -3   4  -3    0.29    0.52
   3  -4   3    0.49    0.51
   3  -4   3    0.94    0.45
   3  -4   3    0.39    0.40
   3  -4   3    0.21    0.30
  -4   4  -3   90.77    3.10
   4  -4   3   89.28    3.02
  -5   4  -3   20.46    1.23
  -6   4  -3   88.86    3.09
  -7   4  -3    0.49    0.56
  -8   4  -3    0.48    0.63
  -9   4  -3    3.62    0.84
 -10   4  -3    3.93    1.13
 -11   4  -3   -0.15    1.00
 -12   4  -3    0.75    1.23
 -13   4  -3    4.25    1.45
 -14   4  -3    0.43    1.28
 -15   4  -3    2.53    1.62
  15  -4   3    2.15    1.30
  16  -4   3    0.32    1.36
  17  -4   3    2.12    1.95
  17  -4   3    1.81    1.64
  17   3  -3    0.98    1.65
 -17  -3   3    0.14    2.18
  16   3  -3   -0.52    1.36
  16   3  -3    0.77    2.02
 -16  -3   3    3.59    1.93
  15   3  -3    1.66    1.26
  15   3  -3   -0.76    1.72
 -15  -3   3   -0.26    1.62
  14   3  -3    0.66    1.18
  14   3  -3   -0.01    1.63
 -14  -3   3    0.72    1.41
  13   3  -3    0.79    0.97
  13   3  -3   -0.57    1.41
 -13  -3   3   -1.95    1.21
  12   3  -3    0.29    0.92
  12   3  -3   -0.50    1.29
  11   3  -3   12.85    1.88
 -11  -3   3   12.98    1.81
  10   3  -3   11.19    1.62
  10   3  -3    6.76    1.11
 -10  -3   3    8.92    1.28
   9   3  -3    7.31    1.05
   9   3  -3    3.71    0.94
  -9  -3   3    5.30    1.02
   8   3  -3   11.69    1.27
   8   3  -3   10.49    1.30
  -8  -3   3   11.08    1.23
   7   3  -3   19.16    1.47
   7   3  -3   19.35    1.27
  -7  -3   3   17.20    1.27
   6   3  -3    6.36    0.84
   6   3  -3    3.75    0.76
   6   3  -3    3.80    0.62
  -6  -3   3    5.27    0.72
   5   3  -3   11.60    0.91
   5   3  -3   12.01    0.94
   5   3  -3   11.62    1.21
  -5  -3   3   13.10    0.94
  -5  -3   3   11.54    0.94
   4   3  -3   48.11    2.05
   4   3  -3   48.40    1.72
   4   3  -3   50.09    1.74
  -4  -3   3   49.44    1.75
  -4  -3   3   50.23    1.71
   3   3  -3    6.32    0.61
   3   3  -3    6.68    0.92
   3   3  -3    6.87    0.64
  -3  -3   3    6.96    0.68
  -3  -3   3    4.86    0.68
  -3  -3   3    5.82    0.81
   2   3  -3   19.80    0.97
   2   3  -3   24.33    0.99
   2   3  -3   21.18    1.24
  -2  -3   3   22.59    1.03
  -2  -3   3   22.27    0.99
  -2  -3   3   21.41    1.16
   1   3  -3    0.19    0.41
   1   3  -3    1.38    0.46
   1   3  -3    0.64    0.38
  -1  -3   3    0.29    0.31
  -1  -3   3    0.27    0.40
   0   3  -3   -0.12    0.39
   0   3  -3   -0.02    0.45
   0   3  -3    0.51    0.31
   0  -3   3    0.29    0.50
   0  -3   3    0.45    0.29
   0  -3   3    0.53    0.39
  -1   3  -3   20.39    1.08
  -1   3  -3   22.96    1.05
  -1   3  -3   20.21    1.06
   1  -3   3   22.94    1.07
   1  -3   3   21.51    1.19
   1  -3   3   24.02    1.00
  -2   3  -3    3.05    0.54
  -2   3  -3    3.70    0.64
   2  -3   3    2.89    0.58
   2  -3   3    3.24    0.55
   3  -3   3   11.59    0.98
   3  -3   3   12.99    0.85
   3  -3   3   14.25    0.92
   4  -3   3    1.07    0.47
   4  -3   3    0.49    0.54
   4  -3   3    0.57    0.44
  -5   3  -3   14.08    0.97
  -6   3  -3    5.03    0.82
  -7   3  -3    1.69    0.59
  -8   3  -3   -0.27    0.59
  -9   3  -3   20.68    1.50
 -10   3  -3    1.03    1.03
 -11   3  -3    2.74    1.16
 -12   3  -3    1.64    1.21
 -13   3  -3    0.36    1.28
 -14   3  -3    1.77    1.45
 -15   3  -3    1.99    1.51
  16  -3   3    1.41    1.48
  16  -3   3    3.15    1.76
  17  -3   3    1.46    1.61
  17  -3   3    3.09    2.02
  17   2  -3   -0.73    1.47
 -17  -2   3    2.02    2.16
  16   2  -3   -0.04    1.75
  16   2  -3   -0.91    1.21
 -16  -2   3   -0.79    1.75
  15   2  -3    1.25    1.24
 -15  -2   3    1.33    1.54
  14   2  -3    2.12    1.63
  14   2  -3    3.53    1.14
 -14  -2   3    2.04    1.45
  13   2  -3    0.57    1.06
  13   2  -3    0.67    1.43
 -13  -2   3   -1.57    1.20
  12   2  -3    0.02    1.16
  12   2  -3   -0.33    0.90
 -12  -2   3   -0.98    1.03
  11   2  -3    6.29    1.15
  11   2  -3    9.28    1.34
 -11  -2   3   10.15    1.41
  10   2  -3   12.70    1.49
  10   2  -3    7.74    1.12
 -10  -2   3   12.24    1.58
   9   2  -3    2.92    0.89
   9   2  -3    0.95    0.60
  -9  -2   3    1.94    0.87
   8   2  -3   12.54    1.20
   8   2  -3   11.10    1.10
  -8  -2   3   10.48    1.15
   7   2  -3   12.92    1.19
   7   2  -3   12.72    0.98
  -7  -2   3   11.62    1.08
   6   2  -3    2.43    0.66
   6   2  -3    1.54    0.44
   6   2  -3    2.57    0.56
  -6  -2   3    1.94    0.57
   5   2  -3    7.35    0.94
   5   2  -3    8.56    0.73
  -5  -2   3    8.52    0.80
   4   2  -3    5.71    0.60
  -4  -2   3    6.82    0.77
  -4  -2   3    5.25    0.68
   3   2  -3    0.47    0.43
   3   2  -3    0.70    0.39
  -3  -2   3    0.32    0.35
  -3  -2   3    0.79    0.47
   2   2  -3    2.32    0.44
   2   2  -3    2.55    0.36
   2   2  -3    3.76    0.51
  -2  -2   3    3.54    0.51
  -2  -2   3    2.59    0.41
  -2  -2   3    3.00    0.50
   1   2  -3  130.98    3.68
   1   2  -3  122.30    3.69
   1   2  -3  123.27    3.81
  -1  -2   3  125.48    3.79
  -1  -2   3  127.62    3.68
  -1  -2   3  121.57    3.68
   0   2  -3    6.20    0.55
   0   2  -3    6.19    0.63
   0   2  -3    5.66    0.66
   0  -2   3    6.31    0.56
   0  -2   3    6.20    0.50
   0  -2   3    5.79    0.71
  -1   2  -3  109.35    3.26
   1  -2   3  107.31    3.32
   1  -2   3  107.25    3.28
  -2   2  -3  104.18    3.19
   2  -2   3  102.78    3.19
   2  -2   3  103.48    3.28
   3  -2   3    5.37    0.66
   3  -2   3    5.79    0.61
   4  -2   3   31.31    1.37
   4  -2   3   32.20    1.29
  -5   2  -3    4.92    0.74
  -6   2  -3    7.22    0.88
  -7   2  -3    0.79    0.56
  -8   2  -3    6.67    1.08
  -9   2  -3   12.68    1.38
 -10   2  -3    8.52    1.29
 -11   2  -3    1.03    1.09
 -12   2  -3    1.00    1.14
 -13   2  -3   -0.52    1.19
 -14   2  -3    2.78    1.48
  16  -2   3    6.03    2.18
  16  -2   3    1.62    1.74
  16  -2   3   -1.28    1.37
  17  -2   3    1.38    1.57
  17  -2   3    1.22    2.27
  17  -2   3    0.20    1.90
  18   1  -3    1.05    1.67
 -18  -1   3    3.96    2.34
  17   1  -3   -0.34    1.48
 -17  -1   3    2.68    1.96
  16   1  -3   -0.59    1.23
 -16  -1   3    0.75    1.72
  15   1  -3    4.10    1.30
 -15  -1   3    7.99    1.71
  14   1  -3    0.49    1.53
  14   1  -3    0.30    1.05
 -14  -1   3   -1.39    1.31
  13   1  -3   -0.91    1.27
  13   1  -3    1.24    1.00
  12   1  -3    1.81    0.90
  12   1  -3   -0.64    1.11
 -12  -1   3   -0.87    1.06
  11   1  -3    0.40    1.01
  11   1  -3    0.00    0.80
 -11  -1   3   -0.18    0.96
  10   1  -3    0.68    0.89
  10   1  -3    0.58    0.70
 -10  -1   3    1.55    0.93
   9   1  -3   40.36    2.11
   9   1  -3   37.70    1.83
  -9  -1   3   37.84    1.93
   8   1  -3   16.04    1.17
   8   1  -3   16.90    1.28
  -8  -1   3   16.27    1.24
   7   1  -3    0.35    0.35
   7   1  -3    0.38    0.56
  -7  -1   3    1.40    0.58
   6   1  -3    4.94    0.78
   6   1  -3    5.75    0.72
   6   1  -3    6.49    0.80
  -6  -1   3    5.81    0.75
   5   1  -3    6.79    0.63
  -5  -1   3    5.87    0.71
   4   1  -3    2.32    0.41
  -4  -1   3    2.76    0.38
   3   1  -3   20.66    0.96
   3   1  -3   21.67    1.17
  -3  -1   3   20.17    1.11
  -3  -1   3   18.57    1.00
   2   1  -3    6.93    0.70
   2   1  -3    5.43    0.56
  -2  -1   3    6.79    0.66
  -2  -1   3    4.09    0.62
   1   1  -3    7.61    0.56
  -1  -1   3    7.66    0.56
  -1  -1   3    7.94    0.60
   0   1  -3    3.97    0.53
   0  -1   3    3.39    0.56
   0  -1   3    3.57    0.55
  -1   1  -3    1.47    0.39
   1  -1   3    1.69    0.41
  -2   1  -3   20.54    0.98
   2  -1   3   20.46    1.00
   3  -1   3   35.10    1.37
   3  -1   3   33.74    1.28
   4  -1   3    4.45    0.60
   4  -1   3    5.35    0.69
  -5   1  -3    0.42    0.42
   5  -1   3   -0.29    0.42
  -6   1  -3   40.17    1.68
  -7   1  -3   14.10    1.12
  -8   1  -3   19.89    1.43
  -9   1  -3    2.18    0.91
 -10   1  -3    0.85    1.00
 -11   1  -3    2.69    1.10
 -12   1  -3    1.53    1.21
 -13   1  -3    4.81    1.37
  14  -1   3    7.71    1.99
  15  -1   3    0.51    1.82
  15  -1   3    1.42    1.62
  16  -1   3    0.23    1.52
  16  -1   3    1.84    1.75
  16  -1   3    2.37    2.21
  17  -1   3    1.51    1.67
  17  -1   3    7.25    2.52
  17  -1   3    0.98    2.13
  18   0  -3   -0.70    1.65
 -18   0   3    0.34    2.18
  17   0  -3    2.70    2.00
  17   0  -3   -1.49    1.54
 -17   0   3    1.10    1.93
  16   0  -3    0.68    1.72
  16   0  -3    0.99    1.29
 -16   0   3    0.69    1.70
  15   0  -3    1.54    1.10
  15   0  -3    2.91    1.83
 -15   0   3    3.85    1.63
  14   0  -3   -1.16    1.43
  14   0  -3    0.95    1.08
 -14   0   3   -0.91    1.20
  13   0  -3    1.04    1.34
  13   0  -3    1.28    0.92
 -13   0   3   -1.36    1.11
  12   0  -3   -1.13    1.23
  12   0  -3    0.51    0.86
 -12   0   3   -0.10    1.08
  10   0  -3    1.58    0.76
 -10   0   3    2.20    0.90
   9   0  -3    3.55    0.91
   9   0  -3    3.42    0.70
  -9   0   3    3.11    0.84
   8   0  -3    0.82    0.48
   8   0  -3    1.74    0.68
  -8   0   3    2.31    0.64
   7   0  -3    0.31    0.51
   7   0  -3    0.16    0.35
  -7   0   3    0.33    0.48
   6   0  -3    0.45    0.33
  -6   0   3    1.26    0.47
   5   0  -3   12.87    0.73
   5   0  -3   10.60    0.88
  -5   0   3   10.48    0.81
  -5   0   3   12.03    0.81
   4   0  -3    0.61    0.36
   4   0  -3    0.28    0.39
  -4   0   3    0.11    0.44
  -4   0   3    0.04    0.27
   3   0  -3   56.96    1.96
   3   0  -3   54.28    1.90
  -3   0   3   60.23    1.96
  -3   0   3   56.72    1.93
   2   0  -3   21.07    0.91
   2   0  -3   20.74    0.92
  -2   0   3   19.59    0.91
  -2   0   3   21.57    0.89
   1   0  -3   28.30    1.03
  -1   0   3   28.90    1.00
  -1   0   3   28.60    1.05
  -1   0   3   30.12    1.10
   0   0  -3  230.32    6.44
   0   0   3  226.96    6.44
  -1   0  -3    0.66    0.33
   1   0   3    0.59    0.35
  -2   0  -3  192.95    5.54
   2   0   3  194.54    5.55
   3   0   3    0.15    0.40
   3   0   3    0.03    0.31
   4   0   3   28.19    1.18
   4   0   3   28.66    1.19
  -5   0  -3   36.67    1.47
   5   0   3   36.29    1.48
  -6   0  -3   20.25    1.17
   6   0   3   21.39    1.26
  -7   0  -3    5.23    0.81
  -8   0  -3    1.59    0.78
  -9   0  -3    7.94    1.19
 -10   0  -3    5.07    1.18
 -12   0  -3    1.81    1.18
  12   0   3    2.56    1.44
 -13   0  -3    6.63    1.53
  13   0   3    5.87    1.74
  14   0   3    0.02    1.70
  15   0   3    3.37    1.85
  15   0   3    0.78    1.59
  16   0   3    0.27    1.49
  16   0   3    2.18    2.22
  16   0   3    1.07    1.88
  17   0   3    2.27    1.64
  17   0   3    2.06    2.27
  17   0   3    1.33    2.44
  18  -1  -3   -0.20    1.53
 -18   1   3   -0.95    2.00
  17  -1  -3    2.39    1.85
  17  -1  -3   -0.59    1.37
 -17   1   3    2.70    1.83
  16  -1  -3   -1.38    1.20
  16  -1  -3    2.04    1.71
 -16   1   3    0.12    1.61
  15  -1  -3   -0.86    1.04
 -15   1   3    0.21    1.39
  14  -1  -3    0.65    0.95
 -14   1   3   -0.16    1.31
  13  -1  -3    4.78    1.01
 -13   1   3    3.74    1.25
 -12   1   3    3.89    1.21
  11  -1  -3    0.78    0.83
 -11   1   3    0.94    1.00
  10  -1  -3   10.81    1.59
 -10   1   3   10.63    1.26
   9  -1  -3    0.36    0.54
   9  -1  -3    0.91    0.79
  -9   1   3    0.38    0.59
   8  -1  -3    2.29    0.54
   8  -1  -3    3.50    0.75
  -8   1   3    4.33    0.72
   7  -1  -3    0.09    0.37
   7  -1  -3   -0.16    0.53
  -7   1   3    0.07    0.43
   6  -1  -3   17.54    0.90
   6  -1  -3   15.15    1.04
  -6   1   3   17.12    0.98
   5  -1  -3   28.56    1.25
   5  -1  -3   26.58    1.17
   5  -1  -3   28.39    1.08
  -5   1   3   26.84    1.24
  -5   1   3   29.57    1.25
   4  -1  -3   38.55    1.48
   4  -1  -3   39.45    1.35
   4  -1  -3   40.84    1.50
  -4   1   3   39.25    1.52
  -4   1   3   39.45    1.33
  -4   1   3   43.22    1.50
   3  -1  -3   81.66    2.55
   3  -1  -3   77.85    2.45
   3  -1  -3   82.22    2.56
  -3   1   3   81.87    2.46
  -3   1   3   81.00    2.56
  -3   1   3   82.97    2.54
   2  -1  -3   13.18    0.74
   2  -1  -3   13.19    0.63
  -2   1   3   12.28    0.74
  -2   1   3   13.81    0.70
  -2   1   3   13.00    0.67
   1  -1  -3  157.91    4.76
   1  -1  -3  165.62    4.63
  -1   1   3  160.71    4.77
  -1   1   3  165.25    4.63
   0  -1  -3  381.77   10.41
   0  -1  -3  374.36   10.81
   0   1   3  366.88   10.81
   0   1   3  376.94   10.41
  -1  -1  -3    0.28    0.35
   1   1   3    0.70    0.35
   1   1   3   -0.38    0.47
  -2  -1  -3    4.05    0.52
   2   1   3    5.52    0.78
   2   1   3    5.70    0.61
   3   1   3   37.58    1.33
   3   1   3   38.54    1.66
   3   1   3   38.94    1.36
   4   1   3   12.69    0.80
   4   1   3   12.80    0.81
   4   1   3   12.20    1.01
   5   1   3   -0.08    0.46
   5   1   3    0.98    0.51
   5   1   3    0.19    0.47
  -6  -1  -3   53.13    1.95
   6   1   3   53.75    2.17
   6   1   3   50.17    1.94
  -7  -1  -3    0.63    0.66
   7   1   3    0.59    0.67
  -8  -1  -3    3.17    0.86
   8   1   3    3.04    1.05
  -9  -1  -3    3.98    1.01
   9   1   3    3.53    1.19
 -10  -1  -3   11.10    1.35
  10   1   3    8.98    1.60
 -11  -1  -3    0.30    1.08
  11   1   3    1.29    1.37
  12   1   3    4.42    1.48
  13   1   3    3.64    1.74
  14   1   3    2.45    1.48
  14   1   3    2.17    1.81
  15   1   3    1.80    1.44
  15   1   3   -1.24    1.88
  15   1   3    1.03    1.64
  16   1   3    1.96    1.98
  16   1   3    0.48    1.58
  16   1   3    3.91    2.46
  18  -2  -3   -2.04    1.50
 -18   2   3   -0.34    2.08
  17  -2  -3    0.59    1.89
  17  -2  -3   -0.46    1.33
 -17   2   3    3.07    1.87
  16  -2  -3    0.17    1.11
 -16   2   3   -2.27    1.43
  15  -2  -3    0.17    1.06
 -15   2   3    1.39    1.38
  14  -2  -3    6.10    1.15
 -14   2   3    8.51    1.58
  13  -2  -3    0.57    0.85
 -13   2   3   -1.63    1.04
  12  -2  -3    1.26    0.87
 -12   2   3   -0.29    1.04
  11  -2  -3    0.67    0.72
 -11   2   3   -0.33    0.93
  10  -2  -3    1.11    0.62
 -10   2   3    1.11    0.70
   9  -2  -3   -0.21    0.51
   9  -2  -3    1.15    0.90
  -9   2   3    0.38    0.53
   8  -2  -3   21.86    1.34
   8  -2  -3   20.66    1.39
  -8   2   3   23.12    1.26
   7  -2  -3    8.02    0.95
   7  -2  -3    5.59    0.93
  -7   2   3    7.53    0.89
   6  -2  -3    8.19    0.78
   6  -2  -3    6.43    0.82
  -6   2   3    7.41    0.74
  -6   2   3    7.77    0.82
   5  -2  -3   40.18    1.57
   5  -2  -3   39.30    1.47
   5  -2  -3   40.13    1.44
  -5   2   3   42.24    1.53
  -5   2   3   38.65    1.45
  -5   2   3   37.76    1.56
   4  -2  -3   36.91    1.45
   4  -2  -3   35.54    1.35
   4  -2  -3   36.91    1.36
  -4   2   3   35.98    1.45
  -4   2   3   37.72    1.35
  -4   2   3   38.64    1.36
   3  -2  -3    0.33    0.41
   3  -2  -3    0.02    0.46
  -3   2   3    0.73    0.24
  -3   2   3    0.47    0.45
  -3   2   3    0.11    0.42
   2  -2  -3  187.22    5.65
   2  -2  -3  192.36    5.51
  -2   2   3  189.24    5.51
  -2   2   3  201.46    5.70
   1  -2  -3    8.92    0.74
   1  -2  -3    8.04    0.60
  -1   2   3    9.77    0.91
  -1   2   3    7.22    0.58
   0  -2  -3    3.32    0.40
   0  -2  -3    2.97    0.55
   0   2   3    2.95    0.58
   0   2   3    2.31    0.37
  -1  -2  -3   21.20    1.10
  -1  -2  -3   22.27    0.84
   1   2   3   20.70    0.82
   1   2   3   20.57    1.17
  -2  -2  -3    0.81    0.45
   2   2   3    0.49    0.33
   2   2   3    0.82    0.52
   3   2   3   15.60    0.77
   3   2   3   15.79    1.08
   3   2   3   14.52    0.72
   4   2   3   61.69    2.00
   4   2   3   60.04    1.97
   4   2   3   63.92    2.32
   5   2   3    4.97    0.75
   5   2   3    4.89    0.72
   5   2   3    4.77    0.75
   6   2   3    2.92    0.66
   6   2   3    2.43    0.69
   7   2   3    2.36    0.78
   7   2   3    1.60    0.76
   8   2   3   -1.17    0.89
  10   2   3    1.96    1.28
  11   2   3    0.54    1.36
  12   2   3    4.68    1.62
  13   2   3    0.99    1.63
  13   2   3   -0.04    1.30
  14   2   3    1.62    1.58
  14   2   3    0.86    1.81
  15   2   3   -0.35    1.71
  15   2   3   -1.22    2.06
  15   2   3   -0.50    1.28
  16   2   3   -0.85    2.10
  16   2   3   -0.26    1.50
  18  -3  -3   -0.95    1.46
 -18   3   3    1.72    2.09
  17  -3  -3   -2.32    1.21
 -17   3   3    0.74    1.62
  16  -3  -3   -0.86    1.08
 -16   3   3   -0.14    1.51
  15  -3  -3    3.67    1.09
 -15   3   3    5.81    1.45
  14  -3  -3    2.06    0.94
 -14   3   3    3.44    1.36
  13  -3  -3    1.70    0.89
 -13   3   3    0.05    1.05
  12  -3  -3    0.93    0.80
 -12   3   3    0.85    1.09
  11  -3  -3   -0.21    0.67
 -11   3   3   -0.69    0.84
  10  -3  -3    0.03    0.60
   9  -3  -3    0.29    0.50
  -9   3   3    0.57    0.54
   8  -3  -3    0.78    0.46
   8  -3  -3    0.63    0.77
  -8   3   3    0.81    0.54
   7  -3  -3    6.02    0.99
   7  -3  -3    3.15    0.47
  -7   3   3    4.70    0.76
  -7   3   3    5.38    0.84
   6  -3  -3   43.80    1.68
   6  -3  -3   46.39    1.78
  -6   3   3   45.06    1.73
  -6   3   3   46.50    1.85
  -6   3   3   46.74    1.70
   5  -3  -3   50.84    1.79
   5  -3  -3   52.85    1.88
  -5   3   3   56.77    1.84
  -5   3   3   51.84    1.87
  -5   3   3   53.68    1.98
   4  -3  -3    2.30    0.43
   4  -3  -3    1.21    0.42
  -4   3   3    1.02    0.41
  -4   3   3    1.00    0.26
  -4   3   3    1.15    0.44
   3  -3  -3    6.47    0.63
   3  -3  -3    5.63    0.76
  -3   3   3    6.37    0.65
  -3   3   3    6.97    0.64
  -3   3   3    4.54    0.78
   2  -3  -3    0.43    0.38
  -2   3   3   -0.34    0.34
  -2   3   3   -0.67    0.51
   1  -3  -3   28.54    1.27
   1  -3  -3   27.04    1.04
  -1   3   3   25.81    1.36
  -1   3   3   26.15    1.01
   0  -3  -3    9.91    0.87
   0  -3  -3    9.09    0.58
   0   3   3    8.42    0.53
   0   3   3    9.00    1.17
  -1  -3  -3   18.68    1.05
   1   3   3   19.11    1.22
  -2  -3  -3   36.04    1.47
   2   3   3   36.54    1.62
   3   3   3    6.91    0.91
   4   3   3   32.14    1.53
   5   3   3    7.01    0.74
   5   3   3    5.06    0.73
   5   3   3    6.24    0.90
   6   3   3    0.96    0.64
   6   3   3    0.93    0.62
   6   3   3    1.36    0.58
   7   3   3    2.67    0.76
   7   3   3    3.64    0.85
   7   3   3    2.89    0.91
   8   3   3    3.14    0.85
   8   3   3    3.44    1.11
   9   3   3    1.59    1.21
   9   3   3    0.93    0.93
  10   3   3    0.09    0.98
  10   3   3   -0.06    1.17
  11   3   3    1.12    1.35
  11   3   3    0.97    1.17
  12   3   3    2.77    1.38
  12   3   3    1.40    1.58
  13   3   3   -2.96    1.72
  14   3   3    2.50    1.63
  15   3   3    2.33    2.04
  15   3   3   -0.03    1.52
  15   3   3   -0.28    2.18
  16   3   3   -2.79    2.34
 -19   4   3   -0.28    2.25
  18  -4  -3   -0.80    1.40
 -18   4   3   -1.73    1.84
  17  -4  -3   -0.55    1.22
 -17   4   3    1.57    1.73
  16  -4  -3   -1.59    1.06
 -16   4   3   -0.07    1.57
  15  -4  -3    2.10    1.10
 -15   4   3    4.88    1.49
  14  -4  -3   -0.18    0.95
 -14   4   3    0.32    1.12
  13  -4  -3    2.91    0.89
 -13   4   3    2.51    1.25
  12  -4  -3    2.56    0.84
 -12   4   3    1.32    1.04
  11  -4  -3    2.21    0.72
 -11   4   3    1.45    0.95
  10  -4  -3   17.51    1.49
 -10   4   3   13.58    1.62
   9  -4  -3   22.96    1.39
  -9   4   3   21.51    1.41
   8  -4  -3    3.42    0.50
  -8   4   3    4.32    0.82
  -8   4   3    4.81    0.79
   7  -4  -3    4.61    0.86
   7  -4  -3    2.49    0.41
  -7   4   3    3.67    0.71
  -7   4   3    3.46    0.66
   6  -4  -3    8.05    1.03
  -6   4   3    7.51    0.88
  -6   4   3    6.76    0.88
  -5   4   3    4.61    0.75
  -5   4   3    3.77    0.66
   4  -4  -3    5.55    0.64
   4  -4  -3    5.66    0.65
  -4   4   3    4.48    0.64
  -4   4   3    4.44    0.61
   3  -4  -3    2.31    0.44
   3  -4  -3    2.95    0.50
  -3   4   3    1.82    0.58
  -3   4   3    2.70    0.50
   2  -4  -3   63.95    2.24
   2  -4  -3   67.76    2.12
  -2   4   3   64.74    2.10
  -2   4   3   66.06    2.38
   1  -4  -3   11.48    0.71
   1  -4  -3   11.08    0.90
  -1   4   3   10.82    1.12
  -1   4   3   10.58    0.64
   0  -4  -3   13.76    1.00
   0   4   3   13.46    0.62
   0   4   3   14.23    1.19
   1   4   3    3.39    0.98
   2   4   3    1.09    0.62
   3   4   3   14.79    1.14
   4   4   3   -0.30    0.49
   5   4   3    4.87    0.80
   6   4   3   -0.85    0.73
   7   4   3   13.76    1.26
   7   4   3   13.84    1.17
   7   4   3   17.15    1.75
   8   4   3    5.15    1.05
   8   4   3    5.79    0.94
   9   4   3    4.55    1.04
   9   4   3    3.86    1.43
  10   4   3    5.57    1.57
  10   4   3    9.72    1.28
  11   4   3    0.44    1.30
  11   4   3   -1.15    1.46
  12   4   3   -0.61    1.51
  12   4   3   -0.23    1.68
  13   4   3   -0.93    1.81
  13   4   3    0.79    1.82
  14   4   3    2.49    1.88
  14   4   3    0.56    1.35
  14   4   3   -2.42    1.89
  15   4   3   -1.83    1.45
  15   4   3    1.78    2.24
  18  -5  -3   -2.07    1.40
 -18   5   3   -1.37    1.85
 -17   5   3    1.51    1.62
  16  -5  -3   -0.38    1.04
 -16   5   3    2.75    1.50
  15  -5  -3   -0.68    1.06
 -15   5   3   -0.06    1.21
  14  -5  -3   -0.54    0.88
 -14   5   3   -0.18    1.11
  13  -5  -3    0.61    0.81
 -13   5   3   -1.05    1.06
  12  -5  -3    0.73    0.73
 -12   5   3   -1.51    0.93
  11  -5  -3    1.56    0.69
 -11   5   3    0.11    0.93
  10  -5  -3   10.97    1.31
 -10   5   3    9.10    1.44
  -9   5   3    0.42    0.62
  -9   5   3    0.48    0.75
  -8   5   3   -0.04    0.61
  -8   5   3    0.49    0.70
  -7   5   3   29.19    1.54
  -7   5   3   31.36    1.52
  -6   5   3   11.64    1.02
  -6   5   3   12.38    0.96
  -5   5   3    7.91    0.80
  -5   5   3    9.20    0.92
   4  -5  -3    8.42    0.80
  -4   5   3    6.28    0.68
  -4   5   3    6.65    0.85
   3  -5  -3    0.26    0.45
  -3   5   3    0.58    0.41
  -3   5   3    0.13    0.55
   2  -5  -3    0.44    0.47
  -2   5   3   -0.99    0.66
  -2   5   3    0.79    0.38
   1  -5  -3    4.41    0.55
  -1   5   3    3.42    0.47
  -1   5   3    4.65    0.86
   0   5   3   19.76    1.37
   1   5   3   11.56    1.23
   2   5   3   22.07    1.54
   3   5   3    2.84    0.77
   4   5   3   -0.07    0.64
   5   5   3    2.02    0.89
   6   5   3    1.88    0.95
   8   5   3    0.91    1.30
   9   5   3    3.56    1.46
  10   5   3    0.56    1.39
  11   5   3    0.65    1.54
  12   5   3    1.02    1.69
  13   5   3    0.08    1.84
  14   5   3   -0.13    2.31
  14   5   3   -0.41    1.26
  15   5   3   -0.81    2.34
  15   5   3   -0.36    1.44
 -19   6   3    1.66    2.02
 -18   6   3    0.25    1.69
  17  -6  -3    0.48    1.15
 -17   6   3    1.49    1.62
  16  -6  -3    0.21    1.19
 -16   6   3    2.55    1.57
  15  -6  -3    1.18    1.04
 -15   6   3    0.52    1.24
  14  -6  -3   17.77    2.12
 -14   6   3   16.58    2.05
  13  -6  -3    1.21    0.81
 -13   6   3    0.18    1.01
 -12   6   3    1.73    1.06
 -11   6   3   -0.89    0.91
 -10   6   3   10.81    1.51
 -10   6   3   15.07    1.57
  -9   6   3    0.09    0.85
  -8   6   3   -0.54    0.79
  -8   6   3    0.41    0.55
  -7   6   3    0.23    0.66
  -7   6   3    0.52    0.51
  -6   6   3    9.20    1.08
  -6   6   3    9.51    0.89
  -5   6   3    8.16    0.94
  -5   6   3    8.62    0.86
  -4   6   3   22.16    1.16
  -4   6   3   21.05    1.29
   3  -6  -3    1.85    0.64
  -3   6   3    2.12    0.55
  -3   6   3    0.87    0.68
   2  -6  -3    5.24    0.68
  -2   6   3    5.33    0.71
  -2   6   3    5.40    0.96
   1  -6  -3    4.82    0.59
  -1   6   3    4.46    0.62
  -1   6   3    3.25    0.83
   0   6   3   -0.19    0.84
   2   6   3   15.47    1.43
   3   6   3   16.07    1.34
   4   6   3    5.81    1.39
   5   6   3   19.75    1.94
   7   6   3    2.83    1.47
   8   6   3    2.41    1.49
   9   6   3    5.81    1.61
  10   6   3    2.01    1.63
  11   6   3    1.28    1.81
  12   6   3    3.01    1.87
  13   6   3    1.10    2.14
  13   6   3   -0.36    1.31
  14   6   3    0.29    2.55
 -18   7   3   -0.36    1.70
 -17   7   3   -0.18    1.46
 -16   7   3    0.80    1.48
 -15   7   3    1.39    1.32
 -14   7   3    9.36    1.65
 -13   7   3    0.15    1.08
 -12   7   3    5.95    1.39
 -11   7   3    1.94    1.15
 -11   7   3    1.04    0.96
 -10   7   3   -0.38    0.98
 -10   7   3   -0.29    0.85
  -9   7   3    6.51    1.19
  -9   7   3    4.62    1.07
  -8   7   3   15.96    1.55
  -8   7   3   17.23    1.24
  -7   7   3   11.34    1.01
  -7   7   3   11.00    1.28
  -6   7   3    1.23    0.60
  -6   7   3    1.67    0.61
  -5   7   3   -0.47    0.51
  -5   7   3   -0.15    0.58
  -4   7   3   21.71    1.23
  -4   7   3   20.69    1.39
   3  -7  -3    2.47    0.76
  -3   7   3    1.97    0.78
  -3   7   3    2.17    0.59
   2  -7  -3    1.68    0.66
  -2   7   3    1.37    0.51
  -2   7   3    0.00    0.75
   1  -7  -3    1.78    0.59
  -1   7   3    1.75    0.92
  -1   7   3    2.05    0.47
   0   7   3   -0.72    0.90
   2   7   3    7.75    1.21
   3   7   3    6.08    1.12
   4   7   3    7.24    1.31
   5   7   3    3.08    1.67
   6   7   3    6.23    1.94
   7   7   3    4.52    1.99
   8   7   3    3.17    1.94
   9   7   3    4.18    2.09
  10   7   3    3.35    2.15
  11   7   3    2.48    2.18
  12   7   3    3.68    2.37
  12   7   3    0.85    1.41
  13   7   3    2.40    2.42
  13   7   3   -1.36    1.24
 -17   8   3   -1.24    1.39
 -16   8   3    0.23    1.38
 -15   8   3    3.35    1.33
 -14   8   3    2.83    1.34
 -13   8   3    2.14    1.29
 -12   8   3    6.87    1.41
 -12   8   3    7.20    1.46
 -11   8   3    7.72    1.39
 -11   8   3    9.79    1.44
 -10   8   3    0.72    1.01
  -9   8   3   15.61    1.73
  -9   8   3   14.02    1.57
  -8   8   3   -0.54    0.88
  -7   8   3    1.76    0.68
  -7   8   3    2.84    0.83
  -6   8   3    8.47    1.10
  -6   8   3    6.75    1.02
  -5   8   3    1.27    0.67
  -5   8   3    1.96    0.70
  -4   8   3   -0.10    0.57
  -4   8   3    0.37    0.70
  -3   8   3    0.68    0.70
  -3   8   3    1.89    0.65
   2  -8  -3    1.63    0.75
  -2   8   3    0.18    0.89
  -2   8   3    1.35    0.54
   1  -8  -3   -0.61    0.63
  -1   8   3    0.28    0.76
  -1   8   3    0.35    0.49
   0   8   3   12.75    1.46
   1   8   3    4.65    1.05
   3   8   3   -0.05    1.27
   4   8   3    5.08    1.47
   5   8   3   -0.39    1.56
   7   8   3    2.20    1.77
   8   8   3   -2.03    1.77
   9   8   3    0.27    1.84
  10   8   3    3.12    1.99
  11   8   3    1.92    2.04
  11   8   3    3.15    1.26
  12   8   3    0.26    1.38
  12   8   3   -0.11    2.10
  13   8   3   -2.64    2.41
  13   8   3   -0.93    1.24
 -17   9   3   -0.42    1.53
 -16   9   3    2.57    1.45
 -15   9   3    0.09    1.27
 -14   9   3    1.53    1.45
 -13   9   3    5.76    1.45
 -13   9   3    4.75    1.54
 -12   9   3    2.55    1.24
 -12   9   3    1.87    1.21
 -11   9   3    6.07    1.47
 -11   9   3    3.44    1.19
 -10   9   3   -1.16    0.96
 -10   9   3   -0.64    1.16
  -9   9   3    0.41    0.94
  -9   9   3   -0.88    1.06
  -8   9   3    1.31    0.93
  -8   9   3   -0.32    1.10
  -7   9   3    0.44    0.78
  -6   9   3    7.83    1.17
  -5   9   3    4.48    0.98
  -5   9   3    3.80    0.90
  -4   9   3   10.61    1.37
  -4   9   3    9.99    1.22
  -3   9   3    9.71    1.46
  -3   9   3    9.87    1.14
   2  -9  -3   -0.26    0.85
  -2   9   3    0.73    0.63
  -2   9   3   -1.34    0.79
   1  -9  -3    0.10    0.76
   1   9   3   -0.29    1.25
   2   9   3    1.20    1.47
   3   9   3    3.87    1.77
   4   9   3   -0.13    1.57
   5   9   3   -1.06    1.43
   6   9   3   -0.34    1.51
   7   9   3    7.94    1.91
   8   9   3   -0.74    1.64
   9   9   3    0.17    1.89
  10   9   3    1.32    1.15
  10   9   3    0.21    1.94
  11   9   3    0.07    2.31
  11   9   3   -0.31    1.22
  12   9   3    1.75    2.40
  12   9   3    0.44    1.41
 -18  10   3    1.92    1.89
 -17  10   3   -0.96    1.51
 -16  10   3    0.72    1.50
 -15  10   3    0.18    1.30
 -14  10   3    2.96    1.34
 -13  10   3    7.19    1.65
 -13  10   3    4.14    1.34
 -12  10   3    1.22    1.19
 -12  10   3    1.04    1.30
 -11  10   3    1.01    1.11
 -11  10   3    0.49    1.38
 -10  10   3    0.57    1.07
 -10  10   3    1.37    1.35
  -9  10   3    0.52    1.04
  -9  10   3   -1.97    1.19
  -8  10   3    2.19    0.99
  -8  10   3    0.08    1.24
  -7  10   3    3.64    1.41
  -6  10   3    8.79    1.64
  -6  10   3   10.54    1.53
  -5  10   3    4.18    1.01
  -5  10   3    2.93    1.23
  -4  10   3   14.04    1.91
  -4  10   3   13.75    1.41
  -3  10   3    7.38    1.22
  -3  10   3    8.25    1.52
   2 -10  -3   -0.51    1.04
  -2  10   3    1.47    1.28
   1 -10  -3    3.12    0.94
  -1  10   3    2.07    1.30
   0  10   3    2.83    1.34
   1  10   3   -0.47    1.43
   2  10   3    2.42    1.36
   3  10   3    3.96    1.92
   4  10   3    3.32    1.80
   5  10   3   -0.78    1.71
   6  10   3    2.16    1.77
   7  10   3    2.38    1.72
   8  10   3    0.45    1.87
   9  10   3    1.37    1.25
   9  10   3   -1.37    1.94
  10  10   3   -0.95    2.08
  10  10   3    0.90    1.27
  11  10   3   -2.04    2.25
 -16  11   3    3.22    1.62
 -15  11   3   -0.91    1.50
 -14  11   3    3.94    1.77
 -14  11   3    1.20    1.43
 -13  11   3   -0.55    1.47
 -13  11   3    1.53    1.32
 -12  11   3    2.36    1.52
 -12  11   3   -0.10    1.14
 -11  11   3    1.78    1.29
 -11  11   3   -0.02    1.39
 -10  11   3    1.77    1.19
 -10  11   3    1.27    1.38
  -9  11   3   -0.28    1.10
  -9  11   3   -0.81    1.33
  -8  11   3   -0.28    1.31
  -8  11   3   -0.75    1.00
  -7  11   3   -1.63    0.99
  -7  11   3   -0.36    1.27
  -6  11   3   -0.04    1.01
  -6  11   3   -0.65    1.35
  -5  11   3    3.76    1.38
  -5  11   3    5.49    1.09
  -4  11   3    4.68    1.49
  -4  11   3    3.56    0.74
  -4  11   3    5.47    1.12
  -3  11   3    0.47    0.86
  -3  11   3   -0.85    1.35
   2 -11  -3    4.15    0.98
  -2  11   3    1.53    1.39
  -1  11   3    5.23    1.54
   0  11   3   -0.27    1.29
   1  11   3   -0.76    1.46
   2  11   3    1.53    1.61
   3  11   3    2.89    1.66
   4  11   3    2.46    1.52
   5  11   3    3.60    1.83
   6  11   3    2.63    1.82
   7  11   3    0.77    1.99
   7  11   3    0.74    1.24
   8  11   3    0.49    2.11
   8  11   3    0.75    1.12
   9  11   3    0.44    1.28
   9  11   3    0.26    2.36
  10  11   3   -0.59    2.38
 -17  12   3   -1.46    1.77
 -16  12   3   -0.73    1.52
 -15  12   3   -0.48    1.51
 -15  12   3   -0.42    1.94
 -14  12   3    2.79    1.55
 -14  12   3    2.30    1.89
 -13  12   3    0.71    1.50
 -13  12   3    2.31    1.64
 -12  12   3   -0.57    1.59
 -12  12   3    1.19    1.26
 -11  12   3    5.59    1.48
 -11  12   3    3.81    1.74
 -10  12   3   -0.68    1.59
 -10  12   3    1.50    1.23
  -9  12   3    4.49    1.28
  -9  12   3    1.84    1.45
  -8  12   3    5.22    1.34
  -8  12   3    3.04    1.49
  -7  12   3    1.84    1.30
  -7  12   3    1.14    1.04
  -6  12   3    1.14    1.27
  -5  12   3   10.61    1.42
  -5  12   3    6.72    1.55
  -4  12   3    4.40    1.11
  -4  12   3    2.00    0.79
  -4  12   3    3.08    1.45
   3 -12  -3    0.22    1.04
  -3  12   3    0.76    0.79
  -3  12   3   -0.02    1.27
   2 -12  -3   -0.33    1.01
  -2  12   3    0.84    0.87
  -2  12   3   -1.64    1.23
  -1  12   3    0.00    1.18
   0  12   3    1.41    1.48
   1  12   3    3.39    1.53
   2  12   3    0.82    1.60
   3  12   3   -0.88    1.69
   4  12   3   -0.73    1.82
   5  12   3    0.12    1.72
   5  12   3    0.30    1.16
   6  12   3    1.42    1.13
   6  12   3    0.70    1.82
   7  12   3    0.15    1.87
   7  12   3    1.72    1.20
   8  12   3    0.16    1.97
   8  12   3   -0.72    1.24
   9  12   3    0.98    2.46
 -15  13   3    0.74    2.19
 -15  13   3   -0.19    1.64
 -14  13   3    0.29    1.46
 -14  13   3    0.75    1.83
 -13  13   3   -0.33    1.37
 -13  13   3    3.82    1.93
 -12  13   3   -0.65    1.33
 -12  13   3   -0.15    1.81
 -11  13   3    0.05    1.31
 -11  13   3    1.99    1.65
 -10  13   3   -1.18    1.56
 -10  13   3    1.69    1.33
  -9  13   3    0.01    1.30
  -9  13   3    0.63    1.54
  -8  13   3   -0.67    1.35
  -8  13   3    0.67    1.21
  -7  13   3    2.53    1.41
  -7  13   3    0.22    1.17
  -6  13   3    3.83    1.54
  -6  13   3    4.80    1.30
  -5  13   3    1.38    1.39
   4 -13  -3    2.47    1.23
  -4  13   3    0.73    1.32
  -4  13   3    1.28    0.97
   3 -13  -3    1.09    1.17
  -3  13   3    0.49    0.88
  -3  13   3    1.71    1.35
   2 -13  -3    2.62    1.20
  -2  13   3    1.79    0.94
  -2  13   3    2.84    1.47
  -1  13   3    0.36    0.89
  -1  13   3   -0.20    1.38
   0  13   3    1.40    0.97
   0  13   3    3.03    1.45
   1  13   3    2.46    1.59
   1  13   3    2.44    1.08
   2  13   3    1.07    1.13
   2  13   3    2.31    1.68
   3  13   3   -0.66    1.07
   3  13   3    0.15    1.56
   4  13   3   -0.96    1.71
   4  13   3    0.44    1.10
   5  13   3    0.85    1.97
   5  13   3   -0.48    1.20
   6  13   3   -1.90    2.03
   6  13   3   -0.81    1.22
   7  13   3    1.21    1.41
   7  13   3    0.40    2.32
   8  13   3   -0.31    2.53
   8  13   3    1.37    1.60
 -16  14   3    0.80    1.89
 -15  14   3    1.52    1.85
 -15  14   3    3.85    2.29
 -14  14   3   -0.57    2.03
 -14  14   3    0.94    1.78
 -13  14   3    1.71    1.97
 -13  14   3    1.28    1.62
 -12  14   3    1.96    1.86
 -12  14   3    1.53    1.60
 -11  14   3   -0.03    1.52
 -11  14   3    0.14    1.78
 -10  14   3    0.79    1.69
 -10  14   3    1.42    1.47
  -9  14   3    0.00    1.48
  -9  14   3   -1.52    1.48
  -8  14   3   -0.21    1.32
  -8  14   3   -0.60    1.51
  -7  14   3    1.65    1.62
  -7  14   3   -0.32    1.20
   6 -14  -3    2.10    1.31
  -6  14   3    0.56    1.49
  -5  14   3    1.61    1.43
   4 -14  -3   -0.44    1.30
  -4  14   3   -0.96    1.06
  -4  14   3    0.50    1.38
   3 -14  -3    3.08    1.39
  -3  14   3    2.66    1.48
  -3  14   3    1.98    1.16
  -2  14   3    3.83    1.53
  -1  14   3    0.91    0.97
  -1  14   3    0.61    1.50
   0  14   3    0.11    1.55
   0  14   3    0.60    1.05
   1  14   3    1.82    1.11
   1  14   3    4.15    1.78
   2  14   3   -0.03    1.67
   2  14   3   -0.76    1.07
   3  14   3    0.05    1.26
   3  14   3    2.33    1.87
   4  14   3   -0.80    1.17
   4  14   3    2.26    1.80
   5  14   3    1.13    2.03
   5  14   3    1.40    1.22
   6  14   3    2.15    1.31
   6  14   3    0.13    1.99
   7  14   3   -0.86    2.31
 -15  15   3    1.51    2.28
 -15  15   3    4.51    2.68
 -14  15   3   -1.25    1.82
 -14  15   3    2.74    2.31
 -13  15   3    0.51    1.73
 -13  15   3    0.01    2.28
 -12  15   3    2.09    2.02
 -12  15   3    0.88    1.77
 -11  15   3    0.83    1.73
 -11  15   3   -0.86    1.94
 -10  15   3    1.00    1.72
 -10  15   3    0.42    1.56
  -9  15   3   -2.07    1.60
  -9  15   3    0.99    1.48
  -8  15   3   -0.40    1.63
   7 -15  -3    2.10    1.52
  -7  15   3    2.58    1.66
   6 -15  -3    0.72    1.41
  -6  15   3    0.29    1.51
   5 -15  -3    0.36    1.39
  -5  15   3    1.62    1.47
   4 -15  -3    1.28    1.56
  -4  15   3   -0.43    1.24
  -4  15   3    0.19    1.51
   3 -15  -3    1.72    1.56
  -3  15   3    2.15    1.50
  -3  15   3    1.42    1.45
  -2  15   3    3.42    1.56
  -2  15   3   -0.13    1.15
  -1  15   3    1.99    1.18
  -1  15   3    2.31    1.78
   0  15   3    0.20    1.66
   0  15   3    1.36    1.21
   1  15   3   -0.49    1.75
   1  15   3    1.36    1.25
   2  15   3    1.54    1.84
   2  15   3    1.16    1.26
   3  15   3    4.10    2.05
   3  15   3    2.78    1.32
   4  15   3    1.15    2.15
   4  15   3    2.21    1.41
   5  15   3    1.04    1.44
   5  15   3    1.39    2.31
   6  15   3    2.01    2.36
 -13  16   3    4.23    2.42
 -13  16   3    1.41    1.90
 -12  16   3    1.86    1.89
 -12  16   3    1.48    2.18
 -11  16   3    3.49    2.27
 -11  16   3    2.92    1.87
 -10  16   3   -0.07    1.81
   9 -16  -3    1.02    1.71
  -9  16   3   -1.55    1.78
   8 -16  -3    1.29    1.67
  -8  16   3    1.93    1.72
   7 -16  -3   -1.05    1.55
  -7  16   3    0.48    1.59
   6 -16  -3    0.81    1.63
  -6  16   3    1.34    1.55
  -5  16   3    0.95    1.72
   4 -16  -3   -0.09    1.86
  -4  16   3    2.20    1.53
  -4  16   3    1.71    1.56
  -3  16   3    2.29    1.64
  -3  16   3    2.40    1.35
  -2  16   3    1.29    1.61
  -2  16   3    1.57    1.41
  -1  16   3    1.44    1.77
  -1  16   3   -1.38    1.36
   0  16   3    1.98    1.90
   0  16   3   -0.49    1.48
   1  16   3    2.24    1.89
   1  16   3    1.78    1.65
   2  16   3   -0.04    1.69
   2  16   3    1.12    2.09
   3  16   3    0.36    2.01
   3  16   3   -0.76    1.63
   4  16   3   -0.33    1.86
   4  16   3    3.37    2.37
  12 -17  -3    0.59    2.05
  11 -17  -3    1.94    2.01
 -11  17   3    0.16    2.40
  10 -17  -3    1.17    2.00
 -10  17   3    0.37    2.02
   9 -17  -3    0.81    1.88
  -9  17   3   -2.17    1.84
   8 -17  -3    0.59    1.76
  -8  17   3    1.64    1.84
   7 -17  -3    0.57    1.84
  -7  17   3    0.58    1.95
   6 -17  -3   -1.76    1.75
  -6  17   3    3.75    1.79
   5 -17  -3   -1.93    1.77
  -5  17   3    1.10    1.74
  -4  17   3    1.86    1.69
  -3  17   3   -0.91    1.51
  -3  17   3    3.61    1.91
  -2  17   3    4.65    1.61
  -2  17   3    4.26    1.99
  -1  17   3    3.07    1.96
  -1  17   3    1.53    1.63
   0  17   3    0.82    1.75
   0  17   3    3.66    2.01
   1  17   3   -0.17    1.73
   1  17   3    4.32    2.27
   2  17   3   -0.78    1.82
  10 -18  -3    0.23    2.11
 -10  18   3   -2.29    2.15
   9 -18  -3    3.17    2.21
  -9  18   3   -2.48    1.93
   8 -18  -3   -0.83    2.11
  -2  18   3    0.84    2.13
  -1  18   3    1.97    2.11
  -1  18   3   -1.18    1.86
   4 -19   4   -1.19    2.42
  -5  19  -4    1.72    2.13
   5 -19   4    1.02    2.30
  -6  19  -4   -1.29    2.15
   6 -19   4    0.79    2.32
  -7  19  -4   -0.19    2.07
   7 -19   4    0.27    2.38
   2  18  -4   -2.15    1.99
   2  18  -4    3.59    2.25
   1  18  -4   -1.41    1.84
   1  18  -4    1.29    2.25
   0  18  -4    0.75    1.87
   0  18  -4   -0.69    2.02
  -1  18  -4   -0.51    1.86
  -2  18  -4   -3.09    1.79
  -2  18  -4   -1.86    1.64
  -3  18  -4   -1.63    1.71
   3 -18   4   -3.35    2.18
  -4  18  -4    0.95    1.77
   4 -18   4   -1.13    2.07
  -5  18  -4    1.58    2.08
   5 -18   4   -1.41    1.95
  -6  18  -4    1.89    2.20
   6 -18   4    0.52    2.07
  -7  18  -4   -0.18    1.81
   7 -18   4    4.48    2.08
   8 -18   4    1.09    2.09
  -9  18  -4    2.25    2.40
   9 -18   4   -0.11    2.30
 -10  18  -4    2.43    2.01
  10 -18   4    1.22    2.22
   4  17  -4    2.15    2.45
   4  17  -4   -1.17    1.78
   3  17  -4    1.60    2.08
   2  17  -4   -2.16    1.70
   2  17  -4    1.57    1.97
   1  17  -4    2.35    1.75
   1  17  -4   -0.55    1.71
   0  17  -4   -0.01    1.82
   0  17  -4   -0.63    1.60
  -1  17  -4    0.53    1.61
  -1  17  -4    1.44    1.71
   1 -17   4    1.58    1.97
  -2  17  -4    0.34    1.62
  -2  17  -4   -3.09    1.57
   2 -17   4   -3.37    1.94
  -3  17  -4   -2.05    1.76
  -3  17  -4   -2.65    1.34
   3 -17   4   -0.75    1.76
  -4  17  -4    0.56    1.62
   4 -17   4   -3.44    1.75
  -5  17  -4    0.07    1.63
   5 -17   4    1.24    1.85
  -6  17  -4    0.51    1.74
   6 -17   4    3.59    1.87
  -7  17  -4    1.74    1.66
   7 -17   4    1.14    1.97
  -8  17  -4    1.64    2.06
   8 -17   4    0.17    1.87
  -9  17  -4    3.19    1.88
   9 -17   4   -0.10    2.08
 -10  17  -4    2.02    1.92
  10 -17   4    0.29    2.00
  11 -17   4    0.33    2.14
 -12  17  -4   -0.09    2.01
   6  16  -4    2.86    2.37
   6  16  -4   -1.27    1.61
   5  16  -4   -1.89    1.54
   5  16  -4    2.65    2.14
   4  16  -4    0.26    1.92
   4  16  -4   -1.89    1.48
   3  16  -4   -2.63    1.49
   3  16  -4    2.32    1.91
   2  16  -4    1.76    1.77
   1  16  -4   -2.21    1.43
   1  16  -4    2.28    1.75
   0  16  -4    0.06    1.61
   0  16  -4   -1.96    1.35
   0 -16   4   -1.22    2.04
  -1  16  -4   -0.74    1.34
  -1  16  -4    0.45    1.69
   1 -16   4   -0.13    1.71
  -2  16  -4    1.27    1.59
   2 -16   4    1.07    1.75
  -3  16  -4    1.70    1.48
  -3  16  -4   -1.20    1.59
   3 -16   4    0.56    1.53
  -4  16  -4    2.57    1.40
  -4  16  -4    2.41    1.74
   4 -16   4    2.23    1.69
  -5  16  -4   -0.50    1.51
   5 -16   4    1.38    1.60
  -6  16  -4   -0.44    1.56
   6 -16   4    1.34    1.60
  -7  16  -4    0.42    1.67
   7 -16   4    1.68    1.75
  -8  16  -4    1.87    1.77
   8 -16   4   -0.60    1.76
  -9  16  -4    1.40    1.69
   9 -16   4   -0.43    1.61
 -10  16  -4    3.24    1.82
  10 -16   4   -1.03    1.68
 -11  16  -4    2.94    1.87
  11 -16   4   -3.30    1.89
 -12  16  -4    4.21    2.07
  12 -16   4   -0.60    2.05
   8  15  -4    1.16    2.36
   7  15  -4   -3.17    1.49
   7  15  -4    1.06    2.25
   6  15  -4    1.78    2.13
   6  15  -4   -0.95    1.55
   5  15  -4   -1.46    1.84
   5  15  -4   -1.56    1.38
   4  15  -4   -1.69    1.37
   4  15  -4    0.14    1.83
   3  15  -4    2.18    1.75
   3  15  -4   -0.33    1.36
   2  15  -4    1.49    1.59
   2  15  -4   -1.53    1.15
   1  15  -4    3.68    1.57
   1  15  -4    0.14    1.32
  -1 -15   4    1.08    1.76
   0  15  -4    3.34    1.57
   0  15  -4   -0.79    1.23
   0 -15   4    0.98    1.82
  -1  15  -4    1.09    1.40
  -1  15  -4   -0.43    1.20
  -2  15  -4    1.79    1.49
   2 -15   4    0.64    1.49
  -3  15  -4    2.36    1.53
  -3  15  -4    4.47    1.32
   3 -15   4    2.32    1.57
  -4  15  -4   -0.49    1.34
  -4  15  -4    1.13    1.19
   4 -15   4    2.24    1.53
  -5  15  -4    2.86    1.53
   5 -15   4    4.86    1.65
  -6  15  -4    1.39    1.62
   6 -15   4   -0.01    1.41
  -7  15  -4    0.14    1.50
   7 -15   4   -1.36    1.51
  -8  15  -4    0.20    1.72
   8 -15   4   -2.04    1.34
  -9  15  -4    2.94    1.75
   9 -15   4   -2.55    1.62
 -10  15  -4    1.02    1.65
  10 -15   4   -1.71    1.69
 -11  15  -4    1.82    1.61
  11 -15   4   -0.74    1.82
 -12  15  -4    2.75    1.93
  12 -15   4    3.36    2.00
  13 -15   4    0.26    1.99
  14 -15   4    0.00    2.27
   9  14  -4    3.93    2.42
   8  14  -4    0.26    1.36
   8  14  -4    3.04    2.27
   7  14  -4    1.19    1.97
   7  14  -4    0.63    1.29
   6  14  -4    0.94    1.31
   6  14  -4    2.29    1.80
   5  14  -4   -0.30    1.19
   5  14  -4   -0.23    1.68
   4  14  -4    0.55    1.23
   4  14  -4    0.06    1.66
   3  14  -4    0.28    1.28
   3  14  -4    0.07    1.55
   2  14  -4    0.03    1.13
   2  14  -4    0.75    1.54
  -2 -14   4    0.46    1.48
   1  14  -4    1.95    1.48
   1  14  -4   -0.57    1.04
  -1 -14   4   -0.32    1.59
   0  14  -4    4.04    1.49
   0  14  -4    2.41    1.16
   0 -14   4    4.03    1.73
  -1  14  -4    3.61    1.54
   1 -14   4    4.55    1.64
  -2  14  -4    6.73    1.35
  -2  14  -4    7.39    1.58
  -3  14  -4    0.28    1.07
  -3  14  -4   -0.58    1.29
   3 -14   4   -0.15    1.34
  -4  14  -4    0.82    1.04
  -4  14  -4    0.25    1.41
   4 -14   4    2.29    1.31
  -5  14  -4    1.44    1.49
   5 -14   4    0.46    1.29
  -6  14  -4    1.36    1.49
   6 -14   4   -0.22    1.34
  -7  14  -4    1.05    1.37
   7 -14   4    1.08    1.34
  -8  14  -4    0.89    1.45
   8 -14   4   -0.98    1.42
  -9  14  -4    3.56    1.63
   9 -14   4    2.40    1.56
 -10  14  -4    0.03    1.38
  10 -14   4   -0.69    1.67
 -11  14  -4    3.45    1.86
  11 -14   4    0.14    1.69
  12 -14   4    0.47    1.71
  13 -14   4    0.55    1.88
  14 -14   4    0.44    2.05
  15 -14   4    0.75    2.12
  10  13  -4   -0.55    1.37
  10  13  -4    1.83    2.32
   9  13  -4    1.65    2.14
   9  13  -4    0.29    1.31
   8  13  -4    0.82    1.94
   8  13  -4   -0.52    1.25
   7  13  -4   -1.81    1.12
   7  13  -4    3.09    1.86
   6  13  -4   -0.81    1.14
   6  13  -4    2.77    1.70
   5  13  -4    5.22    1.73
   5  13  -4    2.42    1.13
   4  13  -4    0.63    1.05
   4  13  -4    0.71    1.49
   3  13  -4    1.90    1.44
   3  13  -4    1.16    1.06
   2  13  -4    1.33    1.06
   2  13  -4    2.26    1.41
  -2 -13   4    2.37    1.40
   1  13  -4    0.12    1.28
   1  13  -4   -1.15    0.88
  -1 -13   4   -0.62    1.33
   0  13  -4   -0.12    1.27
   0  13  -4   -0.77    0.96
   0 -13   4    0.22    1.39
  -1  13  -4    1.87    1.31
  -1  13  -4    2.54    1.10
   1 -13   4    1.86    1.43
  -2  13  -4    1.07    1.04
  -2  13  -4    0.35    1.20
   2 -13   4    0.14    1.28
  -3  13  -4   -2.07    1.16
  -3  13  -4    1.12    0.96
   3 -13   4    0.93    1.19
  -4  13  -4    1.19    0.93
  -4  13  -4   -0.13    1.25
   4 -13   4    0.34    1.22
  -5  13  -4    1.83    1.32
   5 -13   4    2.32    1.24
  -6  13  -4    1.37    1.31
   6 -13   4    0.06    1.15
  -7  13  -4   -0.34    1.23
   7 -13   4   -1.77    1.21
  -8  13  -4    2.90    1.55
   8 -13   4    2.31    1.55
  -9  13  -4    0.12    1.25
   9 -13   4    1.82    1.49
 -10  13  -4    1.85    1.41
  10 -13   4    0.16    1.44
 -11  13  -4    1.59    1.77
  11 -13   4    3.19    1.63
  12 -13   4    2.44    1.75
  13 -13   4   -0.11    1.69
  14 -13   4    1.25    1.93
  11  12  -4   -1.18    1.44
  11  12  -4   -2.38    2.27
  10  12  -4   -0.72    1.48
  10  12  -4    1.54    2.10
   9  12  -4   -1.69    1.36
   9  12  -4   -0.41    1.90
   8  12  -4   -0.36    1.81
   8  12  -4   -0.83    1.35
   7  12  -4   -1.13    1.23
   7  12  -4    0.84    1.64
   6  12  -4    6.23    1.72
   5  12  -4    3.73    1.46
   5  12  -4    1.21    1.05
   4  12  -4   -0.81    0.95
   4  12  -4    1.04    1.29
   3  12  -4    0.58    0.99
   3  12  -4    1.60    1.31
  -3 -12   4   -0.04    1.19
   2  12  -4    0.38    0.91
   2  12  -4    0.63    1.18
  -2 -12   4   -1.32    1.19
   1  12  -4    3.75    1.00
   1  12  -4    4.59    1.43
  -1 -12   4    5.86    1.37
   0  12  -4    5.25    1.43
   0  12  -4    4.61    1.06
   0 -12   4    4.14    1.43
  -1  12  -4    6.67    1.12
  -1  12  -4    6.34    1.53
   1 -12   4    8.67    1.49
  -2  12  -4    0.66    0.90
  -2  12  -4   -0.02    1.13
   2 -12   4   -0.73    1.23
  -3  12  -4   -2.31    1.06
  -3  12  -4    0.32    0.84
   3 -12   4   -1.07    1.17
  -4  12  -4   -0.38    1.24
  -4  12  -4    0.53    0.82
   4 -12   4   -0.65    1.10
  -5  12  -4    0.00    1.29
   5 -12   4    0.89    1.16
  -6  12  -4    5.45    1.52
   6 -12   4    4.12    1.38
  -7  12  -4    1.10    1.45
   7 -12   4    1.62    1.29
  -8  12  -4    1.51    1.27
   8 -12   4    1.11    1.36
  -9  12  -4    1.75    1.45
   9 -12   4    1.54    1.43
 -10  12  -4    3.43    1.64
  10 -12   4    2.45    1.44
  11 -12   4    2.23    1.50
  12 -12   4    0.80    1.53
  13 -12   4   -0.30    1.51
  14 -12   4    0.84    1.62
  15 -12   4    0.73    1.82
  16 -12   4    1.00    1.85
  12  11  -4    4.44    2.36
  12  11  -4   -1.18    1.56
  11  11  -4   -0.86    1.41
  11  11  -4    4.42    2.17
  10  11  -4    0.90    1.32
  10  11  -4    2.03    1.90
   9  11  -4   -1.03    1.20
   9  11  -4    1.62    1.73
   8  11  -4   -0.82    1.06
   8  11  -4    0.36    1.62
   7  11  -4   -0.20    1.47
   7  11  -4   -0.08    1.05
   6  11  -4    1.28    1.40
   6  11  -4    1.42    1.01
   5  11  -4    0.46    1.00
   5  11  -4    0.57    1.39
   4  11  -4    2.04    1.02
   4  11  -4    6.32    1.44
  -4 -11   4    3.23    1.15
   3  11  -4    2.43    1.32
   3  11  -4    1.53    0.95
  -3 -11   4    1.68    1.12
   2  11  -4    0.19    0.79
   2  11  -4   -0.40    1.21
  -2 -11   4    0.41    1.11
   1  11  -4    0.53    0.83
   1  11  -4    0.25    1.23
  -1 -11   4    0.46    1.15
   0  11  -4   -0.53    0.97
   0  11  -4    0.23    0.83
   0 -11   4    1.09    1.18
  -1  11  -4   -0.03    1.09
  -1  11  -4    0.28    0.77
   1 -11   4    0.96    1.14
  -2  11  -4    1.05    1.08
  -2  11  -4    1.98    0.84
   2 -11   4    1.84    1.12
  -3  11  -4    0.11    0.73
  -3  11  -4   -1.03    1.00
   3 -11   4   -0.34    1.09
  -4  11  -4    0.26    1.18
  -4  11  -4   -0.16    0.75
   4 -11   4    0.58    1.09
  -5  11  -4    3.14    1.27
   5 -11   4    1.55    1.20
  -6  11  -4   11.38    1.74
   6 -11   4   10.92    1.60
  -7  11  -4   -0.07    1.13
   7 -11   4    0.86    1.25
  -8  11  -4   -0.28    1.17
   8 -11   4   -0.33    1.27
  -9  11  -4    4.40    1.38
   9 -11   4    4.23    1.43
 -10  11  -4   -0.31    1.21
  10 -11   4    0.02    1.39
  11 -11   4    0.83    1.38
  12 -11   4    3.73    1.64
  13 -11   4    1.37    1.69
  14 -11   4    0.59    1.61
  15 -11   4    0.67    1.83
  13  10  -4   -1.42    1.58
  12  10  -4    0.28    2.06
  12  10  -4   -0.51    1.39
  11  10  -4   -1.33    1.21
  11  10  -4    4.63    1.97
  10  10  -4    0.27    1.73
  10  10  -4   -1.54    1.15
   9  10  -4    2.38    1.60
   9  10  -4   -1.03    1.05
   8  10  -4    0.67    1.05
   8  10  -4    0.91    1.48
   7  10  -4    2.13    1.36
   7  10  -4    0.84    0.95
   6  10  -4    0.74    0.96
   5  10  -4    1.95    1.45
   5  10  -4    0.64    0.93
   4  10  -4   10.91    1.63
   4  10  -4   12.71    2.09
  -4 -10   4   11.52    1.32
   3  10  -4    2.98    1.20
   3  10  -4    2.78    0.86
  -3 -10   4    3.78    1.04
   2  10  -4   10.72    1.82
   2  10  -4    9.20    1.38
  -2 -10   4    9.65    1.26
   1  10  -4   20.38    1.77
   1  10  -4   20.97    2.00
  -1 -10   4   17.66    1.77
   0  10  -4   -0.11    0.76
   0  10  -4    0.39    0.72
   0 -10   4   -0.46    1.01
  -1  10  -4    0.73    0.69
  -1  10  -4    0.44    0.68
   1 -10   4    0.61    0.95
  -2  10  -4    1.12    0.71
   2 -10   4    1.21    0.97
  -3  10  -4    2.87    0.70
   3 -10   4    4.28    1.08
  -4  10  -4    2.20    1.09
   4 -10   4    2.86    1.04
   4 -10   4    2.43    0.73
  -5  10  -4   11.50    1.71
  -6  10  -4   10.94    1.66
   6 -10   4   10.05    1.48
  -7  10  -4    0.13    1.02
   7 -10   4   -0.44    1.16
  -8  10  -4    1.42    1.10
   8 -10   4    0.91    1.26
  -9  10  -4    9.33    1.62
   9 -10   4    6.93    1.52
  10 -10   4    1.36    1.41
  11 -10   4    2.31    1.60
  12 -10   4    2.58    1.53
  13 -10   4    1.62    1.58
  14 -10   4    2.66    1.71
  15 -10   4    1.17    1.83
  16 -10   4    1.51    1.89
  17 -10   4    0.24    1.90
  13   9  -4    1.63    1.49
  13   9  -4    1.14    2.09
  12   9  -4   -0.25    1.83
  12   9  -4    0.14    1.27
  11   9  -4    0.70    1.61
  11   9  -4   -0.02    1.14
  10   9  -4    1.27    1.55
  10   9  -4    1.09    1.13
   9   9  -4    1.24    1.10
   8   9  -4    3.62    1.07
   8   9  -4    2.85    1.56
  -8  -9   4    4.41    1.18
   7   9  -4    2.59    1.00
   7   9  -4    2.84    1.44
  -7  -9   4    1.84    1.11
   6   9  -4    0.19    0.84
   6   9  -4   -1.09    1.30
   6   9  -4   -1.08    1.53
  -6  -9   4   -0.76    1.04
   5   9  -4    2.96    1.37
   5   9  -4    2.50    0.92
   5   9  -4    4.75    1.32
  -5  -9   4    4.34    1.11
   4   9  -4    8.73    1.37
   4   9  -4    9.32    1.43
   4   9  -4    6.14    1.10
  -4  -9   4    8.28    1.11
   3   9  -4    1.89    1.03
   3   9  -4    1.14    0.65
  -3  -9   4    1.66    0.91
   2   9  -4    2.48    0.68
   2   9  -4    2.16    0.98
  -2  -9   4    2.42    0.95
   1   9  -4    7.36    1.27
   1   9  -4    3.98    0.77
  -1  -9   4    6.23    1.06
   0   9  -4    2.48    0.72
   0   9  -4    4.03    0.82
   0  -9   4    2.82    0.98
  -1   9  -4   17.28    1.55
  -1   9  -4   21.03    1.29
   1  -9   4   18.88    1.51
  -2   9  -4    2.85    0.65
   2  -9   4    3.87    0.97
  -3   9  -4    0.73    0.60
  -3   9  -4    0.12    0.55
   3  -9   4    0.01    0.82
   3  -9   4   -0.35    0.61
  -4   9  -4   12.34    1.39
   4  -9   4   10.11    1.26
   4  -9   4   11.04    1.35
   5  -9   4   23.95    1.66
  -6   9  -4    1.50    0.99
  -7   9  -4   -0.60    0.90
   7  -9   4    0.00    1.06
  -8   9  -4    1.14    1.09
   8  -9   4    1.66    1.23
   9  -9   4    0.47    1.27
  10  -9   4    1.03    1.43
  11  -9   4    3.40    1.38
  12  -9   4    0.10    1.43
  13  -9   4    0.84    1.51
  14  -9   4   -0.83    1.57
  15  -9   4    0.87    1.70
  16  -9   4    0.85    1.85
  14   8  -4    0.79    1.76
  13   8  -4   -0.28    1.38
  13   8  -4   -1.04    1.78
  12   8  -4    0.29    1.23
  12   8  -4   -1.06    1.64
 -12  -8   4    3.19    1.79
  11   8  -4    1.39    1.21
 -11  -8   4    1.77    1.48
  10   8  -4    0.97    1.16
  10   8  -4    1.55    1.60
 -10  -8   4    2.23    1.31
   9   8  -4    2.10    1.03
   9   8  -4    3.31    1.51
  -9  -8   4    2.43    1.19
   8   8  -4    4.34    1.18
   8   8  -4    6.72    1.55
  -8  -8   4    7.75    1.28
   7   8  -4    6.79    1.46
   7   8  -4    5.26    1.12
  -7  -8   4    7.99    1.22
   6   8  -4   -0.05    1.18
   6   8  -4    0.95    0.82
  -6  -8   4   -0.36    0.97
   5   8  -4   14.27    1.96
   5   8  -4   14.31    1.70
   5   8  -4   11.79    1.75
  -5  -8   4   11.93    1.45
   4   8  -4    0.41    0.59
   4   8  -4    2.13    1.00
   4   8  -4    0.22    1.03
   3   8  -4   11.29    1.39
   3   8  -4   10.62    1.52
   3   8  -4   11.56    1.36
  -3  -8   4    9.79    1.22
   2   8  -4    0.44    0.86
   2   8  -4    0.28    0.72
   2   8  -4    0.16    0.50
  -2  -8   4    0.02    0.75
   1   8  -4    0.61    0.65
   1   8  -4    0.21    0.51
  -1  -8   4    1.45    0.81
   0   8  -4    0.07    0.52
   0   8  -4   -0.35    0.50
   0  -8   4    0.88    0.76
  -1   8  -4   35.17    1.74
  -1   8  -4   32.76    1.61
   1  -8   4   31.80    1.70
  -2   8  -4    3.33    0.56
  -2   8  -4    5.81    0.93
   2  -8   4    3.19    0.78
   2  -8   4    3.04    0.63
  -3   8  -4    3.27    0.55
  -3   8  -4    5.18    0.85
   3  -8   4    3.06    0.60
   3  -8   4    4.16    0.73
  -4   8  -4    6.65    0.98
   4  -8   4    5.89    0.86
   4  -8   4    4.73    0.64
  -5   8  -4    2.05    0.83
   5  -8   4    1.15    0.70
  -6   8  -4   -0.37    0.63
   6  -8   4    0.62    0.74
  -7   8  -4   -0.57    0.99
   7  -8   4   -0.16    1.04
   8  -8   4    0.18    1.18
   9  -8   4    3.85    1.37
  10  -8   4    3.31    1.41
  11  -8   4    1.33    1.28
  12  -8   4    0.99    1.31
  13  -8   4    9.98    1.86
  14  -8   4    0.94    1.51
  15  -8   4    1.37    1.48
  15  -8   4   -0.12    1.70
  16  -8   4    0.23    1.85
  17  -8   4    0.54    2.03
  14   7  -4   -0.10    1.26
  14   7  -4   -2.18    2.12
  13   7  -4   -0.12    1.78
  13   7  -4   -0.20    1.20
  12   7  -4    0.79    1.89
  12   7  -4    2.67    1.23
 -12  -7   4    2.32    1.53
  11   7  -4    0.01    0.99
  11   7  -4    0.17    1.65
 -11  -7   4    0.75    1.38
  10   7  -4    7.32    1.66
  10   7  -4    4.47    1.14
 -10  -7   4    5.09    1.36
   9   7  -4    2.25    1.40
   9   7  -4    3.15    1.14
  -9  -7   4    2.21    1.16
   8   7  -4    1.43    1.04
   8   7  -4   -1.54    1.25
  -8  -7   4   -0.67    1.04
   7   7  -4    1.07    0.88
   7   7  -4    3.44    1.18
  -7  -7   4   -0.05    0.92
   6   7  -4    4.78    1.14
   6   7  -4    2.57    0.85
  -6  -7   4    3.05    0.95
   5   7  -4    0.38    1.06
   5   7  -4    0.77    0.51
   5   7  -4    1.75    0.93
  -5  -7   4    1.89    0.84
   4   7  -4    3.01    0.91
   4   7  -4    2.26    0.56
   4   7  -4    3.72    0.96
  -4  -7   4    2.62    0.80
   3   7  -4   -0.31    0.69
   3   7  -4   -0.61    0.80
   3   7  -4   -0.03    0.40
  -3  -7   4    0.08    0.66
   2   7  -4   -0.05    0.63
   2   7  -4   -0.30    0.79
   2   7  -4   -0.07    0.39
  -2  -7   4   -1.06    0.64
   1   7  -4    2.44    0.74
   1   7  -4    0.83    0.49
   1   7  -4    1.18    0.63
  -1  -7   4    0.96    0.70
   0   7  -4   40.13    1.83
   0   7  -4   39.86    1.76
   0  -7   4   40.52    1.79
  -1   7  -4    2.29    0.51
  -1   7  -4    3.04    0.65
   1  -7   4    2.03    0.54
   1  -7   4    4.10    0.73
  -2   7  -4    3.87    0.76
  -2   7  -4    2.75    0.49
   2  -7   4    2.89    0.55
   2  -7   4    3.53    0.70
  -3   7  -4    1.38    0.64
   3  -7   4    1.07    0.47
   3  -7   4    1.52    0.55
  -4   7  -4    4.89    0.93
   4  -7   4    5.01    0.80
   4  -7   4    3.33    0.52
  -5   7  -4    3.37    0.72
   5  -7   4    3.59    0.81
   5  -7   4    3.23    0.50
  -6   7  -4    0.10    0.64
   6  -7   4    0.08    0.67
   7  -7   4    9.21    1.42
   8  -7   4    0.58    1.12
   9  -7   4    5.90    1.35
  10  -7   4    5.54    1.48
  11  -7   4    2.09    1.31
  12  -7   4    2.38    1.44
  13  -7   4    3.25    1.43
  14  -7   4    2.06    1.51
  15  -7   4    1.34    1.29
  15  -7   4    1.15    1.67
  16  -7   4   -0.71    1.42
  16  -7   4    0.47    1.76
  17  -7   4    1.39    2.05
  16   6  -4   -1.88    1.57
  15   6  -4   -0.15    1.52
  14   6  -4   -0.56    1.25
 -14  -6   4    1.03    1.58
  13   6  -4    0.99    1.89
  13   6  -4    1.53    1.17
 -13  -6   4   -1.36    1.49
  12   6  -4    1.54    1.11
  12   6  -4    1.89    1.72
 -12  -6   4    2.08    1.51
  11   6  -4    3.30    1.52
  11   6  -4    0.35    1.00
 -11  -6   4    1.17    1.28
  10   6  -4   -0.09    1.36
  10   6  -4    0.35    0.93
 -10  -6   4   -0.15    1.14
   9   6  -4    2.68    1.03
   9   6  -4    5.84    1.41
  -9  -6   4    1.44    1.11
   8   6  -4    7.54    1.42
   8   6  -4    4.33    1.01
  -8  -6   4    6.15    1.12
   7   6  -4    0.27    0.98
   7   6  -4    0.25    0.76
  -7  -6   4    0.55    0.89
   6   6  -4    1.54    0.95
   6   6  -4   -0.13    0.71
  -6  -6   4    0.25    0.78
   5   6  -4    0.99    0.79
   5   6  -4   -0.52    0.46
   5   6  -4   -0.36    0.89
  -5  -6   4    0.34    0.74
   4   6  -4    2.26    0.83
   4   6  -4    1.30    0.53
   4   6  -4    1.45    0.76
  -4  -6   4   -0.26    0.88
  -4  -6   4    2.48    0.71
   3   6  -4    7.05    1.06
   3   6  -4    7.65    1.06
   3   6  -4    8.10    1.02
  -3  -6   4    7.77    0.93
  -3  -6   4    8.02    0.96
   2   6  -4    2.26    0.65
   2   6  -4    2.09    0.51
   2   6  -4    1.99    0.74
  -2  -6   4    1.84    0.78
  -2  -6   4    1.99    0.66
   1   6  -4   70.28    2.43
   1   6  -4   66.32    2.47
   1   6  -4   68.13    2.42
  -1  -6   4   66.91    2.47
  -1  -6   4   67.72    2.38
   0   6  -4   59.25    2.23
   0   6  -4   62.33    2.27
   0   6  -4   59.76    2.21
   0  -6   4   60.67    2.22
   0  -6   4   65.38    2.31
  -1   6  -4    1.27    0.49
  -1   6  -4    0.89    0.38
   1  -6   4    0.45    0.40
   1  -6   4    0.81    0.51
  -2   6  -4    1.30    0.59
  -2   6  -4    1.10    0.39
   2  -6   4    1.00    0.53
   2  -6   4    0.42    0.37
  -3   6  -4    7.17    0.95
   3  -6   4    7.68    0.90
   3  -6   4    8.12    0.89
  -4   6  -4    2.19    0.63
   4  -6   4    2.06    0.66
   4  -6   4    1.06    0.43
  -5   6  -4    1.26    0.72
   5  -6   4    0.78    0.46
   5  -6   4    0.41    0.61
   6  -6   4    8.52    1.23
   7  -6   4   -0.44    0.71
   9  -6   4    6.90    1.39
  10  -6   4    0.02    1.22
  11  -6   4   -0.33    1.23
  12  -6   4    8.58    1.64
  13  -6   4    1.07    1.24
  14  -6   4    1.72    1.46
  15  -6   4    2.91    1.67
  16  -6   4    0.30    1.43
  16  -6   4   -0.01    1.72
  17  -6   4    1.44    1.63
  17  -6   4    0.23    2.00
  16   5  -4   -0.98    1.57
 -16  -5   4    0.87    2.10
  15   5  -4   -1.86    1.32
 -15  -5   4    1.35    1.74
  14   5  -4    1.99    1.96
  14   5  -4   -1.79    1.24
 -14  -5   4   -1.90    1.53
  13   5  -4    1.20    1.71
  13   5  -4    1.63    1.12
 -13  -5   4   -1.00    1.35
  12   5  -4    1.33    1.01
  12   5  -4    0.28    1.49
  11   5  -4    1.59    1.35
  11   5  -4    1.45    1.06
 -11  -5   4    1.04    1.22
  10   5  -4    0.67    1.23
  10   5  -4    0.57    0.96
 -10  -5   4    0.25    1.07
   9   5  -4    0.64    1.13
   9   5  -4    0.84    0.91
  -9  -5   4   -0.34    0.97
   8   5  -4    2.36    0.94
   8   5  -4    3.38    1.13
  -8  -5   4    2.18    0.95
   7   5  -4    3.01    1.03
  -7  -5   4    2.37    0.90
   6   5  -4    5.84    0.83
   6   5  -4    9.94    1.13
  -6  -5   4    7.28    1.16
  -6  -5   4    7.73    1.29
   5   5  -4   -0.53    0.75
   5   5  -4    1.16    0.56
   5   5  -4    2.74    0.79
  -5  -5   4    2.93    0.79
  -5  -5   4    3.02    0.72
   4   5  -4   23.83    1.40
   4   5  -4   26.27    1.33
   4   5  -4   25.24    1.61
  -4  -5   4   29.19    1.35
  -4  -5   4   23.63    1.41
   3   5  -4    5.92    0.78
   3   5  -4    3.63    0.56
   3   5  -4    5.37    0.86
  -3  -5   4    5.48    0.95
   2   5  -4   -0.14    0.44
   2   5  -4   -0.08    0.32
   2   5  -4    0.16    0.50
  -2  -5   4   -0.13    0.48
  -2  -5   4    1.04    0.56
   1   5  -4   52.39    1.91
   1   5  -4   54.34    1.91
   1   5  -4   54.81    2.01
  -1  -5   4   53.20    1.93
  -1  -5   4   46.53    1.86
  -1  -5   4   49.13    1.88
   0   5  -4    5.67    0.71
   0   5  -4    5.91    0.78
   0   5  -4    5.71    0.65
   0  -5   4    5.89    0.78
   0  -5   4    5.35    0.73
   0  -5   4    5.35    0.66
  -1   5  -4    0.48    0.43
  -1   5  -4    0.05    0.31
  -1   5  -4    0.71    0.38
   1  -5   4    1.69    0.39
   1  -5   4   -0.03    0.28
   1  -5   4   -0.18    0.42
  -2   5  -4   11.58    0.96
   2  -5   4   10.94    0.97
   2  -5   4   12.28    0.84
  -3   5  -4    0.74    0.54
   3  -5   4    1.25    0.36
   3  -5   4    0.98    0.55
  -4   5  -4    3.30    0.76
   4  -5   4    3.06    0.70
   4  -5   4    1.91    0.45
   5  -5   4    3.81    0.83
   6  -5   4    1.61    0.73
   7  -5   4    0.28    0.62
   8  -5   4   15.52    1.30
  13  -5   4    0.32    1.36
  14  -5   4    2.26    1.49
  15  -5   4   -0.32    1.55
  16  -5   4    1.58    1.45
  16  -5   4   -1.35    1.67
  17  -5   4    0.15    2.07
  17  -5   4   -0.43    1.61
 -17  -4   4    2.15    2.31
  16   4  -4   -0.44    1.49
 -16  -4   4    1.30    1.99
  15   4  -4    0.70    1.38
  15   4  -4   -1.00    1.99
 -15  -4   4    2.15    1.71
  14   4  -4    0.49    1.79
  14   4  -4    0.06    1.21
 -14  -4   4   -2.69    1.40
  13   4  -4   -1.36    1.64
  13   4  -4    0.34    1.11
 -13  -4   4   -1.12    1.30
  12   4  -4    0.83    0.98
  12   4  -4    0.02    1.45
  11   4  -4    0.58    1.32
  11   4  -4    1.82    1.00
 -11  -4   4    2.25    1.15
  10   4  -4    0.54    1.15
  10   4  -4    0.37    0.87
 -10  -4   4   -0.74    0.98
   9   4  -4    4.08    1.05
   9   4  -4    7.25    1.18
  -9  -4   4    6.74    1.18
   8   4  -4    3.60    0.94
  -8  -4   4    3.08    0.97
   7   4  -4    0.61    0.72
   7   4  -4    0.13    0.50
  -7  -4   4    0.93    0.79
  -6  -4   4    4.07    0.79
  -6  -4   4    3.92    0.78
   5   4  -4    0.71    0.63
   5   4  -4    0.05    0.44
   5   4  -4    0.47    0.61
  -5  -4   4    0.18    0.59
  -5  -4   4    0.61    0.57
   4   4  -4    5.82    0.89
   4   4  -4    3.98    0.65
   4   4  -4    5.79    0.80
  -4  -4   4    6.16    0.87
   3   4  -4   43.19    1.64
   3   4  -4   40.71    1.85
   3   4  -4   41.73    1.59
  -3  -4   4   44.48    1.61
  -3  -4   4   44.55    1.62
   2   4  -4   63.88    2.34
   2   4  -4   65.76    2.16
   2   4  -4   61.58    2.14
  -2  -4   4   68.59    2.29
  -2  -4   4   62.98    2.15
  -2  -4   4   62.87    2.15
   1   4  -4   37.51    1.40
   1   4  -4   37.51    1.55
   1   4  -4   36.43    1.41
  -1  -4   4   40.15    1.50
  -1  -4   4   36.49    1.41
  -1  -4   4   36.50    1.48
   0   4  -4    9.98    0.80
   0   4  -4   11.60    0.87
   0   4  -4   11.07    0.79
   0  -4   4   12.06    0.74
   0  -4   4   11.35    0.73
   0  -4   4   10.67    0.94
  -1   4  -4    0.65    0.37
  -1   4  -4    0.18    0.29
  -1   4  -4    0.06    0.41
   1  -4   4    1.00    0.41
   1  -4   4    0.58    0.52
   1  -4   4    0.44    0.25
  -2   4  -4    5.56    0.66
  -2   4  -4    4.35    0.61
   2  -4   4    4.75    0.66
   2  -4   4    5.05    0.70
   2  -4   4    4.45    0.65
  -3   4  -4    0.89    0.53
   3  -4   4    1.34    0.56
   4  -4   4    4.25    0.77
   5  -4   4    5.95    0.82
   6  -4   4   11.73    1.12
   7  -4   4    2.73    0.67
 -10   4  -4    9.01    1.34
  13  -4   4    0.73    1.35
  14  -4   4    2.95    1.55
  15  -4   4   -2.28    1.49
  16  -4   4    0.81    1.80
  16  -4   4    1.82    1.54
  17  -4   4   -0.45    1.62
  17  -4   4    0.08    2.04
  17   3  -4    0.81    1.43
 -17  -3   4    2.79    2.07
  16   3  -4   -0.06    1.43
 -16  -3   4    1.32    1.80
  15   3  -4   -2.40    1.89
  15   3  -4   -0.37    1.20
 -15  -3   4   -3.17    1.49
  14   3  -4   -1.81    1.72
  14   3  -4   -1.01    1.06
  13   3  -4    3.00    1.62
  13   3  -4    3.09    1.09
 -13  -3   4    1.95    1.36
  12   3  -4    2.69    1.38
  12   3  -4    3.04    1.06
 -12  -3   4    2.33    1.27
  11   3  -4    7.45    1.38
  11   3  -4    4.93    1.06
 -11  -3   4    6.92    1.28
  10   3  -4   15.23    1.69
  10   3  -4   19.06    2.22
 -10  -3   4   14.92    1.65
   9   3  -4   22.54    2.09
   9   3  -4   20.01    1.62
  -9  -3   4   19.94    1.64
   8   3  -4    2.72    0.66
  -8  -3   4    3.79    0.94
   7   3  -4    7.21    1.18
   7   3  -4    5.82    0.98
  -7  -3   4    8.80    1.09
   6   3  -4    6.21    1.08
  -6  -3   4    6.58    0.84
   5   3  -4   33.22    1.48
   5   3  -4   35.46    1.78
  -5  -3   4   34.38    1.51
   4   3  -4    4.07    0.69
  -4  -3   4    4.99    0.76
   3   3  -4    5.63    0.58
   3   3  -4    6.45    0.95
   3   3  -4    6.02    0.60
  -3  -3   4    5.63    0.68
  -3  -3   4    5.52    0.79
  -3  -3   4    6.72    0.62
   2   3  -4    1.74    0.44
   2   3  -4    2.31    0.41
   2   3  -4    1.32    0.41
  -2  -3   4    1.40    0.35
  -2  -3   4    1.60    0.46
  -2  -3   4    2.17    0.42
   1   3  -4    2.85    0.54
   1   3  -4    2.08    0.42
   1   3  -4    2.07    0.44
  -1  -3   4    2.08    0.56
  -1  -3   4    1.91    0.40
  -1  -3   4    1.45    0.29
   0   3  -4    1.20    0.41
   0   3  -4    0.71    0.33
   0   3  -4    1.28    0.50
   0  -3   4    1.75    0.43
   0  -3   4    1.08    0.30
   0  -3   4    0.82    0.56
  -1   3  -4   35.74    1.49
  -1   3  -4   37.48    1.51
   1  -3   4   41.06    1.44
   1  -3   4   37.01    1.45
   1  -3   4   38.73    1.62
  -2   3  -4   52.08    1.88
   2  -3   4   50.47    1.87
   2  -3   4   51.67    1.92
   3  -3   4    4.27    0.54
   3  -3   4    5.16    0.82
   3  -3   4    4.13    0.59
   4  -3   4   29.62    1.42
   5  -3   4    9.59    0.93
   6  -3   4    9.75    0.95
   7  -3   4    6.26    0.87
  -9   3  -4    0.02    0.79
 -10   3  -4    3.73    1.14
  13  -3   4    1.83    1.35
  14  -3   4    0.13    1.43
  15  -3   4    0.88    1.58
  16  -3   4    2.16    1.85
  17  -3   4    0.37    2.11
  17  -3   4   -1.23    1.69
  17   2  -4   -1.11    1.52
 -17  -2   4    1.82    2.13
  16   2  -4   -1.31    1.19
 -16  -2   4   -0.35    1.69
  15   2  -4    0.68    1.79
  15   2  -4   -1.07    1.19
 -15  -2   4   -2.25    1.47
  14   2  -4    1.61    1.58
  14   2  -4    0.54    1.07
 -14  -2   4   -1.46    1.39
  13   2  -4    1.68    1.38
  13   2  -4   -0.33    0.99
 -13  -2   4   -1.55    1.18
  12   2  -4    0.49    1.18
  12   2  -4    0.82    0.91
 -12  -2   4   -0.11    1.16
  11   2  -4    4.29    1.12
  11   2  -4    2.53    0.94
 -11  -2   4    4.32    1.16
  10   2  -4   14.96    1.93
  10   2  -4   13.24    1.45
 -10  -2   4   11.82    1.58
   9   2  -4    7.15    1.19
   9   2  -4    3.83    0.72
  -9  -2   4    5.11    1.03
   8   2  -4    3.32    0.71
   8   2  -4    2.38    0.52
  -8  -2   4    3.17    0.83
   7   2  -4   14.07    1.18
  -7  -2   4   14.31    1.12
   6   2  -4    1.48    0.47
  -6  -2   4    2.07    0.61
   5   2  -4   12.15    0.85
   5   2  -4   12.09    1.02
  -5  -2   4   11.01    0.88
   4   2  -4   10.40    1.05
   4   2  -4   11.69    0.71
  -4  -2   4   11.16    0.84
  -4  -2   4   13.00    0.94
   3   2  -4    4.42    0.57
   3   2  -4    5.58    0.89
  -3  -2   4    4.86    0.79
  -3  -2   4    5.50    0.70
   2   2  -4   23.46    1.07
   2   2  -4   23.77    1.25
  -2  -2   4   22.03    1.09
  -2  -2   4   21.75    1.12
   1   2  -4   22.55    1.16
   1   2  -4   24.41    1.12
  -1  -2   4   22.92    1.10
  -1  -2   4   22.58    0.93
  -1  -2   4   23.44    1.18
   0   2  -4   -0.29    0.37
   0   2  -4    0.56    0.46
   0  -2   4   -0.09    0.33
   0  -2   4    0.44    0.30
   0  -2   4    0.52    0.55
  -1   2  -4   51.72    1.85
   1  -2   4   51.75    1.93
  -2   2  -4    4.09    0.58
   2  -2   4    3.93    0.64
   3  -2   4   21.47    1.13
   3  -2   4   20.68    0.97
   4  -2   4    1.35    0.49
   4  -2   4    0.96    0.43
   5  -2   4   45.08    1.80
   6  -2   4    0.57    0.50
   7  -2   4    2.42    0.67
  12  -2   4    0.17    1.17
  13  -2   4    2.26    1.32
  14  -2   4    0.26    1.39
  15  -2   4    1.38    1.66
  16  -2   4    4.67    2.00
  16  -2   4    6.34    2.24
  17  -2   4   -0.19    1.78
  17  -2   4   -0.14    2.51
  17  -2   4    2.15    2.21
  18   1  -4   -1.96    1.66
 -18  -1   4    2.27    2.14
  17   1  -4    1.31    1.50
 -17  -1   4    2.52    1.99
  16   1  -4    1.61    2.11
  16   1  -4   -0.89    1.20
 -16  -1   4    1.67    1.71
  15   1  -4    1.70    1.78
  15   1  -4    0.43    1.19
 -15  -1   4   -2.38    1.43
  14   1  -4    5.82    1.60
  14   1  -4    3.91    1.16
 -14  -1   4    2.92    1.41
  13   1  -4   -0.41    0.91
  13   1  -4   -0.36    1.22
 -13  -1   4   -0.42    1.22
  12   1  -4    0.51    0.80
  12   1  -4    1.13    1.11
 -12  -1   4    0.64    1.09
  11   1  -4   -0.29    0.94
  11   1  -4   -0.02    0.78
  10   1  -4    2.56    0.72
  10   1  -4    4.73    1.02
  10   1  -4    4.82    0.95
 -10  -1   4    4.42    1.07
   9   1  -4    1.41    0.61
  -9  -1   4    3.76    0.86
   8   1  -4    9.85    1.08
  -8  -1   4    7.81    1.04
   7   1  -4    7.44    0.97
  -7  -1   4    7.88    0.94
   6   1  -4    0.12    0.31
  -6  -1   4    0.85    0.49
   5   1  -4   56.03    2.15
   5   1  -4   58.16    1.94
  -5  -1   4   58.05    2.11
  -5  -1   4   56.88    2.03
   4   1  -4   30.37    1.39
   4   1  -4   27.26    1.14
  -4  -1   4   28.33    1.28
  -4  -1   4   27.85    1.25
   3   1  -4  123.84    3.75
   3   1  -4  130.18    3.95
  -3  -1   4  124.83    3.90
  -3  -1   4  121.90    3.76
   2   1  -4   65.19    2.16
   2   1  -4   65.02    2.26
  -2  -1   4   66.45    2.19
  -2  -1   4   67.97    2.25
   1   1  -4  110.79    3.26
   1   1  -4  106.60    3.34
  -1  -1   4  107.48    3.25
  -1  -1   4  104.61    3.31
   0   1  -4    0.20    0.47
   0  -1   4    0.75    0.47
  -1   1  -4   26.49    1.20
   1  -1   4   26.62    1.22
  -2   1  -4   10.17    0.75
   2  -1   4   11.15    0.90
   3  -1   4    0.52    0.41
   4  -1   4    0.63    0.46
   4  -1   4    0.57    0.39
   5  -1   4   66.00    2.29
   5  -1   4   63.54    2.32
   6  -1   4   23.88    1.31
   7  -1   4   27.84    1.55
   8  -1   4    6.90    1.06
  11  -1   4    0.14    1.13
  12  -1   4   -0.15    1.15
  13  -1   4    0.22    1.32
  14  -1   4    5.96    1.85
  14  -1   4    3.67    1.58
  15  -1   4    3.71    1.79
  15  -1   4    3.65    2.04
  16  -1   4   -0.04    1.83
  16  -1   4    1.64    2.02
  17  -1   4    4.98    2.52
  17  -1   4    1.65    2.31
  17  -1   4   -0.08    1.77
  18   0  -4   -2.43    1.57
 -18   0   4    2.13    2.12
  17   0  -4   -0.88    1.53
 -17   0   4    2.60    2.01
  16   0  -4   -0.08    1.16
  16   0  -4   -0.03    1.95
 -16   0   4    0.96    1.51
  15   0  -4    0.76    1.07
  15   0  -4    1.49    1.70
 -15   0   4   -0.55    1.38
  14   0  -4    0.55    1.43
  14   0  -4   -0.13    0.95
 -14   0   4    0.91    1.42
  13   0  -4    1.09    1.28
  13   0  -4    0.40    0.92
 -13   0   4    0.24    1.19
  12   0  -4    4.22    1.00
  12   0  -4    5.80    1.28
 -12   0   4    5.40    1.29
 -11   0   4   -0.62    1.07
  10   0  -4    0.38    0.66
  10   0  -4    0.53    0.93
 -10   0   4    0.78    0.85
   9   0  -4    7.57    1.30
  -9   0   4    6.16    0.91
   8   0  -4   32.01    1.69
  -8   0   4   34.12    1.57
   7   0  -4    0.88    0.37
  -7   0   4    1.39    0.51
   6   0  -4    2.49    0.46
  -6   0   4    2.42    0.47
  -6   0   4    3.28    0.57
   5   0  -4   11.01    0.90
   5   0  -4   13.88    0.78
  -5   0   4   13.03    0.90
  -5   0   4   11.05    0.86
   4   0  -4    4.93    0.70
   4   0  -4    8.04    0.78
  -4   0   4    7.95    0.70
  -4   0   4    6.33    0.76
   3   0  -4   75.96    2.41
   3   0  -4   76.15    2.47
  -3   0   4   70.92    2.40
  -3   0   4   73.29    2.41
   2   0  -4    5.22    0.71
   2   0  -4    6.65    0.79
  -2   0   4    7.67    0.50
  -2   0   4    5.30    0.74
  -2   0   4    6.85    0.74
   1   0  -4   54.20    1.75
  -1   0   4   51.57    1.74
  -1   0   4   50.08    1.71
   0   0   4    7.82    0.75
  -1   0  -4  252.37    7.15
   1   0   4  250.09    7.15
  -2   0  -4  144.25    4.26
   2   0   4  145.49    4.29
   3   0   4    0.14    0.34
   3   0   4    0.10    0.39
   4   0   4   21.10    1.07
   4   0   4   20.96    1.07
   5   0   4    1.33    0.57
   5   0   4    1.13    0.62
   6   0   4    2.48    0.69
   7   0   4    0.31    0.70
   8   0   4    9.00    1.31
   9   0   4   -0.06    0.90
  10   0   4    0.02    1.06
  11   0   4    3.93    1.41
  12   0   4    6.16    1.63
  12   0   4    2.74    1.28
  13   0   4    2.10    1.74
  13   0   4    3.56    1.45
  14   0   4    5.47    1.90
  14   0   4    3.79    1.64
  15   0   4    3.16    1.88
  15   0   4   -0.04    1.68
  16   0   4   -0.44    2.24
  16   0   4    1.05    2.13
  16   0   4    0.79    1.65
  18  -1  -4   -0.43    1.47
 -18   1   4    4.15    2.18
  17  -1  -4    1.05    1.82
  17  -1  -4   -1.35    1.29
 -17   1   4    2.30    1.90
  16  -1  -4    0.30    1.24
  16  -1  -4    0.05    1.87
 -16   1   4    0.58    1.50
  15  -1  -4   -0.02    1.68
  15  -1  -4   -0.39    1.00
 -15   1   4   -0.97    1.37
  14  -1  -4   -0.15    0.90
 -14   1   4   -2.35    1.12
  13  -1  -4    0.40    0.82
 -13   1   4   -0.05    1.15
 -12   1   4    5.45    1.35
  11  -1  -4    0.47    0.73
 -11   1   4   -0.14    0.97
  10  -1  -4    0.42    0.63
  10  -1  -4    1.42    1.00
 -10   1   4    0.02    0.70
   9  -1  -4   18.47    1.45
   9  -1  -4   17.73    1.36
  -9   1   4   18.70    1.26
   8  -1  -4   14.79    1.09
   8  -1  -4   13.14    1.22
  -8   1   4   13.97    1.03
   7  -1  -4    1.47    0.52
   7  -1  -4    0.44    0.42
  -7   1   4    1.13    0.52
   6  -1  -4    0.55    0.36
  -6   1   4    1.45    0.51
  -6   1   4    0.62    0.40
   5  -1  -4    2.22    0.37
  -5   1   4    2.07    0.39
  -5   1   4    3.02    0.58
   4  -1  -4   15.75    0.93
   4  -1  -4   17.26    0.97
  -4   1   4   15.48    0.95
  -4   1   4   16.22    0.86
   3  -1  -4   35.05    1.23
   3  -1  -4   34.65    1.38
   3  -1  -4   33.47    1.37
  -3   1   4   35.08    1.31
  -3   1   4   34.39    1.25
  -3   1   4   33.82    1.40
   2  -1  -4    2.20    0.40
   2  -1  -4    0.93    0.48
  -2   1   4    1.51    0.51
  -2   1   4    1.34    0.36
  -2   1   4    1.09    0.52
   1  -1  -4    0.45    0.39
   1  -1  -4    1.05    0.38
  -1   1   4    1.62    0.45
  -1   1   4   -0.45    0.39
   0  -1  -4  999.11   27.25
   0  -1  -4 1000.00   28.18
   0   1   4  984.92   27.25
   0   1   4  972.01   28.18
  -1  -1  -4  182.37    5.05
   1   1   4  176.13    5.05
   1   1   4  167.58    5.34
  -2  -1  -4    0.24    0.38
   2   1   4    1.34    0.43
   2   1   4    0.76    0.57
   3   1   4    0.39    0.42
   3   1   4   -0.92    0.57
   3   1   4    0.41    0.37
   4   1   4    2.51    0.52
   4   1   4    2.39    0.52
   4   1   4    1.48    0.65
   5   1   4   13.52    1.09
   5   1   4   13.68    1.02
   5   1   4   12.51    1.00
   6   1   4    5.91    0.85
   6   1   4    6.12    0.99
   6   1   4    4.77    0.76
   7   1   4    2.02    0.77
   7   1   4    1.40    0.74
   8   1   4    6.51    1.21
   8   1   4    6.09    1.05
   9   1   4    3.03    1.28
   9   1   4    4.47    1.10
  10   1   4    0.99    1.38
  10   1   4    1.61    1.14
  11   1   4    5.29    1.62
  11   1   4    5.73    1.34
  12   1   4   -0.41    1.14
  12   1   4    1.24    1.44
  13   1   4   -0.65    1.35
  13   1   4    1.25    1.62
  14   1   4    1.28    1.84
  14   1   4    1.14    1.55
  15   1   4    2.68    1.89
  15   1   4   -0.13    2.11
  16   1   4    2.12    2.25
  16   1   4    0.25    1.64
  16   1   4    2.38    2.41
  18  -2  -4   -0.29    1.42
 -18   2   4    2.56    2.07
  17  -2  -4    1.86    1.89
  17  -2  -4   -0.87    1.27
 -17   2   4   -0.94    1.74
  16  -2  -4    1.49    1.20
 -16   2   4    2.38    1.57
  15  -2  -4    0.23    1.06
 -15   2   4   -0.74    1.33
  14  -2  -4   -0.38    0.88
 -14   2   4   -1.54    1.23
  13  -2  -4   12.46    2.02
 -13   2   4   12.36    1.59
  12  -2  -4    1.40    0.86
 -12   2   4   -0.20    1.03
  11  -2  -4    0.83    0.71
 -11   2   4   -0.64    0.85
  10  -2  -4    1.60    0.65
  10  -2  -4    2.34    1.07
 -10   2   4    0.58    0.66
   9  -2  -4   10.44    1.35
   9  -2  -4   12.12    1.32
  -9   2   4   10.83    1.04
   8  -2  -4    5.69    0.80
   8  -2  -4    3.44    0.59
  -8   2   4    7.19    0.90
   7  -2  -4   34.19    1.45
   7  -2  -4   31.36    1.55
  -7   2   4   33.54    1.42
  -7   2   4   33.34    1.55
  -7   2   4   36.38    1.68
   6  -2  -4    8.28    0.82
   6  -2  -4    5.90    0.86
  -6   2   4    7.71    0.74
  -6   2   4    8.56    0.85
  -6   2   4    8.08    0.96
   5  -2  -4   23.81    1.07
   5  -2  -4   22.42    1.10
  -5   2   4   22.64    0.99
  -5   2   4   21.86    1.18
  -5   2   4   22.71    1.14
   4  -2  -4   19.47    1.00
   4  -2  -4   16.95    0.92
   4  -2  -4   17.12    0.93
  -4   2   4   19.08    0.91
  -4   2   4   17.28    1.01
  -4   2   4   18.45    0.92
   3  -2  -4   90.81    2.88
   3  -2  -4   93.42    2.89
  -3   2   4   93.41    2.94
  -3   2   4   93.73    2.91
  -3   2   4   93.59    2.89
   2  -2  -4  232.29    6.80
   2  -2  -4  224.90    6.58
  -2   2   4  227.50    6.60
  -2   2   4  240.02    6.81
   1  -2  -4  122.21    3.86
   1  -2  -4  131.24    3.72
  -1   2   4  125.49    3.71
  -1   2   4  126.36    3.92
   0  -2  -4  124.96    3.93
   0  -2  -4  129.13    3.68
   0   2   4  127.39    3.98
   0   2   4  125.37    3.68
  -1  -2  -4   23.15    0.94
  -1  -2  -4   22.45    1.16
   1   2   4   21.90    1.22
   1   2   4   22.04    0.91
  -2  -2  -4   13.26    0.77
   2   2   4   14.34    0.78
   2   2   4   13.86    1.08
   3   2   4   -0.15    0.54
   3   2   4    0.03    0.44
   3   2   4    0.22    0.38
   4   2   4   11.64    0.84
   4   2   4   11.15    0.87
   4   2   4   12.66    1.03
   5   2   4    4.37    0.74
   5   2   4    5.62    0.80
   5   2   4    5.10    0.69
   6   2   4   -0.46    0.56
   6   2   4    0.69    0.64
   6   2   4   -0.68    0.56
   7   2   4   16.95    1.37
   7   2   4   16.08    1.31
   8   2   4    1.06    1.03
   8   2   4    0.89    0.88
   9   2   4   13.96    2.05
   9   2   4   12.72    1.55
  10   2   4    3.76    1.15
  10   2   4    2.42    1.39
  11   2   4    0.40    1.36
  11   2   4   -0.07    1.23
  12   2   4    1.65    1.46
  13   2   4   -1.22    1.61
  13   2   4    0.39    1.47
  14   2   4    1.72    1.68
  14   2   4    2.40    1.87
  15   2   4   -2.17    2.10
  15   2   4    0.75    2.02
  16   2   4   -3.75    2.48
  16   2   4    3.11    2.36
  16   2   4    2.30    1.62
 -19   3   4   -0.72    2.23
  18  -3  -4   -1.45    1.38
 -18   3   4    4.20    2.09
  17  -3  -4   -1.28    1.24
 -17   3   4   -0.63    1.55
  16  -3  -4    0.00    1.09
 -16   3   4   -0.49    1.44
  15  -3  -4   -0.17    0.98
 -15   3   4    0.27    1.27
  14  -3  -4    1.74    0.94
 -14   3   4   -0.37    1.19
 -13   3   4   11.09    1.87
  12  -3  -4    0.64    0.79
 -12   3   4   -0.64    1.01
  11  -3  -4    0.38    0.69
 -11   3   4    0.56    0.96
  10  -3  -4    1.78    0.66
   9  -3  -4    0.65    0.50
   9  -3  -4    1.17    0.90
  -9   3   4    0.68    0.53
   8  -3  -4   15.19    1.18
   8  -3  -4   14.74    1.30
  -8   3   4   15.98    1.20
  -8   3   4   15.14    1.14
   7  -3  -4   53.82    2.06
   7  -3  -4   55.10    2.13
  -7   3   4   55.19    2.18
  -7   3   4   60.82    2.15
  -7   3   4   54.75    2.04
   6  -3  -4   12.72    1.01
   6  -3  -4   10.43    0.90
  -6   3   4   12.19    0.90
  -6   3   4   10.97    1.01
  -6   3   4   11.72    0.94
   5  -3  -4    3.92    0.66
   5  -3  -4    2.87    0.39
  -5   3   4    4.30    0.60
  -5   3   4    3.80    0.64
  -5   3   4    3.95    0.67
   4  -3  -4    0.22    0.36
   4  -3  -4    0.29    0.43
  -4   3   4   -0.54    0.42
  -4   3   4    0.31    0.27
  -4   3   4   -0.33    0.38
   3  -3  -4    1.20    0.40
   3  -3  -4    1.95    0.42
  -3   3   4    1.18    0.41
  -3   3   4    2.08    0.59
   2  -3  -4    7.27    0.71
   2  -3  -4    6.30    0.67
  -2   3   4    5.57    0.61
  -2   3   4    7.15    0.80
   1  -3  -4   -0.69    0.38
   1  -3  -4    0.90    0.41
  -1   3   4   -0.43    0.33
   0  -3  -4   16.77    0.98
   0  -3  -4   16.47    0.80
   0   3   4   15.90    1.14
   0   3   4   16.10    0.76
  -1  -3  -4    8.39    0.63
  -1  -3  -4    7.49    0.80
   1   3   4    7.53    0.96
   2   3   4    4.29    0.73
   3   3   4   10.06    1.01
   4   3   4    7.50    0.91
   4   3   4    7.39    0.78
   5   3   4   13.33    0.92
   5   3   4   12.63    0.94
   5   3   4   12.68    1.07
   6   3   4    2.77    0.67
   6   3   4    1.84    0.72
   6   3   4    2.75    0.69
   7   3   4    3.19    0.85
   7   3   4    3.11    0.87
   7   3   4    3.97    0.99
   8   3   4    2.41    0.95
   8   3   4    3.05    1.27
   9   3   4    4.11    1.33
   9   3   4    3.95    1.12
  10   3   4    5.85    1.30
  10   3   4    6.48    1.55
  11   3   4    0.98    1.40
  11   3   4   -0.79    1.26
  12   3   4    0.94    1.71
  12   3   4    2.17    1.64
  13   3   4   -1.78    1.72
  14   3   4   -0.46    1.74
  15   3   4   -1.01    2.23
  15   3   4    0.94    1.55
  19  -4  -4   -1.77    1.59
 -19   4   4    1.38    2.19
  18  -4  -4   -2.38    1.33
 -18   4   4    4.00    1.93
  17  -4  -4   -0.45    1.18
 -17   4   4    0.49    1.57
  16  -4  -4   -1.55    1.01
 -16   4   4    0.27    1.40
 -15   4   4    1.13    1.35
  14  -4  -4    0.34    0.92
 -14   4   4   -0.30    1.25
  13  -4  -4    1.24    0.84
 -13   4   4    0.38    1.08
  12  -4  -4    1.01    0.77
 -12   4   4    0.14    0.97
  11  -4  -4    9.98    1.56
 -11   4   4    9.84    1.37
  10  -4  -4    2.72    0.63
 -10   4   4    3.56    1.00
   9  -4  -4    0.23    0.49
  -9   4   4    0.49    0.72
  -9   4   4    1.03    0.68
   8  -4  -4    0.14    0.40
  -8   4   4   -0.16    0.65
  -8   4   4   -0.13    0.52
   7  -4  -4    0.48    0.37
   7  -4  -4    1.05    0.79
  -7   4   4   -0.41    0.58
  -7   4   4    0.59    0.57
  -7   4   4    0.18    0.42
   6  -4  -4    8.29    1.13
  -6   4   4    8.68    0.91
  -6   4   4    9.34    0.88
  -6   4   4    7.36    0.94
   5  -4  -4  104.12    3.47
  -5   4   4  111.60    3.52
  -5   4   4  110.11    3.46
  -5   4   4  106.70    3.32
   4  -4  -4    0.96    0.50
   4  -4  -4    1.35    0.42
  -4   4   4    0.80    0.43
  -4   4   4    1.02    0.55
  -4   4   4    0.64    0.33
   3  -4  -4    1.20    0.42
   3  -4  -4    0.40    0.37
  -3   4   4    0.61    0.54
  -3   4   4    0.48    0.39
   2  -4  -4    4.17    0.70
   2  -4  -4    2.77    0.50
  -2   4   4    3.87    0.73
  -2   4   4    2.88    0.48
   1  -4  -4    0.74    0.47
   1  -4  -4    0.76    0.42
  -1   4   4    0.48    0.59
  -1   4   4    0.82    0.35
   0  -4  -4   32.35    1.15
   0   4   4   29.99    1.66
   0   4   4   30.05    1.09
   1   4   4    5.11    0.92
   2   4   4   11.81    1.12
   3   4   4    4.69    0.81
   4   4   4   -0.21    0.56
   5   4   4    4.73    0.89
   6   4   4    4.75    1.02
   7   4   4    1.63    0.79
   8   4   4    6.40    1.44
   8   4   4    7.85    1.17
   9   4   4   -0.78    1.29
   9   4   4   -0.05    0.99
  10   4   4    2.75    1.19
  10   4   4   -0.28    1.33
  11   4   4    1.69    1.37
  11   4   4   -0.01    1.61
  12   4   4   10.73    1.78
  12   4   4    9.07    2.11
  13   4   4    1.69    1.86
  13   4   4   -0.88    1.99
  14   4   4   -1.78    1.98
  15   4   4    1.60    2.37
  18  -5  -4   -0.38    1.36
 -18   5   4    1.49    1.84
  17  -5  -4    0.38    1.12
 -17   5   4    0.82    1.67
  16  -5  -4   -1.47    0.96
 -16   5   4    1.70    1.42
  15  -5  -4    1.14    1.06
 -15   5   4    2.26    1.26
  14  -5  -4    0.37    0.92
 -14   5   4   -1.06    1.10
  13  -5  -4    0.99    0.82
 -13   5   4   -0.85    0.98
  12  -5  -4    0.47    0.71
 -12   5   4   -1.28    0.96
  11  -5  -4    2.78    0.71
 -11   5   4    3.46    1.14
  10  -5  -4    0.51    0.56
 -10   5   4   -0.12    0.83
 -10   5   4    0.14    0.86
   9  -5  -4    0.67    0.50
  -9   5   4   -0.37    0.77
  -9   5   4    0.12    0.71
  -8   5   4    1.57    0.77
  -8   5   4    0.75    0.59
  -7   5   4    0.13    0.48
  -7   5   4    0.86    0.67
  -6   5   4    3.36    0.74
  -6   5   4    3.27    0.65
  -5   5   4   20.15    1.22
  -5   5   4   18.83    1.10
  -4   5   4   18.28    1.03
  -4   5   4   18.75    1.18
   3  -5  -4    7.54    0.88
  -3   5   4    7.21    0.94
  -3   5   4    7.78    0.73
   2  -5  -4    1.63    0.55
  -2   5   4    0.84    0.62
  -2   5   4    1.55    0.45
   1  -5  -4   10.14    0.86
  -1   5   4    9.91    1.10
  -1   5   4    9.36    0.68
   0   5   4    3.35    0.51
   1   5   4   34.80    1.92
   2   5   4   12.30    1.47
   3   5   4    0.53    0.64
   4   5   4   10.28    1.18
   5   5   4    6.03    1.00
   7   5   4    0.64    1.28
   8   5   4    4.65    1.48
   9   5   4    0.32    1.38
  10   5   4    7.77    1.79
  11   5   4   -0.10    1.63
  12   5   4    0.37    1.75
  13   5   4   -1.77    1.78
  14   5   4   -2.79    2.23
 -19   6   4   -1.04    2.13
 -18   6   4    1.42    1.85
  17  -6  -4   -0.37    1.15
 -17   6   4   -0.77    1.59
  16  -6  -4    0.49    1.21
 -16   6   4    0.94    1.43
  15  -6  -4    0.76    1.04
 -15   6   4    0.81    1.32
  14  -6  -4    0.17    0.88
 -14   6   4    1.23    1.25
  13  -6  -4    1.90    0.81
 -13   6   4    1.61    1.13
 -12   6   4    3.36    1.25
 -11   6   4   -1.05    0.89
 -11   6   4    0.58    1.07
 -10   6   4    0.44    0.96
 -10   6   4    2.30    0.98
  -9   6   4    6.78    1.08
  -8   6   4    4.28    0.94
  -8   6   4    4.86    0.78
  -7   6   4    0.05    0.68
  -7   6   4    0.67    0.49
  -6   6   4   27.63    1.39
  -6   6   4   29.49    1.58
  -5   6   4    2.99    0.71
  -5   6   4    2.32    0.55
  -4   6   4    0.01    0.61
  -4   6   4    0.21    0.47
   3  -6  -4   18.48    1.22
  -3   6   4   16.10    1.33
  -3   6   4   18.15    1.05
   2  -6  -4   12.00    1.05
  -2   6   4    8.61    1.30
  -2   6   4   12.49    0.87
   1  -6  -4    4.89    0.67
  -1   6   4    4.11    0.55
  -1   6   4    7.28    1.15
   1   6   4   12.36    1.50
   2   6   4   12.77    1.43
   3   6   4   19.19    1.60
   4   6   4    2.03    1.27
   6   6   4    5.54    1.55
   7   6   4    3.65    1.49
   8   6   4    7.83    1.69
   9   6   4    0.23    1.59
  10   6   4    4.17    1.70
  11   6   4    1.91    1.86
  12   6   4    1.56    1.92
  13   6   4    1.52    2.17
  14   6   4    1.25    2.58
  14   6   4   -0.81    1.31
 -18   7   4    0.82    1.73
 -17   7   4    3.65    1.75
 -16   7   4   -0.41    1.49
 -15   7   4    0.63    1.33
 -14   7   4    6.56    1.58
 -13   7   4    2.80    1.22
 -12   7   4    4.29    1.25
 -11   7   4   -0.56    1.03
 -11   7   4   -1.02    1.08
 -10   7   4    4.35    1.09
 -10   7   4    7.67    1.34
  -9   7   4    4.80    1.17
  -9   7   4    2.62    1.00
  -8   7   4    0.65    0.96
  -8   7   4    1.19    0.64
  -7   7   4   22.83    1.35
  -7   7   4   24.80    1.69
  -6   7   4    1.29    0.60
  -6   7   4    1.06    0.66
  -5   7   4    0.69    0.68
  -5   7   4    0.76    0.61
  -4   7   4    6.01    1.04
  -4   7   4    6.25    0.95
   3  -7  -4    1.86    0.78
  -3   7   4    1.19    0.82
  -3   7   4    2.21    0.63
   2  -7  -4    3.15    0.78
  -2   7   4    2.52    0.92
  -2   7   4    3.14    0.62
   1  -7  -4   -0.23    0.59
  -1   7   4   -0.07    0.81
  -1   7   4    0.30    0.45
   0   7   4   11.48    1.54
   1   7   4    0.46    0.81
   2   7   4   10.44    1.43
   4   7   4    2.60    1.58
   5   7   4    6.39    2.02
   6   7   4   11.99    2.33
   7   7   4    2.16    2.22
   8   7   4    6.96    2.32
   9   7   4    0.76    2.10
  10   7   4    2.46    2.20
  11   7   4    4.14    2.53
  12   7   4    1.29    2.49
  13   7   4    3.27    2.63
 -17   8   4    1.16    1.46
 -16   8   4    1.48    1.47
 -15   8   4    0.79    1.42
 -14   8   4    2.21    1.31
 -13   8   4    2.08    1.13
 -13   8   4   -0.70    1.30
 -12   8   4    0.15    1.05
 -12   8   4    0.31    1.17
 -11   8   4    0.12    0.98
 -11   8   4    2.33    1.23
 -10   8   4    1.51    1.04
  -9   8   4   -0.48    0.87
  -9   8   4   -0.36    1.04
  -8   8   4    1.82    1.07
  -7   8   4    2.09    0.74
  -7   8   4    1.13    0.92
  -6   8   4    0.70    0.70
  -6   8   4   -0.30    0.68
  -5   8   4    6.43    1.10
  -5   8   4    8.09    1.11
  -4   8   4    1.19    0.75
  -4   8   4    1.90    0.73
  -3   8   4    0.00    0.73
  -3   8   4    0.68    0.62
   2  -8  -4    0.60    0.80
  -2   8   4   -0.28    0.81
  -2   8   4   -0.20    0.54
   0   8   4    0.68    0.97
   2   8   4    7.56    1.62
   3   8   4    2.25    1.39
   4   8   4   -1.41    1.69
   5   8   4    0.16    1.87
   6   8   4    1.46    1.80
   7   8   4   -0.80    1.73
   8   8   4   -0.54    1.83
   9   8   4    0.93    2.16
  10   8   4    2.17    2.26
  11   8   4    0.89    2.11
  12   8   4    1.87    2.27
 -18   9   4    0.54    2.07
 -17   9   4    0.61    1.70
 -16   9   4    1.42    1.64
 -15   9   4    6.35    1.66
 -14   9   4    1.85    1.36
 -13   9   4    0.84    1.39
 -13   9   4    0.21    1.09
 -12   9   4    0.45    1.04
 -12   9   4    1.59    1.30
 -11   9   4   -0.88    0.95
 -11   9   4    0.58    1.32
 -10   9   4    0.11    1.27
 -10   9   4   -0.27    1.02
  -9   9   4    2.92    1.33
  -9   9   4    2.79    1.02
  -8   9   4    1.17    1.21
  -8   9   4    2.18    1.04
  -7   9   4    1.08    0.86
  -6   9   4    0.20    0.78
  -5   9   4    1.76    0.85
  -4   9   4    5.30    0.95
  -3   9   4    0.00    0.70
   2  -9  -4    1.20    0.94
  -2   9   4   -0.02    0.64
  -1   9   4    6.96    1.69
   0   9   4   -0.87    1.44
   1   9   4    2.93    1.43
   2   9   4    2.36    1.62
   3   9   4    0.13    1.39
   4   9   4   -1.68    1.70
   5   9   4    3.03    1.61
   6   9   4    0.20    1.41
   7   9   4   -0.59    1.99
   8   9   4   -2.02    1.89
   9   9   4   -2.87    1.96
  10   9   4   -1.82    2.15
  11   9   4    4.49    1.50
  11   9   4   -1.21    2.26
  12   9   4    1.25    1.40
  12   9   4   -0.97    2.37
 -18  10   4   -1.97    1.67
 -17  10   4   -0.76    1.55
 -16  10   4    0.26    1.59
 -15  10   4    1.30    1.34
 -14  10   4    1.43    1.38
 -14  10   4    1.33    1.59
 -13  10   4    3.95    1.42
 -13  10   4    1.84    1.42
 -12  10   4    2.16    1.41
 -12  10   4    0.41    1.22
 -11  10   4   -0.66    1.05
 -11  10   4   -0.22    1.34
 -10  10   4    0.48    1.38
 -10  10   4    1.46    1.07
  -9  10   4   -1.40    1.14
  -9  10   4    0.65    1.05
  -8  10   4    2.13    1.14
  -8  10   4    1.47    1.27
  -7  10   4   -0.54    1.17
  -6  10   4    5.55    1.11
  -6  10   4    4.35    1.36
  -5  10   4    0.69    1.20
  -5  10   4   -0.73    0.82
  -4  10   4   13.80    2.06
  -4  10   4   13.33    1.45
  -3  10   4    2.23    0.90
  -3  10   4    1.48    1.35
   2 -10  -4    8.44    1.26
  -2  10   4    7.03    1.17
  -2  10   4    7.93    1.61
  -1  10   4   -0.39    1.28
   0  10   4    1.74    1.58
   1  10   4    0.90    1.55
   2  10   4   -1.56    1.61
   3  10   4   -0.99    1.71
   4  10   4    7.11    2.06
   5  10   4    0.53    1.59
   6  10   4    1.88    1.85
   7  10   4   -0.12    1.75
   8  10   4   -2.10    1.83
   9  10   4    0.76    2.24
  10  10   4   -1.50    2.27
  10  10   4    1.78    1.32
  11  10   4   -0.31    2.52
  11  10   4    1.54    1.45
 -16  11   4    0.68    1.57
 -15  11   4    1.24    1.51
 -14  11   4   -0.24    1.24
 -14  11   4    1.11    1.68
 -13  11   4    1.93    1.39
 -13  11   4    4.03    1.65
 -12  11   4    1.03    1.67
 -12  11   4    0.29    1.16
 -11  11   4   -0.51    1.43
 -11  11   4    1.83    1.17
 -10  11   4   -0.06    1.43
 -10  11   4    1.61    1.30
  -9  11   4    1.31    1.19
  -9  11   4    1.06    1.27
  -8  11   4    1.79    1.17
  -8  11   4    0.29    1.41
  -7  11   4   -0.13    1.38
  -7  11   4    0.05    0.98
  -6  11   4    6.73    1.65
  -6  11   4    7.38    1.32
  -5  11   4    0.66    1.32
  -5  11   4    2.77    1.05
  -4  11   4   39.40    2.11
  -4  11   4   39.55    2.79
  -3  11   4    1.79    0.92
  -3  11   4    1.24    1.42
  -2  11   4    1.09    1.42
  -1  11   4   -0.78    1.36
   0  11   4    0.82    1.38
   1  11   4    0.21    1.64
   2  11   4   -0.76    1.58
   3  11   4    8.19    1.83
   4  11   4    1.04    1.81
   5  11   4    1.36    1.84
   6  11   4    1.34    1.99
   7  11   4    0.22    2.14
   8  11   4   -0.52    2.16
   9  11   4   -0.50    2.38
   9  11   4   -0.50    1.22
  10  11   4   -0.43    1.29
  10  11   4    0.42    2.54
 -17  12   4    2.42    1.92
 -16  12   4    1.84    1.78
 -15  12   4   -1.42    1.54
 -15  12   4    1.50    2.12
 -14  12   4    1.27    1.83
 -14  12   4    0.72    1.38
 -13  12   4    0.75    1.76
 -13  12   4   -0.91    1.30
 -12  12   4   -0.32    1.57
 -12  12   4    0.59    1.27
 -11  12   4    3.58    1.46
 -11  12   4    4.38    1.78
 -10  12   4    4.13    1.46
 -10  12   4    2.58    1.60
  -9  12   4   -0.42    1.15
  -9  12   4   -0.10    1.49
  -8  12   4    0.37    1.37
  -8  12   4    0.74    1.20
  -7  12   4    0.36    1.09
  -7  12   4    0.76    1.50
  -6  12   4    0.42    1.41
  -5  12   4    6.82    1.32
  -5  12   4    4.93    1.62
  -4  12   4   10.45    1.76
  -4  12   4   10.46    1.31
  -3  12   4    4.86    1.69
  -2  12   4   -0.05    1.25
  -1  12   4   -0.92    1.31
   0  12   4    2.68    1.48
   1  12   4    0.19    1.45
   2  12   4    0.24    1.81
   3  12   4   -1.05    1.87
   4  12   4    0.33    1.75
   5  12   4   -0.61    1.84
   6  12   4    0.75    2.05
   7  12   4    1.31    2.04
   7  12   4    0.12    1.25
   8  12   4   -0.02    1.35
   8  12   4    0.63    2.28
   9  12   4   -0.96    1.35
   9  12   4   -0.84    2.41
 -15  13   4    0.25    1.67
 -15  13   4    1.33    2.24
 -14  13   4    1.36    1.97
 -14  13   4    0.28    1.62
 -13  13   4    0.85    1.98
 -13  13   4    0.72    1.50
 -12  13   4    0.13    1.75
 -12  13   4    0.24    1.47
 -11  13   4    3.52    1.88
 -11  13   4    3.48    1.51
 -10  13   4   -1.56    1.49
 -10  13   4    0.74    1.34
  -9  13   4   -0.22    1.45
  -9  13   4    0.82    1.23
  -8  13   4    1.41    1.27
  -8  13   4    1.92    1.53
  -7  13   4    0.14    1.36
  -7  13   4   -1.03    1.09
  -6  13   4    1.91    1.44
  -6  13   4    1.37    1.10
  -5  13   4    5.96    1.70
  -5  13   4    6.21    1.35
  -4  13   4    0.09    0.85
  -4  13   4    2.53    1.49
   3 -13  -4    0.39    1.14
  -3  13   4    0.30    0.91
  -3  13   4    0.65    1.40
  -2  13   4    0.03    1.33
  -1  13   4    8.91    1.75
   0  13   4    1.52    1.50
   1  13   4    1.27    1.64
   2  13   4    1.90    1.65
   3  13   4    0.71    1.76
   4  13   4   -0.92    1.84
   5  13   4    0.08    1.29
   5  13   4   -1.11    2.08
   6  13   4   -1.12    2.05
   6  13   4    0.76    1.43
   7  13   4    1.22    1.43
   7  13   4   -2.37    2.22
   8  13   4   -0.82    1.33
   8  13   4    0.00    2.41
 -16  14   4   -3.27    1.77
 -16  14   4    1.08    2.61
 -15  14   4   -0.44    1.74
 -15  14   4    3.32    2.33
 -14  14   4   -1.23    1.51
 -14  14   4    2.11    2.05
 -13  14   4   -0.11    1.62
 -13  14   4    2.42    2.12
 -12  14   4   -0.34    1.52
 -12  14   4    3.90    2.03
 -11  14   4    0.36    1.77
 -11  14   4    0.81    1.50
 -10  14   4   -0.89    1.64
 -10  14   4   -0.50    1.42
  -9  14   4    0.80    1.80
  -9  14   4   -0.88    1.38
  -8  14   4    0.43    1.60
  -8  14   4   -0.65    1.34
  -7  14   4    2.36    1.47
  -7  14   4    0.92    1.30
  -6  14   4    4.22    1.59
  -6  14   4    3.39    1.29
  -5  14   4    0.54    1.51
   4 -14  -4    0.28    1.41
  -4  14   4    0.17    1.45
  -4  14   4    0.64    1.00
   3 -14  -4    2.20    1.40
  -3  14   4    1.87    1.08
  -3  14   4    4.22    1.52
  -2  14   4    1.80    1.58
  -2  14   4   -0.43    0.88
  -1  14   4   -0.03    1.00
  -1  14   4   -0.33    1.62
   0  14   4    0.70    1.06
   0  14   4    2.81    1.67
   1  14   4    2.77    1.78
   1  14   4    1.46    1.16
   2  14   4    0.96    1.71
   2  14   4    1.41    1.13
   3  14   4   -0.94    1.29
   3  14   4    2.39    1.72
   4  14   4    0.44    1.45
   4  14   4    1.34    1.94
   5  14   4   -0.43    1.36
   5  14   4    1.28    2.23
   6  14   4    0.56    2.10
   6  14   4   -1.86    1.41
 -15  15   4    1.33    2.27
 -15  15   4   -0.65    2.50
 -14  15   4    0.74    1.91
 -14  15   4    3.98    2.33
 -13  15   4   -1.78    2.24
 -13  15   4    2.78    1.89
 -12  15   4    1.26    1.73
 -12  15   4   -0.87    2.20
 -11  15   4    0.67    2.02
 -11  15   4    0.15    1.60
 -10  15   4   -0.44    1.88
 -10  15   4    0.75    1.69
  -9  15   4    1.09    1.77
  -9  15   4    0.34    1.54
  -8  15   4    0.31    1.64
  -8  15   4    0.76    1.47
  -7  15   4    1.59    1.61
   6 -15  -4    1.87    1.40
  -6  15   4    1.33    1.52
   5 -15  -4    1.98    1.44
  -5  15   4    1.43    1.48
   4 -15  -4   -0.04    1.61
  -4  15   4    0.53    1.29
  -4  15   4    0.19    1.68
   3 -15  -4    3.25    1.67
  -3  15   4    1.94    1.53
  -3  15   4    2.67    1.10
  -2  15   4    2.08    1.56
  -2  15   4    0.32    1.04
  -1  15   4    1.69    1.65
  -1  15   4    1.09    1.12
   0  15   4   -0.27    1.14
   0  15   4   -0.98    1.64
   1  15   4    0.96    1.20
   1  15   4    2.31    1.74
   2  15   4   -0.15    1.28
   2  15   4    1.87    1.82
   3  15   4   -0.75    1.27
   3  15   4    3.45    2.20
   4  15   4    1.30    2.06
   4  15   4   -0.09    1.32
   5  15   4    3.54    2.41
   5  15   4    1.01    1.42
 -13  16   4   -1.32    2.32
 -13  16   4    0.90    2.09
 -12  16   4    0.18    1.90
 -12  16   4    2.80    2.45
 -11  16   4   -1.08    1.81
 -11  16   4   -0.41    2.17
 -10  16   4    1.62    1.74
 -10  16   4   -0.05    1.91
  -9  16   4   -0.37    1.88
   8 -16  -4    1.07    1.61
  -8  16   4    1.93    1.84
   7 -16  -4    0.13    1.63
  -7  16   4    1.05    1.64
   6 -16  -4    1.56    1.61
  -6  16   4    2.32    1.71
   5 -16  -4   -0.37    1.63
  -5  16   4    0.70    1.72
   4 -16  -4    1.10    1.89
  -4  16   4   -1.66    1.59
  -4  16   4    0.91    1.69
  -3  16   4    1.36    1.69
  -3  16   4    1.14    1.36
  -2  16   4    1.90    1.70
  -2  16   4    0.16    1.38
  -1  16   4    1.59    1.36
  -1  16   4    0.96    1.86
   0  16   4    4.23    1.87
   0  16   4    2.07    1.44
   1  16   4   -0.85    1.79
   1  16   4    3.06    1.45
   2  16   4    0.93    1.52
   2  16   4    1.95    2.05
   3  16   4    3.80    2.46
   3  16   4    1.99    1.59
 -12  17   4    1.96    2.05
  11 -17  -4    0.24    2.07
  10 -17  -4    1.72    2.06
 -10  17   4   -1.95    2.25
   9 -17  -4    1.13    2.01
  -9  17   4    3.22    2.03
   8 -17  -4    0.47    1.88
  -8  17   4   -1.19    1.86
   7 -17  -4    2.58    1.84
  -7  17   4    2.98    2.01
   6 -17  -4    0.50    1.83
  -6  17   4    1.42    1.77
  -5  17   4    1.49    1.72
  -4  17   4    2.55    1.77
  -3  17   4    1.23    1.69
  -3  17   4    1.72    1.89
  -2  17   4    1.09    1.61
  -2  17   4    1.14    1.92
  -1  17   4    1.83    1.94
  -1  17   4   -1.70    1.62
   0  17   4    0.01    1.74
   1  17   4   -0.62    1.80
   1  17   4    2.74    2.48
   9 -18  -4    2.42    2.17
  -9  18   4    0.39    2.22
   8 -18  -4    0.52    2.10
  -8  18   4   -0.17    2.06
   7 -18  -4   -0.53    2.11
  -7  18   4    2.03    2.34
  -6  18   4    1.52    2.09
  -5  18   4    1.49    2.07
  -4  18   4    3.27    2.12
  -3  18   4    3.02    1.88
  -2  18   4    0.94    2.17
   4 -19   5   -1.23    2.40
  -5  19  -5   -2.85    2.17
   5 -19   5   -2.29    2.33
  -6  19  -5    0.80    2.03
   6 -19   5   -4.33    2.17
  -7  19  -5    1.43    2.27
   7 -19   5    1.31    2.41
   2  18  -5   -0.70    1.95
   2  18  -5    0.75    2.12
   1  18  -5    0.83    1.98
   1  18  -5    0.76    1.86
   0  18  -5    1.01    1.94
  -1  18  -5   -3.28    1.82
  -1  18  -5   -4.13    2.07
  -2  18  -5   -1.19    1.77
   2 -18   5    1.70    2.25
  -3  18  -5    1.09    1.83
   3 -18   5   -1.94    2.22
  -4  18  -5    1.54    1.98
   4 -18   5   -2.63    2.07
  -5  18  -5    0.20    2.07
   5 -18   5   -3.09    2.01
  -6  18  -5    0.12    1.96
   6 -18   5    2.10    2.14
  -7  18  -5    0.24    1.88
   7 -18   5    0.37    2.17
   8 -18   5    4.38    2.32
  -9  18  -5    2.88    1.98
   9 -18   5    0.38    2.21
 -10  18  -5    0.88    2.19
  10 -18   5   -2.54    2.11
   4  17  -5    1.26    2.17
   4  17  -5   -3.85    1.80
   3  17  -5   -2.27    1.76
   3  17  -5    2.69    2.15
   2  17  -5   -2.16    1.68
   2  17  -5   -0.67    2.15
   1  17  -5    1.22    1.92
   1  17  -5   -1.05    1.66
   0  17  -5    1.20    1.67
   0  17  -5   -0.58    1.62
   0 -17   5   -0.14    2.12
  -1  17  -5   -0.90    1.63
   1 -17   5    0.86    1.89
  -2  17  -5   -2.32    1.41
  -2  17  -5   -0.39    1.67
   2 -17   5    0.54    1.92
  -3  17  -5   -0.89    1.59
  -3  17  -5   -1.77    1.33
   3 -17   5   -0.19    1.91
  -4  17  -5    2.33    1.85
   4 -17   5    0.02    1.74
  -5  17  -5    1.95    1.90
   5 -17   5    0.83    1.89
  -6  17  -5    0.37    1.79
   6 -17   5   -0.79    1.76
  -7  17  -5    1.23    1.96
   7 -17   5    3.15    1.99
  -8  17  -5    4.72    2.09
   8 -17   5    4.01    2.06
  -9  17  -5    2.91    1.88
   9 -17   5    1.12    2.02
  10 -17   5   -2.09    2.01
 -11  17  -5    1.07    1.90
  11 -17   5    0.76    2.04
   6  16  -5   -2.73    1.58
   6  16  -5    1.54    2.40
   5  16  -5    1.64    2.17
   5  16  -5   -1.73    1.61
   4  16  -5    1.25    2.01
   3  16  -5    2.33    1.81
   2  16  -5   -0.81    1.61
   2  16  -5    4.02    1.82
   1  16  -5    2.01    1.86
   1  16  -5   -0.09    1.48
  -1 -16   5   -2.04    2.05
   0  16  -5    1.33    1.71
   0  16  -5    0.87    1.45
   0 -16   5    3.40    1.82
  -1  16  -5   -0.26    1.63
   1 -16   5    1.29    1.76
  -2  16  -5   -2.28    1.25
  -2  16  -5    0.58    1.59
   2 -16   5   -1.62    1.66
  -3  16  -5   -1.11    1.68
   3 -16   5   -2.58    1.55
  -4  16  -5   -0.18    1.45
  -4  16  -5    1.32    1.70
   4 -16   5   -0.75    1.61
  -5  16  -5    0.38    1.71
   5 -16   5    2.27    1.78
  -6  16  -5    0.65    1.61
   6 -16   5    2.79    1.70
  -7  16  -5    4.64    1.83
   7 -16   5    2.59    1.85
  -8  16  -5    4.04    1.79
   8 -16   5    0.11    1.68
  -9  16  -5    1.11    1.60
   9 -16   5   -1.78    1.74
 -10  16  -5    2.51    1.71
  10 -16   5    0.70    1.78
 -11  16  -5    4.94    2.19
  11 -16   5   -2.26    1.72
  12 -16   5   -2.44    1.85
  13 -16   5   -4.24    2.01
   8  15  -5    2.42    2.47
   7  15  -5    2.60    2.32
   7  15  -5   -1.58    1.66
   6  15  -5    0.09    1.56
   6  15  -5    3.01    2.02
   5  15  -5    1.38    1.97
   5  15  -5   -0.22    1.52
   4  15  -5    1.93    1.79
   4  15  -5   -1.01    1.34
   3  15  -5   -0.46    1.27
   3  15  -5    2.58    1.66
   2  15  -5    3.49    1.72
   2  15  -5   -1.58    1.28
  -2 -15   5    0.87    1.75
   1  15  -5    1.96    1.69
   1  15  -5    0.78    1.29
  -1 -15   5    0.79    1.78
   0  15  -5    2.02    1.59
   0  15  -5    0.86    1.27
  -1  15  -5   -0.91    1.26
  -1  15  -5    1.67    1.60
   1 -15   5    2.45    1.63
  -2  15  -5   -1.24    1.27
   2 -15   5    0.74    1.55
  -3  15  -5    2.71    1.30
  -3  15  -5    2.39    1.52
   3 -15   5    1.85    1.54
  -4  15  -5    5.10    1.74
  -4  15  -5    2.91    1.34
   4 -15   5    2.65    1.62
  -5  15  -5    0.16    1.48
   5 -15   5    3.53    1.65
  -6  15  -5   -0.85    1.46
   6 -15   5   -0.50    1.50
  -7  15  -5    2.20    1.57
   7 -15   5    1.35    1.59
  -8  15  -5    2.09    1.55
   8 -15   5   -1.42    1.53
  -9  15  -5    0.79    1.42
   9 -15   5   -0.13    1.52
 -10  15  -5    2.18    1.59
  10 -15   5   -1.10    1.59
 -11  15  -5    1.50    1.70
  11 -15   5   -1.60    1.62
  12 -15   5   -1.44    1.95
  13 -15   5   -0.38    2.08
  14 -15   5   -0.93    2.07
   9  14  -5   -0.12    2.38
   8  14  -5    0.88    2.21
   8  14  -5   -0.29    1.41
   7  14  -5   -1.19    1.44
   7  14  -5    0.63    2.04
   6  14  -5    1.90    1.89
   6  14  -5   -0.69    1.38
   5  14  -5   -0.50    1.23
   5  14  -5    2.74    1.75
   4  14  -5    0.54    1.68
   4  14  -5   -0.41    1.31
   3  14  -5    3.65    1.75
   3  14  -5    0.00    1.28
  -3 -14   5    2.73    1.67
   2  14  -5    1.92    1.48
   2  14  -5   -1.86    1.20
  -2 -14   5    1.01    1.55
   1  14  -5   -0.93    1.14
   1  14  -5    2.37    1.44
  -1 -14   5    0.52    1.64
   0  14  -5    5.11    1.65
   0  14  -5    3.70    1.20
   0 -14   5    5.84    1.82
  -1  14  -5    2.14    1.43
  -1  14  -5    0.44    1.08
  -2  14  -5    2.90    1.27
  -2  14  -5   -0.03    1.32
   2 -14   5    2.92    1.43
  -3  14  -5    1.63    1.14
  -3  14  -5    1.75    1.47
   3 -14   5    2.17    1.45
  -4  14  -5   -0.08    1.10
  -4  14  -5    0.17    1.34
   4 -14   5    0.73    1.36
  -5  14  -5   -1.29    1.37
   5 -14   5   -0.59    1.33
  -6  14  -5   -0.33    1.32
   6 -14   5   -0.24    1.39
  -7  14  -5    0.33    1.34
   7 -14   5   -0.65    1.47
  -8  14  -5    1.39    1.39
   8 -14   5   -0.99    1.41
  -9  14  -5    3.22    1.43
   9 -14   5   -2.43    1.36
 -10  14  -5    1.70    1.64
  10 -14   5    2.01    1.85
 -11  14  -5   -0.42    1.74
  11 -14   5   -0.58    1.78
  12 -14   5    0.27    1.75
  13 -14   5    1.64    1.97
  10  13  -5    4.73    2.46
   9  13  -5   -2.35    1.28
   9  13  -5    3.15    2.18
   8  13  -5   -2.09    1.32
   8  13  -5    2.87    1.97
   7  13  -5   -0.59    1.18
   7  13  -5    3.64    1.91
   6  13  -5   -2.09    1.13
   6  13  -5    0.92    1.75
   5  13  -5    0.77    1.56
   5  13  -5    0.27    1.11
   4  13  -5    1.74    1.14
   4  13  -5    4.10    1.67
  -4 -13   5    3.28    1.47
   3  13  -5    1.67    1.54
   3  13  -5    1.77    1.18
  -3 -13   5    2.34    1.45
   2  13  -5    2.24    1.36
   2  13  -5    1.13    1.05
  -2 -13   5    2.60    1.50
   1  13  -5    1.67    1.07
   1  13  -5    2.34    1.34
  -1 -13   5    1.83    1.54
   0  13  -5    2.20    1.04
   0  13  -5    1.56    1.26
   0 -13   5    1.16    1.44
  -1  13  -5    0.78    1.09
  -1  13  -5   -0.61    1.27
   1 -13   5    1.02    1.44
  -2  13  -5    5.78    1.23
  -2  13  -5    5.53    1.43
   2 -13   5    7.02    1.61
  -3  13  -5    4.14    1.03
  -3  13  -5    3.52    1.38
   3 -13   5    3.33    1.39
  -4  13  -5   -0.01    1.26
  -4  13  -5   -1.38    0.95
   4 -13   5    1.03    1.21
  -5  13  -5    1.27    1.36
   5 -13   5    0.94    1.30
  -6  13  -5    0.62    1.26
   6 -13   5    0.41    1.34
  -7  13  -5    1.22    1.31
   7 -13   5   -0.69    1.27
  -8  13  -5    0.23    1.43
   8 -13   5   -2.21    1.28
  -9  13  -5    4.92    1.47
   9 -13   5    2.50    1.67
 -10  13  -5   -0.06    1.49
  10 -13   5    1.70    1.63
  11 -13   5    0.75    1.69
  12 -13   5    3.02    1.77
  13 -13   5    0.74    1.93
  14 -13   5    1.35    1.92
  15 -13   5   -0.23    2.06
  11  12  -5    5.33    2.36
  10  12  -5    2.03    2.15
  10  12  -5   -1.22    1.36
   9  12  -5    3.34    1.92
   9  12  -5    0.66    1.21
   8  12  -5   -0.19    1.13
   8  12  -5    3.58    1.71
   7  12  -5    0.28    1.19
   7  12  -5    5.13    1.71
   6  12  -5    2.13    1.49
   6  12  -5   -0.21    1.01
   5  12  -5    2.82    1.53
   5  12  -5    2.46    1.15
  -5 -12   5    4.11    1.44
   4  12  -5    1.14    0.99
   4  12  -5    3.12    1.42
  -4 -12   5    4.37    1.39
   3  12  -5    1.49    1.32
   3  12  -5   -0.30    0.96
  -3 -12   5    0.45    1.26
   2  12  -5    0.66    0.90
   2  12  -5    1.48    1.38
  -2 -12   5   -0.35    1.31
   1  12  -5    3.19    0.99
   1  12  -5    4.09    1.31
  -1 -12   5    4.85    1.44
   0  12  -5    0.16    1.27
   0  12  -5    1.55    0.98
   0 -12   5   -0.10    1.34
  -1  12  -5   -0.91    1.21
  -1  12  -5   -0.05    0.94
   1 -12   5    1.11    1.31
  -2  12  -5    6.56    1.46
  -2  12  -5    7.53    1.11
   2 -12   5    8.77    1.52
  -3  12  -5    0.41    0.85
  -3  12  -5   -1.19    1.25
   3 -12   5   -0.11    1.14
  -4  12  -5   -0.21    1.15
  -4  12  -5    0.16    0.88
   4 -12   5    1.40    1.28
  -5  12  -5    6.59    1.46
   5 -12   5    5.11    1.44
  -6  12  -5    1.68    1.37
   6 -12   5    0.12    1.19
  -7  12  -5    0.96    1.11
   7 -12   5   -0.69    1.07
  -8  12  -5    0.42    1.12
   8 -12   5   -0.56    1.20
  -9  12  -5    0.03    1.39
   9 -12   5    0.54    1.42
 -10  12  -5    0.50    1.29
  10 -12   5    0.94    1.45
  11 -12   5    1.59    1.63
  12 -12   5    3.09    1.77
  13 -12   5    0.59    1.65
  14 -12   5    0.95    1.75
  15 -12   5    2.22    2.01
  16 -12   5    1.90    2.09
  12  11  -5   -1.15    1.33
  11  11  -5   -1.39    1.20
  11  11  -5   -0.27    2.04
  10  11  -5    1.42    1.87
  10  11  -5   -0.48    1.20
   9  11  -5   -0.77    1.08
   9  11  -5    0.03    1.69
   8  11  -5    1.03    1.07
   8  11  -5    3.98    1.67
   7  11  -5    1.69    1.43
   7  11  -5   -1.32    0.95
   6  11  -5    5.05    1.44
   6  11  -5    2.49    0.97
  -6 -11   5    4.05    1.38
   5  11  -5    2.58    1.34
   5  11  -5    0.70    0.89
  -5 -11   5    2.80    1.29
   4  11  -5    0.47    0.97
   4  11  -5    0.35    1.28
  -4 -11   5   -2.03    1.14
   3  11  -5    0.43    0.92
   3  11  -5    0.49    1.16
  -3 -11   5    0.18    1.09
   2  11  -5    2.61    1.37
   2  11  -5    1.88    0.90
  -2 -11   5    2.09    1.23
   1  11  -5    3.08    1.30
   1  11  -5    3.48    0.99
  -1 -11   5    4.15    1.37
   0  11  -5   -0.64    1.03
   0  11  -5    0.58    0.84
   0 -11   5   -0.08    1.19
  -1  11  -5    2.17    0.89
  -1  11  -5    0.52    1.14
   1 -11   5    3.72    1.23
  -2  11  -5    0.76    0.79
  -2  11  -5   -1.55    1.05
   2 -11   5   -0.97    1.10
  -3  11  -5   -0.50    1.08
  -3  11  -5    1.06    0.78
   3 -11   5    0.19    1.11
  -4  11  -5    2.23    1.28
   4 -11   5    3.11    1.24
  -5  11  -5    4.34    1.34
   5 -11   5    6.70    1.38
   5 -11   5    3.14    0.93
  -6  11  -5    1.25    1.19
   6 -11   5   -0.90    1.04
  -7  11  -5    0.34    1.03
   7 -11   5    0.71    1.27
  -8  11  -5    0.98    1.13
   8 -11   5    0.05    1.22
  -9  11  -5   -1.49    1.17
   9 -11   5    0.53    1.29
  10 -11   5    9.10    1.83
  11 -11   5    2.52    1.56
  12 -11   5    1.10    1.55
  13 -11   5    2.66    1.74
  14 -11   5    2.60    1.81
  15 -11   5   -0.22    1.86
  16 -11   5    1.11    2.04
  13  10  -5   -0.92    1.48
  12  10  -5   -0.99    1.22
  12  10  -5    4.92    2.12
  11  10  -5    2.47    1.83
  11  10  -5   -0.05    1.06
  10  10  -5    2.25    1.65
  10  10  -5   -0.49    1.22
   9  10  -5    1.49    1.59
   9  10  -5    0.19    1.05
   8  10  -5   -0.14    0.98
  -8 -10   5   -0.07    1.31
   7  10  -5    2.52    0.99
  -7 -10   5    4.73    1.36
   6  10  -5    0.15    0.90
   6  10  -5   -0.50    1.31
  -6 -10   5    0.93    1.23
   5  10  -5    0.06    1.31
   5  10  -5    1.33    0.92
  -5 -10   5    1.66    1.10
   4  10  -5    2.23    1.33
   4  10  -5    0.50    0.85
  -4 -10   5    0.48    1.05
   3  10  -5    4.33    1.02
   3  10  -5    6.55    1.38
  -3 -10   5    6.50    1.19
   2  10  -5    3.87    0.91
   2  10  -5    5.87    1.25
  -2 -10   5    4.22    1.18
   1  10  -5    5.07    0.91
   1  10  -5    5.19    1.14
  -1 -10   5    6.87    1.28
   0  10  -5    0.21    0.82
   0  10  -5   -0.20    0.70
   0 -10   5    1.40    1.06
  -1  10  -5    1.58    0.75
  -1  10  -5    1.41    0.81
   1 -10   5   -0.86    0.93
  -2  10  -5   -0.39    0.66
   2 -10   5   -0.40    0.97
  -3  10  -5    3.33    0.76
  -3  10  -5    3.25    1.22
   3 -10   5    4.86    1.18
  -4  10  -5    5.07    1.21
   4 -10   5    4.80    0.88
   4 -10   5    6.50    1.13
  -5  10  -5    0.71    1.09
   5 -10   5   -0.07    0.72
   5 -10   5    0.65    0.99
  -6  10  -5    8.40    1.36
   6 -10   5    8.22    1.53
  -7  10  -5    1.25    1.22
   7 -10   5    1.02    1.22
  -8  10  -5    0.15    1.11
   8 -10   5    0.92    1.29
   9 -10   5    1.74    1.39
  10 -10   5    7.36    1.70
  11 -10   5    1.19    1.36
  12 -10   5    0.89    1.36
  13 -10   5    2.06    1.57
  14 -10   5    2.03    1.67
  15 -10   5    1.84    1.78
  16 -10   5    0.86    1.99
  14   9  -5   -1.08    1.44
  13   9  -5    0.29    1.27
  12   9  -5    1.24    1.90
  12   9  -5   -0.90    1.18
  11   9  -5   -0.96    1.27
  11   9  -5    1.55    1.72
 -11  -9   5    2.62    1.68
  10   9  -5    0.57    1.19
 -10  -9   5    2.59    1.50
   9   9  -5    4.85    1.69
   9   9  -5    1.59    1.23
  -9  -9   5    3.25    1.39
   8   9  -5    1.07    1.05
   8   9  -5    0.56    1.41
  -8  -9   5    1.43    1.19
   7   9  -5    0.98    0.96
   7   9  -5    0.62    1.38
  -7  -9   5    0.32    1.12
   6   9  -5    0.70    0.81
   6   9  -5    0.23    1.25
  -6  -9   5    1.33    1.17
   5   9  -5    0.45    0.81
   5   9  -5   -1.38    1.11
  -5  -9   5    0.42    0.99
   4   9  -5    4.64    1.21
   4   9  -5    2.74    0.94
  -4  -9   5    5.55    1.11
   3   9  -5    5.34    0.87
   3   9  -5    8.33    1.25
  -3  -9   5    6.24    1.08
   2   9  -5    2.51    0.71
   2   9  -5    3.42    1.01
  -2  -9   5    4.36    1.07
   1   9  -5   17.92    1.73
   1   9  -5   15.35    1.46
  -1  -9   5   14.35    1.61
   0   9  -5    4.11    0.86
   0   9  -5    3.01    0.71
   0  -9   5    3.19    1.00
  -1   9  -5    0.48    0.62
  -1   9  -5    1.86    0.68
   1  -9   5    0.40    0.84
  -2   9  -5    4.26    0.83
   2  -9   5    3.47    0.91
  -3   9  -5   15.87    1.31
  -3   9  -5   14.98    1.50
   3  -9   5   13.56    1.65
   3  -9   5   14.20    1.47
  -4   9  -5    1.40    0.71
   4  -9   5    1.41    0.71
   4  -9   5    1.17    0.76
  -5   9  -5    7.38    1.29
   5  -9   5    5.53    0.78
  -6   9  -5    3.50    1.12
   6  -9   5    4.80    1.32
  -7   9  -5    1.60    1.09
   7  -9   5    1.20    1.21
   8  -9   5    3.41    1.41
   9  -9   5   -0.15    1.12
  10  -9   5    2.24    1.43
  11  -9   5   -0.61    1.23
  12  -9   5   -0.03    1.31
  13  -9   5    1.69    1.53
  14  -9   5   -0.53    1.51
  15  -9   5   -0.60    1.64
  16  -9   5    1.36    1.89
  17  -9   5    0.65    2.16
  14   8  -5   -0.34    1.36
  13   8  -5    0.57    1.33
  12   8  -5    1.87    2.02
  12   8  -5   -1.93    1.17
 -12  -8   5    0.94    1.79
  11   8  -5    2.88    1.71
  11   8  -5   -1.13    1.14
 -11  -8   5    1.21    1.48
  10   8  -5    2.64    1.57
  10   8  -5    1.61    1.18
 -10  -8   5    4.05    1.45
   9   8  -5    2.18    1.46
   9   8  -5    0.41    0.97
  -9  -8   5   -1.14    1.24
   8   8  -5    1.53    1.39
   8   8  -5    0.22    0.93
  -8  -8   5    1.46    1.17
   7   8  -5    2.20    1.02
   7   8  -5    2.59    1.34
  -7  -8   5    4.71    1.21
   6   8  -5    0.38    0.81
   6   8  -5   -1.44    1.06
  -6  -8   5    0.54    1.04
   5   8  -5   15.07    1.89
   5   8  -5   13.87    1.75
  -5  -8   5   14.00    1.48
   4   8  -5   11.21    1.43
   4   8  -5    9.23    1.49
  -4  -8   5    8.54    1.39
   3   8  -5    0.86    0.87
   3   8  -5    0.59    0.60
  -3  -8   5    1.65    0.84
   2   8  -5    6.36    0.99
   2   8  -5    7.18    1.22
  -2  -8   5    5.99    1.02
   1   8  -5   15.99    1.46
   1   8  -5   13.48    1.28
  -1  -8   5   14.54    1.38
   0   8  -5    3.71    0.78
   0   8  -5    1.50    0.58
   0  -8   5    2.17    0.87
  -1   8  -5    1.54    0.57
   1  -8   5    2.42    0.78
  -2   8  -5   12.75    1.27
  -2   8  -5   12.58    1.08
   2  -8   5   10.35    1.14
   2  -8   5   13.25    1.47
  -3   8  -5    0.24    0.61
   3  -8   5    0.85    0.59
   3  -8   5    0.60    0.61
  -4   8  -5   -0.24    0.56
   4  -8   5    0.84    0.60
   4  -8   5    0.48    0.54
  -5   8  -5    7.73    1.20
   5  -8   5    4.54    0.67
   6  -8   5    1.66    0.63
   7  -8   5   -0.19    0.68
   7  -8   5   -0.15    1.08
   8  -8   5    3.91    1.24
   9  -8   5    0.37    1.18
  10  -8   5   -0.84    1.28
  11  -8   5   -1.46    1.14
  12  -8   5   -0.14    1.41
  13  -8   5   -1.06    1.38
  14  -8   5    0.59    1.64
  15  -8   5    1.88    1.82
  16  -8   5    0.82    1.81
  14   7  -5   -0.54    1.28
 -14  -7   5   -3.42    1.83
  13   7  -5   -0.98    1.28
  13   7  -5    2.07    2.00
 -13  -7   5   -1.31    1.61
  12   7  -5    0.84    1.23
  12   7  -5    1.17    1.78
  11   7  -5    1.32    1.17
  11   7  -5    3.67    1.63
 -11  -7   5    3.06    1.52
  10   7  -5    1.08    0.99
  10   7  -5    2.24    1.46
 -10  -7   5    0.92    1.28
   9   7  -5    0.65    0.96
   9   7  -5    2.29    1.28
  -9  -7   5   -0.03    1.21
   8   7  -5    1.62    0.97
   8   7  -5    2.44    1.36
  -8  -7   5    2.07    1.18
   7   7  -5    1.77    1.16
   7   7  -5    2.36    0.93
  -7  -7   5    3.83    1.09
   6   7  -5    5.15    1.15
  -6  -7   5    5.07    1.05
   5   7  -5    9.44    1.46
  -5  -7   5   14.66    1.37
   4   7  -5   13.41    1.33
   4   7  -5   12.01    1.27
  -4  -7   5   11.28    1.27
   3   7  -5   -0.51    0.69
   3   7  -5   -0.12    0.44
  -3  -7   5    0.64    0.71
   2   7  -5    1.62    0.47
   2   7  -5    2.16    0.69
  -2  -7   5    1.48    0.75
   1   7  -5    4.04    0.58
  -1  -7   5    6.75    1.12
   0   7  -5    4.81    0.77
   0   7  -5    3.19    0.59
   0  -7   5    6.02    0.87
  -1   7  -5    0.84    0.49
  -1   7  -5    0.24    0.44
   1  -7   5    1.16    0.64
   1  -7   5    0.51    0.55
  -2   7  -5    9.51    0.92
  -2   7  -5    8.23    1.08
   2  -7   5    7.16    1.18
   2  -7   5    7.46    0.93
  -3   7  -5   -0.29    0.53
   3  -7   5    0.30    0.53
   3  -7   5    0.08    0.46
  -4   7  -5   12.21    1.17
   4  -7   5   12.51    1.19
   4  -7   5   12.39    1.13
  -5   7  -5    4.72    0.90
   5  -7   5    3.09    0.62
   5  -7   5    2.96    0.82
   6  -7   5    0.29    0.81
   6  -7   5    0.38    0.63
   7  -7   5    1.81    1.09
   8  -7   5   -0.14    1.03
   9  -7   5    0.65    1.18
  10  -7   5    1.51    1.37
  11  -7   5    4.61    1.59
  12  -7   5    0.32    1.42
  13  -7   5    2.53    1.59
  14  -7   5    3.40    1.70
  15  -7   5    1.96    1.74
  16  -7   5    1.68    1.97
  16  -7   5    0.99    1.56
  17  -7   5    1.13    2.15
  16   6  -5   -1.20    1.65
  15   6  -5   -0.13    1.48
 -15  -6   5   -1.50    1.85
  14   6  -5   -1.42    1.21
  13   6  -5    4.19    1.98
  13   6  -5    1.05    1.16
 -13  -6   5    3.05    1.64
  12   6  -5    5.13    1.81
  12   6  -5    2.64    1.20
  11   6  -5    0.36    1.48
  11   6  -5    0.26    0.99
 -11  -6   5    0.35    1.29
  10   6  -5    0.01    1.26
  10   6  -5    0.04    0.90
 -10  -6   5    0.49    1.22
   9   6  -5    0.58    0.91
   9   6  -5   -1.93    1.25
  -9  -6   5    0.83    1.18
   8   6  -5    0.75    1.11
   8   6  -5    1.00    0.83
  -8  -6   5    2.07    1.09
   7   6  -5    0.64    0.78
  -7  -6   5   -0.60    0.89
   6   6  -5    5.47    1.01
  -6  -6   5    4.07    1.10
  -6  -6   5    5.12    1.01
   5   6  -5    7.23    1.16
  -5  -6   5    6.96    0.95
  -5  -6   5    6.20    1.07
   4   6  -5    1.95    0.71
   4   6  -5    2.00    0.55
  -4  -6   5    0.80    0.84
  -4  -6   5    2.53    0.69
   3   6  -5   -0.11    0.35
   3   6  -5   -0.18    0.56
   3   6  -5    0.44    0.77
  -3  -6   5   -0.35    0.57
  -3  -6   5    2.00    0.81
   2   6  -5    5.39    0.92
   2   6  -5    4.41    0.87
   2   6  -5    4.64    0.73
  -2  -6   5    5.24    0.79
   1   6  -5    5.49    0.89
   1   6  -5    6.42    0.86
  -1  -6   5    5.92    0.84
  -1  -6   5    5.84    0.84
   0   6  -5   12.26    0.94
   0   6  -5   11.40    1.06
   0  -6   5   13.77    1.16
   0  -6   5   12.04    1.05
  -1   6  -5   17.41    1.16
  -1   6  -5   18.23    1.12
   1  -6   5   17.08    1.15
   1  -6   5   16.70    1.17
  -2   6  -5    0.32    0.44
  -2   6  -5    1.47    0.58
   2  -6   5    0.69    0.57
   2  -6   5    0.84    0.43
  -3   6  -5    7.32    0.95
   3  -6   5    6.96    1.01
   3  -6   5    7.29    0.97
  -4   6  -5    2.82    0.80
   4  -6   5    2.71    0.67
   4  -6   5    2.14    0.51
   5  -6   5    2.50    0.61
   5  -6   5    3.58    0.87
   6  -6   5    7.78    1.10
   7  -6   5    5.21    0.98
   8  -6   5    0.03    1.02
   9  -6   5    5.13    1.45
  10  -6   5   11.12    1.77
  11  -6   5    3.28    1.53
  12  -6   5    2.17    1.45
  13  -6   5    3.67    1.65
  14  -6   5    0.51    1.61
  15  -6   5   -0.08    1.66
  16  -6   5    1.79    1.97
  17  -6   5    1.56    1.79
  17  -6   5    2.04    2.12
  16   5  -5   -2.54    1.41
 -16  -5   5    0.41    1.93
  15   5  -5   -0.51    1.30
 -15  -5   5   -2.77    1.77
  14   5  -5   -0.44    1.24
 -14  -5   5    0.08    1.66
  13   5  -5   -0.56    1.70
  13   5  -5   -0.06    1.15
 -13  -5   5   -1.10    1.49
  12   5  -5    0.50    1.09
 -12  -5   5   -0.13    1.33
  11   5  -5    3.32    1.12
 -11  -5   5    2.34    1.27
  10   5  -5    0.37    0.97
  10   5  -5    2.85    1.24
 -10  -5   5    0.18    1.18
   9   5  -5    0.22    0.91
   9   5  -5    0.63    1.16
  -9  -5   5   -0.53    1.07
   8   5  -5    0.38    0.80
   8   5  -5    0.78    0.97
  -8  -5   5    0.26    0.92
   7   5  -5    3.64    0.88
  -7  -5   5    2.91    0.91
   6   5  -5    7.24    1.12
   6   5  -5    5.13    0.87
  -6  -5   5    5.98    0.93
  -6  -5   5    5.18    0.96
   5   5  -5    0.56    0.64
   5   5  -5    0.62    0.55
  -5  -5   5   -0.22    0.72
  -5  -5   5   -0.23    0.70
   4   5  -5   27.49    1.62
   4   5  -5   27.85    1.33
   4   5  -5   28.27    1.52
  -4  -5   5   29.05    1.41
  -4  -5   5   25.93    1.43
   3   5  -5   56.13    2.30
   3   5  -5   54.93    2.05
   3   5  -5   56.42    2.14
  -3  -5   5   56.50    2.06
  -3  -5   5   56.71    2.09
   2   5  -5    4.69    0.64
   2   5  -5    5.83    0.89
   2   5  -5    4.18    0.71
  -2  -5   5    6.59    0.88
  -2  -5   5    4.84    0.68
   1   5  -5    6.34    0.73
   1   5  -5    6.77    0.75
   1   5  -5    5.82    0.82
  -1  -5   5    5.22    0.83
  -1  -5   5    5.75    0.76
  -1  -5   5    6.13    0.84
   0   5  -5   56.28    2.03
   0   5  -5   55.79    2.06
   0   5  -5   59.85    2.12
   0  -5   5   55.40    2.06
   0  -5   5   58.76    2.13
   0  -5   5   58.07    2.07
  -1   5  -5    8.58    0.82
  -1   5  -5    8.59    0.87
   1  -5   5    9.05    0.95
   1  -5   5    8.19    0.87
   1  -5   5   10.26    0.79
  -2   5  -5   10.16    0.90
   2  -5   5    9.22    1.01
   2  -5   5   10.24    0.91
  -3   5  -5    0.87    0.58
   3  -5   5    0.61    0.39
   3  -5   5    1.03    0.59
   4  -5   5    1.34    0.60
   5  -5   5    1.87    0.74
   6  -5   5   20.36    1.44
   7  -5   5   18.09    1.39
   9  -5   5   13.58    1.71
  10  -5   5    0.37    1.23
  11  -5   5    2.24    1.41
  12  -5   5    2.22    1.47
  13  -5   5    1.19    1.42
  14  -5   5   -1.10    1.49
  15  -5   5    0.57    1.68
  16  -5   5    1.91    1.89
  17  -5   5    3.16    2.22
  17  -5   5    2.31    1.79
  17   4  -5   -2.51    1.53
 -17  -4   5    0.14    2.20
  16   4  -5   -0.87    1.53
 -16  -4   5    0.44    1.94
  15   4  -5   -0.41    1.25
  14   4  -5    1.76    1.30
 -14  -4   5   -0.04    1.54
  13   4  -5   -0.65    1.01
 -13  -4   5   -1.84    1.34
  12   4  -5   -0.49    0.95
 -12  -4   5    0.57    1.25
  11   4  -5    0.13    0.88
 -11  -4   5    1.35    1.20
  10   4  -5    1.94    0.94
 -10  -4   5    2.76    1.17
   9   4  -5    1.01    0.86
  -9  -4   5    0.71    0.98
  -8  -4   5    9.74    1.41
   7   4  -5    1.26    0.59
  -7  -4   5    1.28    0.79
   6   4  -5   -0.35    0.48
  -6  -4   5   -0.99    0.64
   5   4  -5   12.46    1.25
  -5  -4   5    9.92    1.09
   4   4  -5   71.71    2.69
   4   4  -5   70.92    2.44
   4   4  -5   68.70    2.29
  -4  -4   5   64.16    2.30
  -4  -4   5   72.71    2.42
   3   4  -5    6.57    0.74
   3   4  -5    9.43    0.86
   3   4  -5    7.91    0.99
  -3  -4   5   10.53    0.83
  -3  -4   5    8.63    0.81
   2   4  -5    7.64    0.71
   2   4  -5    8.23    0.93
   2   4  -5    7.73    0.70
  -2  -4   5    8.13    0.81
  -2  -4   5    7.53    0.79
   1   4  -5   27.85    1.19
   1   4  -5   31.59    1.41
   1   4  -5   29.27    1.23
  -1  -4   5   29.57    1.24
  -1  -4   5   27.43    1.31
  -1  -4   5   29.56    1.24
   0   4  -5    2.11    0.52
   0   4  -5    2.73    0.51
   0   4  -5    2.47    0.41
   0  -4   5    3.49    0.65
   0  -4   5    2.28    0.33
  -1   4  -5    1.26    0.43
  -1   4  -5    0.79    0.44
   1  -4   5    0.34    0.24
   1  -4   5    0.61    0.42
   1  -4   5    1.26    0.57
   2  -4   5   15.41    0.92
   2  -4   5   16.22    1.00
   2  -4   5   15.53    1.14
   3  -4   5    0.26    0.56
   4  -4   5    1.74    0.62
   5  -4   5   14.07    1.20
   6  -4   5    0.88    0.57
   7  -4   5    4.19    0.78
   8  -4   5    3.22    0.83
   9  -4   5    5.69    1.35
  10  -4   5    1.30    1.24
  11  -4   5    4.29    1.44
  12  -4   5    7.74    1.60
  13  -4   5    0.56    1.40
  14  -4   5    0.22    1.56
  15  -4   5    1.66    1.77
  16  -4   5    1.01    1.94
  17  -4   5    1.60    2.17
  17  -4   5   -0.70    1.79
  17   3  -5   -1.77    1.40
 -17  -3   5    0.43    2.03
  16   3  -5   -0.99    1.21
 -16  -3   5   -3.24    1.85
  15   3  -5    0.19    1.13
 -15  -3   5   -3.63    1.64
  14   3  -5    0.53    1.05
 -14  -3   5    0.21    1.49
  13   3  -5    2.23    1.13
 -13  -3   5    0.66    1.33
  12   3  -5    0.74    1.01
 -12  -3   5    2.00    1.27
  11   3  -5   14.81    2.28
  10   3  -5    2.17    0.86
 -10  -3   5    3.66    1.12
   9   3  -5    5.40    1.03
  -9  -3   5    9.30    1.49
   8   3  -5   33.90    1.90
  -8  -3   5   34.51    1.82
   7   3  -5   16.15    1.33
  -7  -3   5   16.73    1.31
   6   3  -5    8.25    1.07
  -6  -3   5    6.35    1.03
   5   3  -5   26.48    1.57
  -5  -3   5   25.77    1.35
   4   3  -5    0.48    0.36
   4   3  -5    0.98    0.45
  -4  -3   5    0.68    0.52
   3   3  -5    0.33    0.35
   3   3  -5    0.31    0.37
  -3  -3   5   -0.01    0.40
   2   3  -5   21.24    0.99
   2   3  -5   22.69    1.23
   2   3  -5   19.63    0.91
  -2  -3   5   18.71    0.90
  -2  -3   5   20.00    1.05
  -2  -3   5   21.79    1.09
   1   3  -5   29.94    1.28
   1   3  -5   31.73    1.20
   1   3  -5   29.10    1.38
  -1  -3   5   29.58    1.28
  -1  -3   5   31.97    1.21
  -1  -3   5   28.18    1.38
   0   3  -5   70.60    2.41
   0   3  -5   70.64    2.44
   0  -3   5   71.97    2.38
   0  -3   5   74.26    2.37
   0  -3   5   70.84    2.48
  -1   3  -5    1.20    0.51
   1  -3   5    0.73    0.40
   1  -3   5    0.41    0.28
   1  -3   5    1.07    0.58
  -2   3  -5    8.95    0.86
   2  -3   5    8.17    0.95
   2  -3   5    8.99    0.78
   3  -3   5    0.26    0.53
   4  -3   5   -0.11    0.50
   5  -3   5   25.10    1.35
   6  -3   5    0.43    0.52
   7  -3   5    4.27    0.75
   8  -3   5    4.17    0.91
  10  -3   5    3.58    1.32
  11  -3   5    3.81    1.40
  12  -3   5    3.96    1.37
  13  -3   5    1.69    1.38
  14  -3   5   -0.20    1.50
  15  -3   5   -0.55    1.71
  16  -3   5    2.18    2.00
  17  -3   5    2.86    2.41
  17  -3   5    7.31    2.67
  17  -3   5    1.61    1.77
  17   2  -5   -2.72    1.36
 -17  -2   5    0.69    1.94
  16   2  -5   -0.92    1.20
 -16  -2   5   -2.49    1.72
  15   2  -5   -0.05    1.03
  14   2  -5    3.14    1.12
 -14  -2   5    3.62    1.57
  13   2  -5   -0.79    0.86
 -13  -2   5   -0.78    1.29
  12   2  -5    2.14    0.92
 -12  -2   5    4.27    1.34
  11   2  -5    4.55    1.02
  10   2  -5   14.45    1.86
 -10  -2   5   13.73    1.61
   9   2  -5   20.01    1.61
  -9  -2   5   23.54    1.66
   8   2  -5    7.78    1.05
  -8  -2   5    6.99    1.08
   7   2  -5    2.16    0.55
  -7  -2   5    3.50    0.74
   6   2  -5    0.92    0.43
  -6  -2   5    1.37    0.57
   5   2  -5    0.60    0.38
  -5  -2   5    0.62    0.50
   4   2  -5    3.07    0.46
  -4  -2   5    3.32    0.60
   3   2  -5    3.62    0.54
   3   2  -5    2.46    0.43
  -3  -2   5    2.43    0.43
  -3  -2   5    3.72    0.54
   2   2  -5   99.38    3.05
   2   2  -5  100.38    3.21
  -2  -2   5   96.25    2.94
  -2  -2   5   96.93    3.07
  -2  -2   5   95.41    3.14
   1   2  -5    0.54    0.37
   1   2  -5    1.21    0.49
  -1  -2   5    0.95    0.57
  -1  -2   5    0.93    0.31
  -1  -2   5    0.82    0.36
   0   2  -5    2.18    0.53
   0  -2   5    2.11    0.62
   0  -2   5    1.44    0.36
  -1   2  -5   24.70    1.23
   1  -2   5   25.38    1.31
  -2   2  -5   26.19    1.18
   2  -2   5   25.63    1.31
  -3   2  -5    0.91    0.36
   3  -2   5    0.82    0.50
   4  -2   5    8.26    0.79
   5  -2   5   13.42    1.05
   6  -2   5    0.16    0.50
   7  -2   5    9.09    1.11
   8  -2   5    4.63    1.02
   9  -2   5    2.37    1.04
  10  -2   5    4.40    1.37
  11  -2   5    3.71    1.38
  12  -2   5    4.72    1.45
  13  -2   5    0.19    1.42
  14  -2   5    0.09    1.60
  15  -2   5   -0.30    1.72
  16  -2   5    2.45    2.18
  16  -2   5    1.43    2.01
  17  -2   5   -0.47    2.48
  17  -2   5    0.62    1.83
  17  -2   5    2.06    2.41
  18   1  -5   -0.68    1.61
 -18  -1   5   -0.11    2.16
  17   1  -5    0.33    1.48
 -17  -1   5    3.01    1.98
  16   1  -5   -0.28    1.33
 -16  -1   5    0.03    1.75
  15   1  -5    0.33    1.18
 -15  -1   5   -2.21    1.46
  14   1  -5    1.04    0.96
 -14  -1   5    1.04    1.40
  13   1  -5   -0.08    0.83
 -13  -1   5   -0.66    1.23
  12   1  -5    2.01    0.97
 -12  -1   5    2.62    1.29
  11   1  -5    1.82    0.92
 -11  -1   5    1.31    1.08
  10   1  -5   21.89    1.81
 -10  -1   5   21.34    1.67
   9   1  -5   18.15    1.53
  -9  -1   5   17.87    1.44
   8   1  -5    0.12    0.46
  -8  -1   5   -0.15    0.58
   7   1  -5   14.58    1.19
  -7  -1   5   14.62    1.06
   6   1  -5    9.35    0.94
  -6  -1   5    8.71    0.88
   5   1  -5   24.73    1.32
  -5  -1   5   25.34    1.21
   4   1  -5    3.57    0.51
  -4  -1   5    4.76    0.78
  -4  -1   5    4.79    0.65
   3   1  -5    2.90    0.48
   3   1  -5    3.83    0.53
  -3  -1   5    4.07    0.64
   2   1  -5    1.65    0.57
   2   1  -5    0.80    0.39
  -2  -1   5    0.41    0.52
  -2  -1   5    0.91    0.34
   1   1  -5   52.39    1.85
  -1  -1   5   50.49    1.86
  -1  -1   5   50.12    1.87
   0   1  -5   66.86    2.24
   0  -1   5   67.57    2.31
  -1   1  -5   27.71    1.20
   1  -1   5   26.09    1.30
  -2   1  -5    3.56    0.58
   2  -1   5    2.51    0.55
  -3   1  -5   34.90    1.36
   3  -1   5   32.71    1.42
   4  -1   5    7.13    0.82
   4  -1   5    7.55    0.76
   5  -1   5    6.18    0.79
   6  -1   5   20.97    1.35
   7  -1   5    1.60    0.80
   8  -1   5    3.21    0.97
   9  -1   5    6.07    1.22
  11  -1   5    0.16    1.11
  12  -1   5   -0.46    1.28
  13  -1   5    3.85    1.54
  13  -1   5    5.54    1.78
  14  -1   5    1.67    1.65
  14  -1   5    2.34    1.85
  15  -1   5    2.49    1.89
  15  -1   5    0.14    1.94
  16  -1   5    2.91    2.13
  16  -1   5    3.09    2.43
  18   0  -5   -1.60    1.49
 -18   0   5    1.84    2.08
  17   0  -5    1.78    1.46
 -17   0   5    3.57    1.85
  16   0  -5   -0.11    1.23
 -16   0   5   -3.20    1.49
  15   0  -5   -0.13    1.06
 -15   0   5   -1.19    1.33
  14   0  -5    5.94    1.47
  14   0  -5    3.02    1.05
 -14   0   5    4.48    1.49
  13   0  -5    0.31    1.11
  13   0  -5   -0.29    0.84
 -13   0   5   -1.19    1.17
  12   0  -5   -0.52    0.78
 -12   0   5    0.66    1.11
 -11   0   5   -0.02    0.99
  10   0  -5   -0.15    0.64
 -10   0   5    0.39    0.79
   9   0  -5    2.82    0.67
  -9   0   5    4.67    0.88
   8   0  -5    4.86    0.70
  -8   0   5    6.04    0.92
   7   0  -5    1.69    0.43
  -7   0   5    2.52    0.57
   6   0  -5    0.24    0.30
  -6   0   5   -0.06    0.45
   5   0  -5    6.13    0.76
  -5   0   5    6.95    0.85
  -5   0   5    6.55    0.80
   4   0  -5   43.54    1.68
   4   0  -5   41.10    1.59
  -4   0   5   43.02    1.68
  -4   0   5   42.25    1.59
   3   0  -5   36.49    1.45
   3   0  -5   37.47    1.52
  -3   0   5   36.43    1.51
  -3   0   5   36.85    1.41
   2   0  -5    4.57    0.61
  -2   0   5    3.68    0.64
  -2   0   5    3.15    0.42
  -2   0   5    4.48    0.56
   1   0  -5    5.08    0.76
  -1   0   5    3.63    0.62
  -1   0   5    4.20    0.58
   0   0  -5   68.26    2.18
   0   0   5   64.13    2.20
  -1   0  -5    1.59    0.44
   1   0   5    1.37    0.51
  -2   0  -5    2.91    0.48
   2   0   5    2.76    0.56
  -3   0  -5   47.94    1.76
   3   0   5   48.49    1.77
   4   0   5    8.44    0.87
   4   0   5    6.89    0.85
   5   0   5    1.73    0.66
   5   0   5    2.28    0.64
   6   0   5   16.88    1.26
   7   0   5    0.42    0.77
   8   0   5    3.00    1.02
   9   0   5    6.80    1.24
  10   0   5   -0.46    1.09
  11   0   5    1.35    1.22
  11   0   5    2.53    1.53
  12   0   5    2.67    1.56
  12   0   5    2.92    1.37
  13   0   5    0.57    1.57
  13   0   5    0.57    1.47
  14   0   5    4.91    1.86
  14   0   5    4.32    1.94
  15   0   5    2.00    2.01
  15   0   5    3.66    1.97
  16   0   5    0.28    2.26
  16   0   5   -0.86    2.23
  18  -1  -5   -1.52    1.42
 -18   1   5    3.11    2.15
  17  -1  -5    2.14    1.42
 -17   1   5    3.53    1.79
  16  -1  -5   -1.42    1.79
  16  -1  -5   -0.87    1.17
 -16   1   5   -3.31    1.50
  15  -1  -5    0.02    1.08
  15  -1  -5    0.04    1.63
 -15   1   5   -1.73    1.38
  14  -1  -5    4.04    1.07
 -14   1   5    5.51    1.53
  13  -1  -5    1.49    0.88
 -13   1   5    2.40    1.18
 -12   1   5    8.54    1.42
  11  -1  -5   15.88    1.71
  11  -1  -5   18.93    2.00
 -11   1   5   17.09    1.77
  10  -1  -5    4.47    0.80
 -10   1   5    7.18    1.12
   9  -1  -5    1.87    0.64
   8  -1  -5    0.96    0.52
  -8   1   5    1.07    0.54
   7  -1  -5   14.01    1.16
  -7   1   5   13.22    1.04
   6  -1  -5    0.84    0.36
  -6   1   5    0.83    0.48
  -6   1   5    1.77    0.55
   5  -1  -5    5.69    0.76
  -5   1   5    3.35    0.45
  -5   1   5    4.64    0.66
   4  -1  -5    4.39    0.72
   4  -1  -5    3.42    0.47
   4  -1  -5    1.79    0.34
  -4   1   5    3.38    0.57
  -4   1   5    2.09    0.35
  -4   1   5    3.20    0.59
   3  -1  -5    7.54    0.75
   3  -1  -5    7.51    0.60
  -3   1   5    6.20    0.76
  -3   1   5    5.43    0.64
  -3   1   5    6.93    0.69
   2  -1  -5    0.32    0.44
   2  -1  -5    0.91    0.37
  -2   1   5    0.34    0.30
  -2   1   5    0.34    0.45
  -2   1   5    0.76    0.42
   1  -1  -5   63.27    2.13
   1  -1  -5   64.91    2.07
  -1   1   5   61.82    2.08
  -1   1   5   62.68    2.14
   0  -1  -5   61.62    1.98
   0   1   5   59.51    2.00
   0   1   5   61.10    2.16
  -1  -1  -5  171.47    4.92
   1   1   5  166.86    5.22
   1   1   5  168.39    4.92
  -2  -1  -5   29.30    1.22
   2   1   5   29.43    1.23
   2   1   5   28.08    1.46
  -3  -1  -5    1.26    0.53
   3   1   5    0.39    0.68
   3   1   5    0.13    0.46
   4   1   5    5.44    0.85
   4   1   5    5.73    0.84
   4   1   5    6.17    0.81
   5   1   5    7.26    0.95
   5   1   5    7.00    0.95
   5   1   5    6.66    0.97
   6   1   5    4.73    0.78
   6   1   5    4.65    0.79
   7   1   5    2.61    0.86
   7   1   5    2.32    0.82
   8   1   5    2.03    0.97
   9   1   5    5.59    1.23
   9   1   5    4.04    1.37
  10   1   5    1.12    1.38
  10   1   5    0.15    1.19
  11   1   5    2.38    1.47
  11   1   5    4.02    1.45
  12   1   5    6.11    1.66
  12   1   5    4.25    1.49
  13   1   5    1.07    1.56
  13   1   5    0.25    1.74
  14   1   5    3.45    1.84
  14   1   5    0.86    1.74
  15   1   5   -0.85    2.11
  15   1   5   -0.73    1.92
  16   1   5   -4.03    2.22
  16   1   5    1.90    2.49
  18  -2  -5    0.17    1.42
 -18   2   5    3.05    2.16
  17  -2  -5   -1.20    1.27
 -17   2   5    2.05    1.71
  16  -2  -5   -1.14    1.11
 -16   2   5   -2.78    1.42
  15  -2  -5   -1.42    0.97
 -15   2   5   -1.35    1.28
  14  -2  -5    2.28    0.97
 -14   2   5    4.75    1.45
  13  -2  -5    0.57    0.85
 -13   2   5    1.39    1.08
  12  -2  -5    3.71    0.94
 -12   2   5    4.14    1.18
  11  -2  -5    1.13    0.72
  11  -2  -5    0.22    1.18
 -11   2   5    0.54    1.00
  10  -2  -5    0.08    0.92
  10  -2  -5   -0.34    0.60
   9  -2  -5    8.01    1.32
   9  -2  -5   10.46    1.25
  -9   2   5    9.47    1.03
   8  -2  -5   16.72    1.22
   8  -2  -5   16.01    1.29
  -8   2   5   17.46    1.17
   7  -2  -5    1.99    0.47
   7  -2  -5    2.78    0.67
  -7   2   5    1.95    0.53
  -7   2   5    3.27    0.63
  -7   2   5    2.02    0.57
   6  -2  -5   44.09    1.63
   6  -2  -5   42.56    1.74
  -6   2   5   43.72    1.80
  -6   2   5   44.88    1.82
  -6   2   5   42.02    1.57
   5  -2  -5    4.48    0.76
   5  -2  -5    6.84    0.76
  -5   2   5    6.88    0.80
  -5   2   5    6.42    0.69
  -5   2   5    7.07    0.80
   4  -2  -5    0.76    0.40
   4  -2  -5   -0.67    0.39
  -4   2   5    0.11    0.45
  -4   2   5    0.63    0.49
  -4   2   5    0.59    0.29
   3  -2  -5    1.28    0.47
   3  -2  -5    1.39    0.43
  -3   2   5    0.39    0.47
  -3   2   5    0.19    0.43
  -3   2   5    0.28    0.29
   2  -2  -5   10.15    0.69
   2  -2  -5    9.90    0.72
  -2   2   5    8.54    0.77
  -2   2   5   10.56    0.94
   1  -2  -5   23.12    1.04
   1  -2  -5   25.05    1.04
  -1   2   5   23.45    1.20
  -1   2   5   22.53    1.05
   0  -2  -5   78.79    2.65
   0  -2  -5   82.58    2.50
   0   2   5   78.09    2.72
   0   2   5   80.19    2.47
  -1  -2  -5    9.73    0.76
  -1  -2  -5    8.19    0.83
   1   2   5    8.38    0.95
   1   2   5    8.76    0.69
  -2  -2  -5   17.90    0.95
   2   2   5   17.95    1.20
   2   2   5   17.84    0.95
   3   2   5    0.62    0.61
   3   2   5    0.78    0.52
   4   2   5    1.04    0.63
   4   2   5    1.20    0.55
   4   2   5    2.04    0.62
   5   2   5    3.75    0.77
   5   2   5    4.45    0.74
   5   2   5    4.84    0.73
   6   2   5   12.32    1.16
   6   2   5   12.16    1.12
   6   2   5   13.00    1.22
   7   2   5    1.09    0.82
   7   2   5    0.53    0.72
   8   2   5    2.07    0.98
   8   2   5    2.14    1.18
   9   2   5    2.62    1.08
   9   2   5    3.86    1.43
  10   2   5   -0.56    1.33
  10   2   5    0.45    1.18
  11   2   5    6.36    1.52
  11   2   5    6.18    1.63
  12   2   5    0.40    1.58
  13   2   5    1.70    1.80
  13   2   5   -0.80    1.47
  14   2   5   -2.06    1.75
  14   2   5    1.96    2.02
  15   2   5   -3.22    2.13
  19  -3  -5   -0.23    1.70
 -19   3   5    3.12    2.13
  18  -3  -5    0.58    1.41
 -18   3   5    1.19    1.88
  17  -3  -5   -1.39    1.22
 -17   3   5   -0.75    1.58
  16  -3  -5    0.64    1.09
 -16   3   5   -0.20    1.52
  15  -3  -5    0.59    0.98
 -15   3   5    2.02    1.42
  14  -3  -5   -1.09    0.82
 -14   3   5    0.89    1.25
  13  -3  -5    5.27    1.00
 -13   3   5    5.51    1.37
  12  -3  -5    0.50    0.78
 -12   3   5   -0.98    0.90
  11  -3  -5    2.90    0.79
 -11   3   5    3.66    1.22
  10  -3  -5    0.41    0.61
 -10   3   5    1.59    0.94
   9  -3  -5    8.76    1.49
   9  -3  -5   10.70    1.33
  -9   3   5    9.72    1.10
   8  -3  -5   42.95    1.89
   8  -3  -5   43.77    1.91
  -8   3   5   43.67    2.03
  -8   3   5   42.90    1.88
  -8   3   5   40.77    1.73
   7  -3  -5   33.40    1.59
   7  -3  -5   31.03    1.52
  -7   3   5   31.60    1.56
  -7   3   5   32.73    1.64
  -7   3   5   31.42    1.45
   6  -3  -5   18.80    1.12
   6  -3  -5   15.59    1.21
  -6   3   5   19.48    1.11
  -6   3   5   20.46    1.21
  -6   3   5   19.11    1.17
   5  -3  -5    5.13    0.73
  -5   3   5    4.41    0.63
  -5   3   5    4.48    0.67
   4  -3  -5    5.35    0.65
   4  -3  -5    4.24    0.58
  -4   3   5    4.12    0.60
  -4   3   5    5.39    0.70
  -4   3   5    3.22    0.44
   3  -3  -5    0.02    0.45
   3  -3  -5    1.60    0.44
  -3   3   5    0.76    0.56
  -3   3   5    1.07    0.42
   2  -3  -5   11.82    0.80
   2  -3  -5   10.47    0.79
  -2   3   5   12.50    0.79
  -2   3   5   12.97    1.01
   1  -3  -5    1.73    0.42
   1  -3  -5    1.44    0.48
  -1   3   5    1.76    0.43
  -1   3   5    2.11    0.70
   0  -3  -5    6.34    0.69
   0  -3  -5    8.09    0.74
   0   3   5    5.99    0.65
   0   3   5    7.64    0.93
  -1  -3  -5    1.20    0.48
   1   3   5    1.40    0.42
   1   3   5    1.97    0.64
  -2  -3  -5    3.48    0.52
   2   3   5    2.83    0.48
   2   3   5    2.62    0.67
   3   3   5   32.42    1.28
   3   3   5   30.30    1.62
   3   3   5   31.90    1.22
   4   3   5   18.39    1.04
   4   3   5   19.26    1.25
   4   3   5   16.38    0.99
   5   3   5    0.87    0.53
   5   3   5   -0.12    0.61
   5   3   5    0.45    0.58
   6   3   5    1.73    0.72
   6   3   5    0.82    0.74
   6   3   5    1.26    0.74
   7   3   5   12.11    1.32
   7   3   5   10.65    1.39
   7   3   5   11.66    1.88
   8   3   5    9.12    1.17
   8   3   5    7.90    1.48
   9   3   5    2.51    1.08
   9   3   5    3.85    1.42
  10   3   5    4.94    1.50
  10   3   5    4.53    1.24
  11   3   5    1.56    1.30
  11   3   5    1.41    1.46
  12   3   5    2.51    1.60
  12   3   5   -0.41    1.58
  13   3   5   -1.78    1.79
  13   3   5   -0.62    1.49
  14   3   5   -2.22    2.14
  14   3   5    0.68    1.78
  19  -4  -5    2.71    1.62
  18  -4  -5   -0.22    1.33
 -18   4   5    0.15    1.73
  17  -4  -5   -0.49    1.12
 -17   4   5    1.06    1.57
  16  -4  -5    0.07    1.04
 -16   4   5    0.07    1.42
  15  -4  -5    0.13    0.94
 -15   4   5   -0.04    1.24
  14  -4  -5    0.63    0.92
 -14   4   5   -0.62    1.18
  13  -4  -5    6.50    0.98
 -13   4   5    7.15    1.43
  12  -4  -5    0.22    0.73
 -12   4   5    0.59    1.08
  11  -4  -5    0.17    0.69
 -11   4   5   -0.27    0.95
  10  -4  -5    4.02    0.70
 -10   4   5    4.01    1.11
   9  -4  -5    2.50    0.61
  -9   4   5    4.20    0.85
  -9   4   5    4.10    0.91
   8  -4  -5    0.62    0.45
   8  -4  -5    2.28    1.04
  -8   4   5    0.99    0.61
  -8   4   5    0.65    0.56
  -8   4   5    1.26    0.74
   7  -4  -5   18.49    1.19
   7  -4  -5   21.94    1.47
  -7   4   5   18.18    1.22
  -7   4   5   19.09    1.24
  -7   4   5   19.17    1.30
   6  -4  -5   -0.85    0.73
  -6   4   5   -0.23    0.61
  -6   4   5    0.10    0.37
  -6   4   5   -0.40    0.41
  -5   4   5    0.14    0.36
  -5   4   5   -0.08    0.41
  -5   4   5   -0.90    0.64
   4  -4  -5    6.25    0.75
  -4   4   5    6.66    0.94
  -4   4   5    7.05    0.92
  -4   4   5    6.46    0.72
   3  -4  -5   34.99    1.39
   3  -4  -5   29.37    1.34
  -3   4   5   32.08    1.46
  -3   4   5   32.77    1.31
   2  -4  -5   19.13    1.07
  -2   4   5   17.39    0.91
  -2   4   5   14.20    1.12
   1  -4  -5    0.96    0.50
  -1   4   5    2.98    0.82
  -1   4   5    0.81    0.41
   0  -4  -5   13.69    0.91
   0   4   5   15.63    1.35
   0   4   5   14.53    0.81
  -1  -4  -5    0.96    0.49
   1   4   5    1.01    0.70
   2   4   5    0.63    0.74
   3   4   5    7.27    1.09
   4   4   5    6.60    1.02
   5   4   5    0.29    0.68
   7   4   5   -0.38    1.12
   8   4   5   20.39    1.61
   8   4   5   18.40    2.16
   9   4   5    1.35    1.45
   9   4   5    0.91    1.09
  10   4   5    1.16    1.25
  10   4   5   -0.59    1.52
  11   4   5    0.40    1.43
  11   4   5   -0.36    1.58
  12   4   5    4.36    1.81
  12   4   5    4.57    1.89
  13   4   5    0.06    1.87
  14   4   5   -3.58    2.17
  18  -5  -5    1.16    1.38
 -18   5   5    0.22    1.78
  17  -5  -5    1.83    1.18
 -17   5   5   -0.01    1.51
  16  -5  -5    0.29    1.01
 -16   5   5    0.54    1.52
  15  -5  -5   -0.48    1.07
 -15   5   5   -0.77    1.23
  14  -5  -5    1.25    0.94
 -14   5   5    0.71    1.15
  13  -5  -5    2.49    0.87
 -13   5   5    2.90    1.19
  12  -5  -5   11.00    1.75
 -12   5   5    6.65    1.36
  11  -5  -5   12.46    1.62
 -11   5   5    9.29    1.35
  10  -5  -5    3.80    0.70
 -10   5   5    6.73    1.10
 -10   5   5    5.28    1.08
   9  -5  -5    0.74    0.52
  -9   5   5    1.58    0.88
  -8   5   5   -0.41    0.53
  -8   5   5    0.22    0.52
  -8   5   5   -0.09    0.74
  -7   5   5    7.15    1.03
  -7   5   5    5.98    0.89
  -7   5   5    7.14    1.00
  -6   5   5   -0.05    0.39
  -6   5   5    0.19    0.43
  -6   5   5   -0.34    0.65
  -5   5   5    1.80    0.68
  -5   5   5    0.71    0.48
  -5   5   5    1.85    0.41
  -4   5   5    6.75    1.02
  -4   5   5    8.05    0.78
   3  -5  -5    6.60    1.00
  -3   5   5    4.44    0.74
  -3   5   5    6.04    0.93
   2  -5  -5   23.09    1.26
  -2   5   5   23.21    1.13
  -2   5   5   22.28    1.44
   1  -5  -5   12.23    0.94
  -1   5   5   10.44    0.80
   0  -5  -5    6.67    0.80
   0   5   5    6.74    0.64
   1   5   5    1.29    1.10
   2   5   5   13.73    1.45
   3   5   5   18.22    1.47
   4   5   5    0.77    0.65
   6   5   5   13.78    1.95
   7   5   5    3.99    1.40
   8   5   5    6.52    1.70
   9   5   5    1.35    1.58
  10   5   5    3.26    1.61
  11   5   5   -1.51    1.63
  12   5   5    4.73    1.94
  13   5   5    2.43    2.02
  14   5   5   -2.73    2.16
 -19   6   5    0.76    1.88
 -18   6   5    0.33    1.86
  17  -6  -5   -1.75    1.19
 -17   6   5    1.21    1.72
  16  -6  -5    1.21    1.21
 -16   6   5   -1.31    1.32
  15  -6  -5    0.66    1.02
 -15   6   5    0.27    1.31
  14  -6  -5    4.74    1.04
 -14   6   5    5.79    1.45
 -13   6   5   -0.17    1.06
 -12   6   5   -0.44    1.00
 -11   6   5    0.94    1.07
 -11   6   5    2.68    1.18
 -10   6   5   -0.30    0.87
 -10   6   5    0.05    0.98
  -9   6   5   -0.95    0.92
  -9   6   5   -0.62    0.89
  -8   6   5    1.46    0.55
  -8   6   5    1.46    0.86
  -7   6   5    7.78    0.91
  -7   6   5    7.83    1.05
  -6   6   5   12.04    1.01
  -6   6   5   13.42    1.29
  -5   6   5   35.11    1.67
  -5   6   5   37.64    1.79
  -5   6   5   37.90    1.67
  -4   6   5   20.83    1.19
  -4   6   5   19.88    1.34
   3  -6  -5    0.28    0.71
  -3   6   5   -0.58    0.66
  -3   6   5    0.34    0.50
   2  -6  -5   17.54    1.23
  -2   6   5   15.28    1.37
  -2   6   5   17.75    1.02
   1  -6  -5    6.07    0.81
  -1   6   5    5.26    0.72
  -1   6   5    8.28    1.05
   0   6   5    2.63    0.97
   1   6   5   11.66    1.43
   2   6   5    8.24    1.48
   3   6   5   -0.34    1.14
   5   6   5    2.28    1.40
   6   6   5    1.59    1.44
   7   6   5    4.97    1.63
   8   6   5    5.98    1.73
   9   6   5    2.39    1.70
  10   6   5    2.22    1.98
  11   6   5    3.51    2.08
  12   6   5    1.01    2.12
  13   6   5    1.79    2.27
 -19   7   5    1.62    1.97
 -18   7   5    2.18    1.80
 -17   7   5   -1.54    1.52
 -16   7   5   -0.48    1.26
 -15   7   5    1.88    1.35
 -14   7   5    3.06    1.32
 -13   7   5   -0.33    1.14
 -12   7   5    4.88    1.29
 -11   7   5    0.00    1.17
 -11   7   5   -0.10    1.03
 -10   7   5    1.44    1.05
 -10   7   5    1.51    1.19
  -9   7   5    0.43    1.00
  -9   7   5   -0.06    0.90
  -8   7   5   11.46    1.58
  -8   7   5   11.84    1.18
  -7   7   5    9.15    1.24
  -7   7   5    8.58    1.04
  -6   7   5    6.51    1.01
  -6   7   5    7.79    1.16
  -5   7   5    1.77    0.72
  -5   7   5    0.53    0.58
  -4   7   5    6.49    1.01
  -4   7   5    6.12    0.96
   3  -7  -5    9.40    1.35
  -3   7   5    8.69    0.95
  -3   7   5    7.66    1.15
   2  -7  -5    0.92    0.76
  -2   7   5    1.34    0.79
  -2   7   5    0.89    0.55
   1  -7  -5    1.82    0.73
  -1   7   5    2.03    0.56
  -1   7   5    2.67    0.99
   0   7   5    6.75    1.16
   1   7   5    9.35    1.50
   3   7   5    8.12    1.96
   4   7   5   12.97    2.22
   5   7   5    4.81    2.16
   6   7   5    1.30    2.24
   7   7   5    0.73    2.12
   8   7   5    6.76    2.50
   9   7   5   -0.17    2.25
  10   7   5   -0.20    2.37
  11   7   5    1.61    2.44
  12   7   5    1.33    2.63
  13   7   5    2.91    2.70
 -17   8   5    1.32    1.66
 -16   8   5    1.08    1.41
 -15   8   5    0.62    1.36
 -14   8   5    0.26    1.25
 -13   8   5    2.25    1.37
 -13   8   5    2.60    1.43
 -12   8   5    2.56    1.25
 -12   8   5    0.48    1.09
 -11   8   5    1.08    1.25
 -11   8   5   -1.15    0.96
 -10   8   5    0.67    1.04
  -9   8   5    2.04    1.24
  -9   8   5    0.45    0.99
  -8   8   5   -0.14    1.07
  -7   8   5   10.98    1.26
  -7   8   5   10.76    1.47
  -6   8   5    5.51    1.00
  -6   8   5    5.39    1.10
  -5   8   5    2.44    0.89
  -5   8   5    2.77    0.84
  -4   8   5    8.64    1.22
  -4   8   5    9.47    1.18
  -3   8   5    5.69    0.84
  -3   8   5    5.39    1.15
   2  -8  -5    8.75    1.06
  -2   8   5    7.46    1.00
  -2   8   5    9.89    1.37
   1  -8  -5    0.23    0.81
  -1   8   5   -0.34    0.89
  -1   8   5    0.24    0.56
   1   8   5    6.79    1.58
   2   8   5    0.62    1.33
   3   8   5    7.12    1.91
   4   8   5    2.98    1.87
   5   8   5    0.43    2.06
   6   8   5    2.58    1.92
   7   8   5    4.76    2.21
   8   8   5    2.51    2.14
   9   8   5    1.00    2.38
  10   8   5    4.17    2.59
  11   8   5    4.04    2.49
  12   8   5    0.04    2.55
 -18   9   5   -1.20    1.64
 -17   9   5    0.66    1.56
 -16   9   5    0.20    1.46
 -15   9   5    1.23    1.30
 -14   9   5    0.33    1.21
 -14   9   5   -0.78    1.47
 -13   9   5    0.52    1.38
 -13   9   5    0.99    1.25
 -12   9   5    0.86    1.13
 -12   9   5    1.71    1.36
 -11   9   5   -0.36    0.95
 -11   9   5    1.05    1.31
 -10   9   5    1.14    1.13
 -10   9   5    1.28    1.28
  -9   9   5   -0.84    0.92
  -9   9   5    0.34    1.24
  -8   9   5   -1.86    0.85
  -8   9   5    1.09    1.26
  -7   9   5    2.90    0.93
  -7   9   5    2.15    1.34
  -6   9   5    1.65    0.92
  -5   9   5    0.64    0.82
  -4   9   5    2.23    0.85
  -4   9   5    0.08    1.22
  -3   9   5    0.62    1.23
  -3   9   5    0.90    0.78
   2  -9  -5    3.83    1.08
  -2   9   5    1.83    1.30
  -2   9   5    2.75    0.78
  -1   9   5    4.38    1.55
   0   9   5    7.07    1.51
   1   9   5   -0.92    1.52
   2   9   5    1.95    1.53
   4   9   5   -0.06    1.53
   5   9   5   -1.52    1.60
   6   9   5   -1.50    1.91
   7   9   5    2.57    2.17
   9   9   5   -2.37    2.22
  10   9   5   -3.33    2.30
  11   9   5   -4.06    2.32
 -18  10   5   -0.95    1.72
 -17  10   5    0.56    1.54
 -16  10   5    0.04    1.55
 -15  10   5    1.21    1.41
 -14  10   5    0.80    1.64
 -14  10   5   -0.95    1.25
 -13  10   5    1.83    1.47
 -13  10   5   -0.02    1.21
 -12  10   5   -0.35    1.48
 -12  10   5    0.23    1.10
 -11  10   5   -0.02    1.15
 -11  10   5    0.74    1.33
 -10  10   5    2.47    1.10
 -10  10   5    2.76    1.45
  -9  10   5    0.53    1.31
  -9  10   5    1.46    1.09
  -8  10   5    0.26    0.95
  -8  10   5    1.42    1.34
  -7  10   5    2.32    1.39
  -6  10   5    5.52    1.23
  -6  10   5    4.19    1.38
  -5  10   5    1.36    0.98
  -5  10   5    1.18    1.33
  -4  10   5    4.15    1.06
  -4  10   5    2.80    1.33
  -3  10   5    3.21    1.38
  -3  10   5    5.32    0.98
   2 -10  -5   10.70    1.39
  -2  10   5    9.56    1.26
  -2  10   5    8.12    1.70
  -1  10   5    2.00    1.86
   0  10   5   -0.23    1.58
   1  10   5   -0.71    1.34
   2  10   5    0.30    1.74
   3  10   5    0.94    1.85
   4  10   5   -0.75    1.65
   5  10   5    0.80    1.79
   6  10   5   -0.53    1.82
   7  10   5    1.68    1.93
   8  10   5    2.68    2.19
   9  10   5    1.01    2.08
  10  10   5    0.82    2.34
 -16  11   5   -0.82    1.68
 -15  11   5    1.03    1.93
 -15  11   5   -0.35    1.32
 -14  11   5   -0.05    1.66
 -14  11   5    1.61    1.42
 -13  11   5    2.43    1.81
 -13  11   5    0.05    1.42
 -12  11   5    1.27    1.56
 -12  11   5    0.64    1.36
 -11  11   5    0.75    1.53
 -11  11   5   -0.28    1.16
 -10  11   5    0.26    1.13
 -10  11   5   -1.37    1.35
  -9  11   5   -2.03    1.36
  -9  11   5    0.40    1.05
  -8  11   5    0.83    1.36
  -8  11   5    1.52    1.20
  -7  11   5    1.53    1.13
  -7  11   5    1.35    1.28
  -6  11   5    1.05    1.10
  -6  11   5    1.23    1.36
  -5  11   5    2.62    1.42
  -5  11   5    0.89    1.04
  -4  11   5    6.98    1.70
  -4  11   5    9.32    1.28
  -3  11   5    0.82    1.41
  -3  11   5    0.65    0.97
  -2  11   5    5.55    1.64
  -2  11   5    6.38    1.00
  -1  11   5    1.89    1.53
   0  11   5    1.37    1.59
   1  11   5   -1.85    1.41
   2  11   5    0.13    1.44
   3  11   5   -0.60    1.63
   4  11   5    4.28    2.14
   5  11   5    1.56    2.02
   6  11   5    0.25    2.09
   7  11   5   -0.03    2.24
   8  11   5   -1.15    2.17
   9  11   5   -2.96    2.37
 -17  12   5   -2.52    1.75
 -16  12   5   -0.06    1.59
 -15  12   5    0.65    1.62
 -15  12   5    2.70    2.13
 -14  12   5   -0.42    1.49
 -14  12   5    0.78    1.80
 -13  12   5    2.25    1.97
 -13  12   5   -0.15    1.41
 -12  12   5    1.08    1.40
 -12  12   5    1.91    1.88
 -11  12   5   -0.45    1.64
 -11  12   5   -0.30    1.32
 -10  12   5    2.99    1.69
 -10  12   5    5.28    1.54
  -9  12   5    2.80    1.28
  -9  12   5    3.60    1.70
  -8  12   5    0.81    1.46
  -8  12   5    1.30    1.12
  -7  12   5    2.21    1.55
  -7  12   5   -0.01    1.10
  -6  12   5    1.76    1.45
  -5  12   5    0.99    1.12
  -5  12   5   -0.35    1.33
  -4  12   5    2.14    1.46
  -4  12   5    0.57    1.07
  -3  12   5    2.81    1.48
  -3  12   5    2.85    1.01
  -2  12   5    0.00    1.36
  -1  12   5    0.21    1.30
   0  12   5   -0.39    1.31
   1  12   5    0.12    1.72
   2  12   5   -2.62    1.74
   3  12   5   -0.65    1.86
   4  12   5   -0.85    1.62
   5  12   5    0.58    2.04
   6  12   5   -1.96    2.11
   7  12   5   -0.53    2.45
   8  12   5   -1.58    2.34
 -16  13   5    0.44    2.50
 -15  13   5    0.44    2.29
 -15  13   5   -1.68    1.70
 -14  13   5    4.17    2.11
 -14  13   5   -0.96    1.62
 -13  13   5    0.41    1.54
 -13  13   5    2.28    2.03
 -12  13   5    0.97    1.91
 -12  13   5   -0.07    1.41
 -11  13   5    1.16    1.50
 -11  13   5    2.76    1.91
 -10  13   5    2.98    1.49
 -10  13   5    2.68    1.72
  -9  13   5    0.26    1.33
  -9  13   5   -0.18    1.49
  -8  13   5   -0.38    1.29
  -8  13   5    0.21    1.31
  -7  13   5    1.13    1.24
  -7  13   5    0.62    1.61
  -6  13   5    0.28    1.11
  -6  13   5   -0.47    1.36
  -5  13   5    9.69    1.73
  -5  13   5   10.38    1.52
  -4  13   5    3.27    1.58
  -4  13   5    2.25    1.22
   3 -13  -5    4.08    1.27
  -3  13   5    2.60    1.63
  -2  13   5    3.32    1.51
  -1  13   5    1.03    1.56
   0  13   5    1.43    1.51
   1  13   5    0.93    1.48
   2  13   5   -2.30    1.63
   3  13   5   -1.96    2.17
   4  13   5   -3.40    2.03
   5  13   5   -0.95    2.02
   6  13   5   -1.15    2.20
   7  13   5    1.17    1.39
   7  13   5    0.59    2.20
 -15  14   5   -0.19    1.78
 -15  14   5    0.20    2.60
 -14  14   5    0.87    1.65
 -14  14   5    0.97    2.18
 -13  14   5   -0.36    2.02
 -13  14   5    2.61    1.79
 -12  14   5    1.35    1.71
 -12  14   5    0.55    2.16
 -11  14   5    1.48    1.63
 -11  14   5    0.64    1.94
 -10  14   5    2.00    1.58
 -10  14   5   -1.18    1.72
  -9  14   5    0.93    1.35
  -9  14   5    0.45    1.55
  -8  14   5    2.74    1.69
  -8  14   5   -1.87    1.34
  -7  14   5    6.13    1.53
  -7  14   5    6.79    1.99
  -6  14   5    1.39    1.47
  -6  14   5   -0.23    1.25
  -5  14   5    0.96    1.65
  -5  14   5    0.94    0.98
   4 -14  -5    0.88    1.40
  -4  14   5    3.49    1.62
  -4  14   5    1.91    1.04
   3 -14  -5   -0.08    1.42
  -3  14   5    1.68    1.53
  -2  14   5   -0.45    1.57
  -1  14   5    1.35    1.53
   0  14   5    2.55    1.64
   1  14   5    0.24    1.65
   2  14   5    2.53    1.92
   3  14   5   -0.64    1.71
   4  14   5    1.39    2.06
   4  14   5    0.19    1.37
   5  14   5    0.00    1.36
   5  14   5    1.67    2.31
   6  14   5   -0.61    2.72
   6  14   5    0.30    1.44
 -15  15   5    0.01    2.01
 -14  15   5   -1.58    1.92
 -14  15   5   -2.52    2.59
 -13  15   5   -2.64    1.69
 -13  15   5   -1.24    2.34
 -12  15   5   -1.80    1.68
 -12  15   5    1.72    2.45
 -11  15   5   -0.88    1.57
 -11  15   5   -1.56    1.80
 -10  15   5   -0.29    1.85
 -10  15   5   -1.01    1.62
  -9  15   5    0.56    1.82
  -9  15   5    0.92    1.61
  -8  15   5    3.66    1.84
  -8  15   5    0.87    1.62
  -7  15   5    5.33    1.83
  -7  15   5    2.14    1.46
  -6  15   5    1.53    1.54
  -5  15   5   -0.16    1.34
  -5  15   5    0.52    1.56
   4 -15  -5   -0.43    1.65
  -4  15   5   -0.53    1.20
  -4  15   5    1.30    1.56
  -3  15   5    1.18    1.53
  -3  15   5   -0.67    0.99
  -2  15   5   -0.15    1.10
  -2  15   5    3.47    1.83
  -1  15   5   -0.48    1.62
  -1  15   5    0.32    1.16
   0  15   5   -0.99    1.14
   0  15   5   -1.01    1.66
   1  15   5   -0.99    1.71
   1  15   5   -1.08    1.27
   2  15   5    3.53    1.85
   2  15   5    1.38    1.43
   3  15   5    1.16    2.18
   3  15   5   -0.90    1.41
   4  15   5    0.98    2.28
   4  15   5    1.55    1.52
 -13  16   5    0.84    2.25
 -13  16   5    0.40    2.52
 -12  16   5    1.01    1.96
 -12  16   5    0.82    2.32
 -11  16   5   -0.64    1.95
 -11  16   5   -0.61    1.97
 -10  16   5    0.27    1.84
 -10  16   5    0.16    2.01
  -9  16   5    0.10    1.97
  -9  16   5    1.10    1.71
  -8  16   5    4.55    1.90
   7 -16  -5    0.32    1.65
  -7  16   5    0.22    1.66
   6 -16  -5   -0.76    1.59
  -6  16   5    0.42    1.69
   5 -16  -5    2.06    1.68
  -5  16   5    1.00    1.58
  -4  16   5   -0.90    1.35
  -4  16   5    2.03    1.88
  -3  16   5    1.24    1.23
  -3  16   5    3.54    1.69
  -2  16   5    1.61    1.27
  -2  16   5    2.81    1.78
  -1  16   5    1.06    1.30
  -1  16   5    1.87    1.95
   0  16   5    1.34    1.38
   0  16   5    0.08    1.86
   1  16   5   -0.41    1.39
   1  16   5   -1.07    1.77
   2  16   5    1.56    1.49
   3  16   5    1.50    2.32
   3  16   5    0.38    1.57
 -12  17   5    0.67    2.21
 -12  17   5    3.63    2.59
 -11  17   5    2.71    2.09
 -10  17   5    1.93    2.20
   9 -17  -5    2.37    2.02
  -9  17   5    2.28    2.11
   8 -17  -5   -0.15    1.91
  -8  17   5    1.83    2.12
   7 -17  -5    0.25    1.87
  -7  17   5    2.62    1.88
   6 -17  -5    1.69    1.94
  -6  17   5    3.86    2.09
  -5  17   5    3.23    1.97
  -4  17   5    0.31    1.68
  -3  17   5    2.20    1.89
  -2  17   5    2.40    2.27
  -2  17   5   -0.63    1.66
  -1  17   5   -0.47    1.50
   0  17   5    2.19    2.17
   0  17   5    0.96    1.62
   9 -18  -5   -1.52    2.17
  -9  18   5    0.63    2.17
   8 -18  -5    3.54    2.28
  -8  18   5    0.77    2.32
  -7  18   5    5.71    2.14
  -6  18   5    2.74    2.07
  -5  18   5    4.07    2.31
  -4  18   5    2.83    1.92
  -3  18   5    0.82    2.01
   3 -19   6    0.83    2.54
  -4  19  -6    0.79    2.35
   4 -19   6   -2.58    2.49
  -5  19  -6    1.48    2.35
   5 -19   6   -2.36    2.32
  -6  19  -6    2.11    2.27
   6 -19   6   -1.81    2.20
   2  18  -6    0.37    1.96
   2  18  -6    1.14    2.39
   1  18  -6   -3.92    1.82
   1  18  -6   -2.34    2.16
   0  18  -6   -2.07    2.04
   0  18  -6   -3.39    1.82
  -1  18  -6    1.01    1.85
  -1  18  -6   -2.89    1.65
   1 -18   6    3.69    2.35
  -2  18  -6   -1.59    2.04
  -2  18  -6   -1.46    1.59
   2 -18   6    0.02    2.23
  -3  18  -6    2.32    2.07
   3 -18   6   -0.69    2.23
  -4  18  -6    2.26    2.12
   4 -18   6    2.89    2.29
  -5  18  -6    1.47    1.88
   5 -18   6    0.06    2.00
  -6  18  -6    1.82    2.37
   6 -18   6   -0.31    2.08
   7 -18   6   -1.05    2.05
   8 -18   6   -1.76    2.11
  -9  18  -6   -0.15    1.82
   9 -18   6    0.80    2.13
   4  17  -6    1.17    2.29
   4  17  -6   -1.68    1.87
   3  17  -6   -2.16    1.76
   3  17  -6    0.11    2.17
   2  17  -6   -1.14    1.62
   2  17  -6    0.16    2.13
   1  17  -6   -1.76    1.95
   1  17  -6   -1.07    1.69
   0  17  -6   -1.84    1.68
   0  17  -6   -3.00    1.62
   0 -17   6    3.39    2.03
  -1  17  -6   -1.06    1.72
   1 -17   6    0.20    1.95
  -2  17  -6   -2.18    1.70
  -2  17  -6   -1.50    1.40
   2 -17   6   -0.22    1.98
  -3  17  -6    0.83    1.80
   3 -17   6   -1.72    1.93
  -4  17  -6   -1.60    1.74
   4 -17   6    1.70    1.85
  -5  17  -6    0.28    1.67
  -6  17  -6    1.89    1.95
   6 -17   6    0.05    1.93
  -7  17  -6    1.60    1.93
   7 -17   6    0.52    1.85
  -8  17  -6    3.02    1.94
   8 -17   6    3.56    2.14
  -9  17  -6   -0.35    1.63
   9 -17   6   -1.25    2.06
  10 -17   6   -2.49    2.12
 -11  17  -6   -1.07    2.26
   6  16  -6    1.63    2.33
   6  16  -6   -2.49    1.88
   5  16  -6   -3.06    1.69
   5  16  -6    3.59    2.16
   4  16  -6    1.94    2.11
   4  16  -6   -1.69    1.63
   3  16  -6   -2.19    1.51
   3  16  -6   -0.38    1.83
   2  16  -6    0.69    1.56
   2  16  -6    2.64    1.92
   1  16  -6    0.26    1.73
   1  16  -6   -0.07    1.50
  -1 -16   6    3.55    1.90
   0  16  -6    1.01    1.72
   0 -16   6    2.03    1.87
  -1  16  -6   -0.41    1.58
  -1  16  -6   -2.49    1.37
   1 -16   6   -1.59    1.71
  -2  16  -6   -0.61    1.26
  -2  16  -6   -0.05    1.55
   2 -16   6    0.40    1.78
  -3  16  -6    0.02    1.65
   3 -16   6   -1.78    1.63
  -4  16  -6   -1.15    1.52
  -4  16  -6    0.09    1.70
   4 -16   6   -3.37    1.57
  -5  16  -6    0.70    1.53
   5 -16   6    1.20    1.69
  -6  16  -6    2.62    1.78
   6 -16   6   -0.74    1.62
  -7  16  -6    1.83    1.79
   7 -16   6    3.37    1.87
  -8  16  -6    1.28    1.62
   8 -16   6    1.81    1.81
  -9  16  -6    1.13    1.69
   9 -16   6   -2.23    1.74
 -10  16  -6    0.04    1.69
  10 -16   6   -0.22    2.03
 -11  16  -6   -0.07    2.04
  11 -16   6    0.12    1.96
   8  15  -6   -0.11    2.56
   7  15  -6    3.50    2.37
   7  15  -6   -1.86    1.81
   6  15  -6   -2.70    1.38
   6  15  -6    1.19    2.13
   5  15  -6    5.30    2.07
   5  15  -6   -0.56    1.44
   4  15  -6    3.17    1.79
   4  15  -6   -2.63    1.41
   3  15  -6   -0.72    1.43
   3  15  -6    1.85    1.70
  -3 -15   6    1.89    1.89
   2  15  -6   -0.09    1.29
   2  15  -6    0.56    1.61
  -2 -15   6    2.74    1.92
   1  15  -6    2.46    1.74
   1  15  -6    1.77    1.34
   0  15  -6   -0.37    1.47
   0  15  -6   -2.44    1.27
   0 -15   6   -0.44    1.61
  -1  15  -6    1.00    1.50
   1 -15   6    1.40    1.67
  -2  15  -6   -0.75    1.12
  -2  15  -6    1.18    1.52
   2 -15   6    1.15    1.65
  -3  15  -6    0.31    1.55
  -3  15  -6    1.41    1.34
   3 -15   6    0.26    1.47
  -4  15  -6    0.95    1.38
  -4  15  -6    2.52    1.70
   4 -15   6    1.82    1.60
  -5  15  -6    2.70    1.52
   5 -15   6    2.86    1.57
  -6  15  -6   -1.01    1.59
   6 -15   6    2.50    1.69
  -7  15  -6    2.36    1.53
   7 -15   6    0.09    1.61
  -8  15  -6    1.06    1.75
   8 -15   6   -1.17    1.61
  -9  15  -6    1.14    1.51
   9 -15   6   -0.27    1.74
 -10  15  -6    1.41    1.68
  10 -15   6   -1.38    1.53
  11 -15   6    0.49    1.82
  12 -15   6   -1.52    1.79
   9  14  -6    7.65    2.57
   8  14  -6   -0.88    1.47
   8  14  -6    4.52    2.18
   7  14  -6   -1.69    1.26
   7  14  -6    2.66    2.10
   6  14  -6    3.51    1.96
   6  14  -6   -0.19    1.37
   5  14  -6   -1.70    1.29
   5  14  -6    3.80    1.85
   4  14  -6    1.33    1.62
   4  14  -6   -1.95    1.16
  -4 -14   6    0.36    1.68
   3  14  -6    1.47    1.53
   3  14  -6   -0.65    1.24
  -3 -14   6    0.38    1.66
   2  14  -6    1.43    1.50
   2  14  -6    0.51    1.21
  -2 -14   6    0.27    1.65
   1  14  -6   -0.02    1.43
   1  14  -6   -0.33    1.10
  -1 -14   6   -0.11    1.63
   0  14  -6    0.90    1.17
   0  14  -6    0.50    1.34
   0 -14   6    0.82    1.51
  -1  14  -6    7.87    1.35
  -1  14  -6    7.71    1.68
   1 -14   6    9.64    1.80
  -2  14  -6    0.65    1.20
  -2  14  -6    0.49    1.27
   2 -14   6    0.66    1.47
  -3  14  -6    0.45    1.40
  -3  14  -6    1.26    1.17
   3 -14   6   -0.66    1.33
  -4  14  -6    1.44    1.55
   4 -14   6    2.38    1.55
  -5  14  -6    0.42    1.37
   5 -14   6    1.47    1.46
  -6  14  -6    0.58    1.31
   6 -14   6    0.09    1.39
  -7  14  -6    2.54    1.44
   7 -14   6    2.46    1.53
  -8  14  -6    0.61    1.39
   8 -14   6   -0.62    1.66
  -9  14  -6    2.06    1.65
   9 -14   6    0.26    1.50
 -10  14  -6   -0.34    1.65
  10 -14   6   -1.40    1.64
  11 -14   6   -1.51    1.74
  12 -14   6   -2.44    1.80
  13 -14   6   -0.94    2.01
  14 -14   6   -0.14    2.25
  10  13  -6    1.38    2.35
   9  13  -6    3.60    2.25
   9  13  -6   -0.24    1.47
   8  13  -6   -2.20    1.33
   8  13  -6    0.86    1.90
   7  13  -6   -0.84    1.26
   7  13  -6    1.49    1.78
   6  13  -6    2.05    1.59
   6  13  -6   -0.58    1.23
   5  13  -6   -0.30    1.13
   5  13  -6    1.71    1.57
  -5 -13   6    2.30    1.61
   4  13  -6   -0.90    1.01
   4  13  -6    1.25    1.58
  -4 -13   6    1.76    1.53
   3  13  -6   15.15    2.27
  -3 -13   6   10.26    1.80
   2  13  -6    1.56    1.42
   2  13  -6    1.21    1.10
  -2 -13   6    0.27    1.46
   1  13  -6    0.35    1.33
   1  13  -6    1.71    1.03
  -1 -13   6   -0.51    1.46
   0  13  -6    0.49    1.02
   0  13  -6    0.80    1.27
   0 -13   6    0.53    1.53
  -1  13  -6    7.26    1.36
  -1  13  -6    7.38    1.51
   1 -13   6    9.08    1.70
  -2  13  -6   -0.26    0.99
  -2  13  -6   -0.73    1.27
   2 -13   6    0.36    1.26
  -3  13  -6    0.56    0.98
  -3  13  -6    1.46    1.36
   3 -13   6    1.31    1.33
  -4  13  -6   -0.56    1.19
   4 -13   6   -0.68    1.23
  -5  13  -6    0.35    1.21
   5 -13   6    0.92    1.40
  -6  13  -6    1.13    1.25
   6 -13   6   -0.26    1.28
  -7  13  -6   -1.16    1.29
   7 -13   6   -0.37    1.31
  -8  13  -6    2.00    1.53
   8 -13   6    0.68    1.28
  -9  13  -6    4.87    1.66
   9 -13   6    5.15    1.68
  10 -13   6   -0.33    1.53
  11 -13   6   -0.43    1.78
  12 -13   6   -2.35    1.58
  13 -13   6    0.53    1.88
  14 -13   6    0.48    1.89
  15 -13   6   -0.18    2.04
  10  12  -6    2.54    2.02
  10  12  -6   -1.59    1.47
   9  12  -6    1.67    1.87
   9  12  -6   -0.35    1.38
   8  12  -6    1.11    1.72
   8  12  -6   -1.20    1.15
   7  12  -6   -0.20    1.12
   7  12  -6    0.06    1.60
   6  12  -6    3.36    1.59
   6  12  -6    1.91    1.25
  -6 -12   6    3.32    1.56
   5  12  -6   -0.08    1.05
   5  12  -6    3.76    1.47
  -5 -12   6    1.70    1.43
   4  12  -6    7.80    1.64
  -4 -12   6    6.10    1.53
   3  12  -6    4.27    1.36
   3  12  -6    1.11    1.06
  -3 -12   6    2.49    1.34
   2  12  -6    0.95    1.23
   2  12  -6    0.46    0.96
  -2 -12   6    1.05    1.36
   1  12  -6    2.59    1.00
   1  12  -6    1.03    1.32
  -1 -12   6    1.12    1.36
   0  12  -6    0.35    1.15
   0 -12   6    1.57    1.38
  -1  12  -6    1.42    1.03
  -1  12  -6   -0.26    1.09
   1 -12   6    0.70    1.39
  -2  12  -6    4.15    1.33
  -2  12  -6    4.46    1.05
   2 -12   6    3.42    1.40
  -3  12  -6   -0.71    1.16
  -3  12  -6    0.78    0.93
   3 -12   6   -0.10    1.22
  -4  12  -6   -0.28    1.18
   4 -12   6    1.09    1.23
  -5  12  -6    4.52    1.41
   5 -12   6    3.84    1.34
  -6  12  -6    6.84    1.49
   6 -12   6    5.30    1.40
  -7  12  -6    0.73    1.19
   7 -12   6   -0.55    1.26
  -8  12  -6    0.49    1.21
   8 -12   6   -1.52    1.21
  -9  12  -6    1.99    1.49
   9 -12   6    2.28    1.49
  10 -12   6   -1.63    1.46
  11 -12   6    0.26    1.47
  12 -12   6    3.40    1.78
  13 -12   6   -0.24    1.80
  14 -12   6    0.22    1.93
  12  11  -6   -0.18    1.53
  11  11  -6    6.35    2.17
  10  11  -6    3.56    1.85
  10  11  -6   -0.56    1.21
   9  11  -6    2.31    1.63
   9  11  -6   -1.27    1.14
   8  11  -6   -0.29    1.11
   8  11  -6    1.87    1.53
  -8 -11   6    1.30    1.58
   7  11  -6    2.61    1.51
   7  11  -6    0.79    1.05
  -7 -11   6    1.39    1.47
   6  11  -6    0.24    0.92
   6  11  -6    0.89    1.39
  -6 -11   6    1.82    1.39
   5  11  -6    8.18    1.59
   5  11  -6    5.64    1.20
  -5 -11   6    7.25    1.35
   4  11  -6   20.16    2.41
  -4 -11   6   19.48    2.05
   3  11  -6    0.28    0.87
  -3 -11   6    1.09    1.22
   2  11  -6    2.25    1.00
   2  11  -6    1.97    1.21
  -2 -11   6    0.23    1.24
   1  11  -6   -0.90    1.03
  -1 -11   6    2.69    1.33
   0  11  -6   -0.20    1.10
   0  11  -6    1.11    0.91
   0 -11   6    0.95    1.27
  -1  11  -6   -0.08    1.09
  -1  11  -6    0.78    0.89
   1 -11   6    1.08    1.23
  -2  11  -6    3.35    1.21
  -2  11  -6    1.97    0.87
   2 -11   6    3.59    1.21
  -3  11  -6    1.22    1.15
  -3  11  -6   -1.20    0.80
   3 -11   6    0.86    1.23
  -4  11  -6    0.42    1.16
   4 -11   6    1.07    1.19
  -5  11  -6   12.81    1.95
   5 -11   6   14.31    2.03
  -6  11  -6    2.72    1.16
   6 -11   6    3.25    1.26
  -7  11  -6    1.61    1.22
   7 -11   6    0.13    1.29
  -8  11  -6    0.99    1.21
   8 -11   6   -2.10    1.13
   9 -11   6   -1.11    1.25
  10 -11   6    0.63    1.51
  11 -11   6    4.36    1.78
  12 -11   6    3.87    1.89
  13 -11   6    2.48    1.87
  14 -11   6    0.84    1.81
  15 -11   6    0.41    2.18
  16 -11   6    0.54    2.20
  13  10  -6   -0.70    1.52
  12  10  -6   -1.84    1.23
  11  10  -6    1.66    1.84
  11  10  -6   -1.70    1.16
  10  10  -6   -0.74    1.06
 -10 -10   6   -0.49    1.65
   9  10  -6   -0.50    1.05
  -9 -10   6    0.82    1.53
   8  10  -6    1.69    1.58
   8  10  -6    0.55    0.96
  -8 -10   6    1.42    1.46
   7  10  -6    0.71    1.45
   7  10  -6   -0.29    0.86
  -7 -10   6   -0.29    1.34
   6  10  -6    0.67    0.91
   6  10  -6   -0.29    1.33
  -6 -10   6    1.17    1.30
   5  10  -6    4.14    1.34
   5  10  -6    3.83    1.06
  -5 -10   6    5.12    1.30
   4  10  -6    0.67    0.84
   4  10  -6    0.59    1.22
  -4 -10   6   -0.64    1.10
   3  10  -6    0.27    1.06
   3  10  -6    0.30    0.89
  -3 -10   6   -0.35    1.08
   2  10  -6   11.74    1.74
  -2 -10   6   11.07    1.78
   1  10  -6    4.29    1.15
   1  10  -6    3.52    0.88
  -1 -10   6    3.96    1.22
   0  10  -6    0.48    0.77
   0  10  -6    0.67    0.88
   0 -10   6   -0.23    1.12
  -1  10  -6    2.86    0.96
  -1  10  -6    1.64    0.79
   1 -10   6    2.28    1.16
  -2  10  -6    3.07    0.78
   2 -10   6    3.46    1.12
  -3  10  -6    0.17    1.04
  -3  10  -6   -0.02    0.74
   3 -10   6   -0.33    0.97
  -4  10  -6   17.29    1.85
   4 -10   6   16.27    1.92
  -5  10  -6    7.73    1.37
   5 -10   6    8.73    1.47
   5 -10   6    7.09    1.10
  -6  10  -6    0.12    1.07
   6 -10   6   -0.12    0.85
   6 -10   6   -0.18    1.06
  -7  10  -6    0.39    1.20
   7 -10   6   -0.42    1.20
   8 -10   6    5.83    1.51
   9 -10   6   -1.15    1.33
  10 -10   6    9.38    1.88
  11 -10   6    3.40    1.59
  12 -10   6    1.54    1.65
  13 -10   6    1.23    1.75
  14 -10   6    2.83    1.90
  15 -10   6   -0.31    1.83
  14   9  -6   -1.87    1.54
  13   9  -6   -0.82    1.26
  12   9  -6   -1.81    1.08
  11   9  -6    2.00    1.96
  11   9  -6    0.75    1.19
 -11  -9   6    1.06    1.65
  10   9  -6    0.02    1.00
  10   9  -6    1.56    1.77
 -10  -9   6   -0.04    1.55
   9   9  -6   14.89    2.42
  -9  -9   6   11.36    1.71
   8   9  -6    0.09    1.44
   8   9  -6   -0.05    0.89
  -8  -9   6   -1.10    1.27
   7   9  -6    2.33    0.92
   7   9  -6    3.67    1.37
  -7  -9   6    2.90    1.33
   6   9  -6    0.78    0.85
   6   9  -6    1.51    1.25
  -6  -9   6   -0.43    1.18
   5   9  -6    2.52    1.18
   5   9  -6    1.94    0.91
  -5  -9   6    1.95    1.14
   4   9  -6    0.65    0.80
   4   9  -6    0.34    1.09
  -4  -9   6    0.58    1.03
   3   9  -6   12.11    1.60
  -3  -9   6   12.46    1.57
   2   9  -6   14.82    1.76
   2   9  -6   15.88    1.64
  -2  -9   6   13.67    1.68
   1   9  -6    0.70    0.87
   1   9  -6    0.36    0.65
  -1  -9   6    1.18    1.03
   0   9  -6   -0.03    0.78
   0   9  -6    0.62    0.68
   0  -9   6    0.81    0.99
  -1   9  -6    3.70    0.74
  -1   9  -6    5.17    0.92
   1  -9   6    4.35    1.01
  -2   9  -6   -0.57    0.60
  -2   9  -6    1.08    0.67
   2  -9   6   -0.08    0.88
  -3   9  -6   16.50    1.36
   3  -9   6   12.31    1.35
   4  -9   6   10.03    1.30
  -5   9  -6    0.48    0.95
   5  -9   6   -0.32    0.99
   5  -9   6   -0.11    0.74
  -6   9  -6    0.46    1.05
   6  -9   6   -0.22    1.09
   6  -9   6   -0.27    0.81
   7  -9   6   -0.27    1.13
   7  -9   6    0.70    0.83
   8  -9   6    0.02    1.22
   9  -9   6    1.27    1.42
  10  -9   6    7.08    1.65
  11  -9   6    2.95    1.52
  12  -9   6    0.77    1.51
  13  -9   6    3.25    1.70
  14  -9   6    2.31    1.79
  15  -9   6    2.51    1.92
  16  -9   6    2.07    2.11
  14   8  -6   -1.24    1.35
  13   8  -6    0.67    1.29
 -13  -8   6    2.96    1.87
  12   8  -6   -0.04    1.08
  12   8  -6    0.81    2.08
  11   8  -6   -0.21    1.09
  11   8  -6   -0.15    1.75
 -11  -8   6   -0.03    1.55
  10   8  -6    0.88    1.55
  10   8  -6   -0.06    0.93
 -10  -8   6    0.78    1.45
   9   8  -6    5.97    1.25
   9   8  -6   12.19    2.11
  -9  -8   6    9.93    1.54
   8   8  -6   -0.05    0.82
   8   8  -6    1.15    1.23
  -8  -8   6    0.56    1.23
   7   8  -6    0.96    1.20
   7   8  -6    1.23    0.97
  -7  -8   6    1.72    1.22
   6   8  -6    1.72    0.89
   6   8  -6    2.91    1.14
  -6  -8   6    2.92    1.14
   5   8  -6    1.41    0.83
   5   8  -6    1.27    1.00
  -5  -8   6   -1.54    0.95
   4   8  -6    4.10    1.04
  -4  -8   6    3.65    1.03
   3   8  -6    1.98    0.88
   3   8  -6    2.65    0.63
  -3  -8   6    1.73    0.88
   2   8  -6    9.22    1.37
   2   8  -6    8.72    1.27
  -2  -8   6    9.68    1.41
   1   8  -6    4.45    0.93
   1   8  -6    2.51    0.65
  -1  -8   6    3.97    0.98
   0   8  -6    9.38    1.37
   0   8  -6   10.23    1.15
   0  -8   6   10.87    1.37
  -1   8  -6    0.42    0.58
  -1   8  -6    1.51    0.67
   1  -8   6    0.20    0.75
  -2   8  -6    0.42    0.60
  -2   8  -6   -0.31    0.55
   2  -8   6   -0.40    0.63
  -3   8  -6    7.95    1.01
   3  -8   6    9.51    1.12
  -4   8  -6    2.19    0.75
   4  -8   6    1.74    0.73
   4  -8   6    0.51    0.65
   5  -8   6    0.37    0.74
   5  -8   6    0.21    0.67
   6  -8   6   11.42    1.79
   6  -8   6   10.16    1.64
   7  -8   6    8.30    1.44
   7  -8   6    6.17    0.94
   8  -8   6    1.06    1.25
   9  -8   6   -0.77    1.19
  10  -8   6    1.59    1.43
  11  -8   6    5.35    1.61
  12  -8   6    0.32    1.41
  13  -8   6    2.80    1.70
  14  -8   6    0.40    1.69
  15  -8   6    0.90    1.91
  16  -8   6   -0.88    2.06
  14   7  -6   -1.97    1.26
 -14  -7   6   -2.52    1.91
  13   7  -6   -0.63    1.22
 -13  -7   6   -2.54    1.65
  12   7  -6    1.37    1.19
 -12  -7   6    2.12    1.51
  11   7  -6    4.70    1.63
  11   7  -6    3.14    1.15
 -11  -7   6    2.94    1.64
  10   7  -6    5.57    1.45
  10   7  -6    3.24    1.08
 -10  -7   6    3.74    1.53
   9   7  -6   -0.43    1.23
   9   7  -6    0.80    0.81
  -9  -7   6    1.39    1.25
   8   7  -6    0.23    1.22
   8   7  -6    0.60    0.84
  -8  -7   6    2.12    1.22
   7   7  -6    0.28    0.83
   7   7  -6   -1.17    1.02
  -7  -7   6    0.02    1.05
   6   7  -6    0.31    0.71
   6   7  -6    1.97    0.99
  -6  -7   6    2.09    1.04
   5   7  -6    5.72    1.00
  -5  -7   6    3.30    1.05
   4   7  -6   11.59    1.26
   4   7  -6   10.48    1.28
  -4  -7   6    9.75    1.33
   3   7  -6    0.53    0.43
   3   7  -6    0.13    0.69
  -3  -7   6    0.42    0.75
   2   7  -6   -0.16    0.38
   2   7  -6    0.18    0.63
  -2  -7   6    0.57    0.77
   1   7  -6   21.33    1.38
   1   7  -6   20.53    1.33
  -1  -7   6   19.30    1.40
   0   7  -6    8.98    1.07
   0   7  -6    9.10    1.17
   0  -7   6    9.92    1.11
  -1   7  -6    0.80    0.49
  -1   7  -6    0.96    0.61
   1  -7   6    0.69    0.64
  -2   7  -6    5.20    0.70
  -2   7  -6    6.48    0.89
   2  -7   6    6.15    0.90
  -3   7  -6    6.18    0.90
   3  -7   6    6.06    0.90
   3  -7   6    3.79    0.65
  -4   7  -6   -0.09    0.59
   4  -7   6    0.11    0.58
   4  -7   6    0.55    0.58
   5  -7   6    7.13    1.13
   5  -7   6    4.83    0.73
   6  -7   6    2.66    0.79
   7  -7   6    0.55    1.07
   8  -7   6    6.19    1.51
   9  -7   6    2.05    1.35
  10  -7   6    1.87    1.34
  11  -7   6    1.48    1.41
  12  -7   6    1.94    1.52
  13  -7   6    0.48    1.55
  14  -7   6    1.97    1.64
  15  -7   6    2.97    1.83
  16  -7   6    1.33    2.16
  16   6  -6    0.68    1.82
  15   6  -6   -1.82    1.33
 -15  -6   6   -2.45    1.88
  14   6  -6   -0.05    1.22
 -14  -6   6   -0.66    1.77
  13   6  -6   -0.66    1.03
 -13  -6   6   -1.54    1.54
  12   6  -6    2.05    1.03
 -12  -6   6    1.67    1.40
  11   6  -6    1.58    1.00
  10   6  -6    0.29    0.88
 -10  -6   6   -1.82    1.20
   9   6  -6    5.23    1.29
   9   6  -6    2.44    0.91
  -9  -6   6    3.61    1.26
   8   6  -6    9.81    1.25
  -8  -6   6    8.55    1.36
   7   6  -6    0.02    0.70
   7   6  -6   -0.64    0.90
  -7  -6   6   -0.96    1.08
  -7  -6   6    0.57    0.95
   6   6  -6    2.94    0.86
  -6  -6   6    2.72    1.03
  -6  -6   6    3.75    1.00
   5   6  -6    3.27    0.77
   5   6  -6    2.36    0.63
  -5  -6   6    2.01    0.91
  -5  -6   6    2.94    0.98
   4   6  -6    0.88    0.62
   4   6  -6    0.59    0.50
  -4  -6   6    1.25    0.74
  -4  -6   6    2.77    0.88
  -3  -6   6    2.61    0.77
  -3  -6   6    2.89    0.70
   2   6  -6    5.98    0.91
   2   6  -6    4.01    0.62
  -2  -6   6    5.45    0.88
  -2  -6   6    5.57    0.82
   1   6  -6   29.08    1.46
   1   6  -6   30.70    1.56
  -1  -6   6   29.08    1.51
   0   6  -6    2.21    0.64
   0   6  -6    1.17    0.47
   0  -6   6    1.68    0.65
  -1   6  -6    2.41    0.61
   1  -6   6    2.67    0.70
  -2   6  -6   -0.03    0.41
   2  -6   6    0.19    0.56
   2  -6   6    0.45    0.45
  -3   6  -6    4.99    0.82
   3  -6   6    4.62    0.84
   4  -6   6    0.79    0.67
   4  -6   6   -0.15    0.53
   5  -6   6    6.80    0.95
   5  -6   6    5.09    0.79
   6  -6   6    2.06    0.86
   8  -6   6    0.85    1.21
   9  -6   6   -0.14    1.24
  10  -6   6    1.28    1.31
  11  -6   6    5.49    1.55
  12  -6   6    2.59    1.48
  13  -6   6   -0.48    1.38
  14  -6   6    4.83    1.78
  15  -6   6    0.19    1.73
  16  -6   6    0.62    2.10
  17  -6   6   -0.36    2.41
  16   5  -6   -2.09    1.47
 -16  -5   6   -4.28    2.02
  15   5  -6   -1.27    1.28
 -15  -5   6   -1.16    1.83
  14   5  -6   -1.69    1.08
 -14  -5   6   -1.07    1.66
  13   5  -6    1.10    1.04
 -13  -5   6    1.96    1.59
  12   5  -6   -0.42    0.94
 -12  -5   6    1.94    1.40
  11   5  -6    0.46    0.87
  10   5  -6    1.17    0.88
 -10  -5   6    1.14    1.25
   9   5  -6    0.05    0.80
  -9  -5   6   -1.04    1.00
   8   5  -6    3.41    0.90
  -8  -5   6    5.19    1.13
  -7  -5   6   -0.99    0.82
   6   5  -6   17.50    1.61
  -6  -5   6   16.00    1.39
   5   5  -6   15.22    1.04
   5   5  -6   14.27    1.38
  -5  -5   6   13.00    1.28
  -5  -5   6   13.33    1.20
   4   5  -6    0.55    0.55
   4   5  -6   -0.05    0.39
  -4  -5   6    1.00    0.66
   3   5  -6    9.38    0.94
   3   5  -6   11.27    1.13
  -3  -5   6   12.27    1.08
  -3  -5   6   11.13    0.97
   2   5  -6   20.89    1.27
   2   5  -6   18.63    1.10
  -2  -5   6   17.84    1.16
  -2  -5   6   18.07    1.15
   1   5  -6    0.43    0.34
   1   5  -6    0.20    0.50
  -1  -5   6    0.46    0.55
  -1  -5   6    0.29    0.50
   0   5  -6   13.49    0.99
   0   5  -6   11.45    0.91
   0  -5   6   13.87    1.02
   0  -5   6   13.53    1.10
  -1   5  -6    1.14    0.41
  -1   5  -6    1.94    0.51
   1  -5   6    0.83    0.38
   1  -5   6    1.91    0.64
   2  -5   6   11.60    1.12
   2  -5   6   12.73    1.08
   3  -5   6    0.94    0.49
   3  -5   6    1.26    0.65
   4  -5   6    2.67    0.81
   5  -5   6    1.04    0.70
   6  -5   6    1.34    0.66
   7  -5   6   28.12    1.72
   8  -5   6    3.52    1.23
   9  -5   6    2.32    1.28
  10  -5   6    7.12    1.52
  11  -5   6    5.49    1.50
  12  -5   6    2.28    1.49
  13  -5   6    2.54    1.53
  14  -5   6    1.28    1.61
  15  -5   6    0.20    1.86
  16  -5   6   -0.36    2.07
  17  -5   6    2.99    2.44
  17   4  -6   -2.17    1.53
 -17  -4   6   -0.91    2.17
  16   4  -6   -0.41    1.42
 -16  -4   6   -2.98    1.98
  15   4  -6   -0.15    1.21
 -15  -4   6    2.70    1.89
  14   4  -6   -1.41    1.08
 -14  -4   6   -1.61    1.54
  13   4  -6   -0.40    1.03
 -13  -4   6    1.67    1.43
  12   4  -6    0.53    0.92
 -12  -4   6    0.13    1.27
  11   4  -6    0.95    0.91
  10   4  -6    2.00    0.87
 -10  -4   6    3.55    1.23
   9   4  -6    0.25    0.74
  -9  -4   6    0.22    0.98
   8   4  -6    0.36    0.68
  -8  -4   6   -0.16    0.91
   7   4  -6    2.34    0.64
  -7  -4   6    2.93    0.89
   6   4  -6   35.40    1.93
  -6  -4   6   35.52    1.74
   5   4  -6    3.23    0.63
  -5  -4   6    3.72    0.84
   4   4  -6    4.13    0.61
   3   4  -6   34.10    1.37
   3   4  -6   37.18    1.72
  -3  -4   6   33.33    1.42
  -3  -4   6   36.88    1.51
   2   4  -6    0.57    0.44
   2   4  -6    0.68    0.38
  -2  -4   6    0.71    0.46
  -2  -4   6    0.82    0.48
   1   4  -6    0.50    0.35
   1   4  -6    0.68    0.44
  -1  -4   6   -0.06    0.54
  -1  -4   6    0.86    0.48
   0   4  -6    0.17    0.41
   0   4  -6    0.08    0.33
   0  -4   6    0.30    0.49
   0  -4   6    0.57    0.59
   0  -4   6   -0.32    0.25
   1  -4   6    3.01    0.41
   1  -4   6    4.69    0.81
   1  -4   6    4.12    0.71
   2  -4   6    2.48    0.72
   2  -4   6    1.17    0.40
   3  -4   6    8.71    1.08
   4  -4   6   16.99    1.25
   5  -4   6    6.01    0.92
   6  -4   6   15.42    1.18
   7  -4   6   19.59    1.44
   9  -4   6    0.90    1.17
  10  -4   6    0.91    1.22
  11  -4   6    0.95    1.26
  12  -4   6    1.73    1.43
  13  -4   6    1.31    1.55
  14  -4   6    1.13    1.64
  15  -4   6    1.55    1.90
  16  -4   6    0.65    2.21
  17  -4   6    1.03    2.34
  17   3  -6   -1.10    1.50
 -17  -3   6   -2.35    2.11
  16   3  -6    0.84    1.38
 -16  -3   6   -3.63    1.86
  15   3  -6   -0.30    1.13
 -15  -3   6    1.21    1.73
  14   3  -6   -0.54    1.08
 -14  -3   6   -1.56    1.54
  13   3  -6    0.29    0.99
 -13  -3   6    1.82    1.43
  12   3  -6    0.29    0.87
 -12  -3   6    2.12    1.24
  11   3  -6    5.95    1.10
  10   3  -6   21.02    2.09
 -10  -3   6   18.57    1.84
   9   3  -6    4.16    0.93
   8   3  -6    1.77    0.63
  -8  -3   6    4.16    0.97
   7   3  -6    6.94    1.14
  -7  -3   6    7.43    1.02
   6   3  -6    0.27    0.42
  -6  -3   6   -0.32    0.60
   5   3  -6    1.92    0.59
   4   3  -6   39.47    1.79
  -4  -3   6   36.98    1.56
   3   3  -6   36.43    1.68
   3   3  -6   32.74    1.29
   3   3  -6   38.70    1.47
  -3  -3   6   36.63    1.50
   2   3  -6    2.75    0.48
   2   3  -6    2.53    0.45
  -2  -3   6    3.91    0.64
   1   3  -6    1.67    0.46
   1   3  -6    1.27    0.39
  -1  -3   6    1.15    0.61
  -1  -3   6    1.46    0.30
  -1  -3   6    2.32    0.49
   0   3  -6   17.20    1.07
   0  -3   6   18.22    0.99
   0  -3   6   18.16    1.24
   0  -3   6   17.50    0.98
  -1   3  -6   36.01    1.60
   1  -3   6   38.14    1.51
   1  -3   6   36.14    1.68
   1  -3   6   37.44    1.48
   2  -3   6   32.43    1.58
   3  -3   6    1.11    0.59
   4  -3   6    0.01    0.51
   5  -3   6    2.77    0.58
   6  -3   6   20.94    1.29
   7  -3   6   -0.01    0.66
   8  -3   6    0.48    0.86
   9  -3   6    4.49    1.29
  10  -3   6    1.11    1.25
  11  -3   6    0.47    1.17
  12  -3   6    4.02    1.52
  13  -3   6    0.68    1.50
  14  -3   6    1.03    1.64
  15  -3   6    2.74    1.98
  16  -3   6    2.03    2.12
 -18  -2   6   -0.10    2.20
  17   2  -6    0.81    1.50
 -17  -2   6   -1.61    1.94
  16   2  -6   -2.14    1.18
 -16  -2   6   -3.08    1.68
  15   2  -6    0.41    1.23
 -15  -2   6   -0.34    1.61
  14   2  -6    0.04    0.96
 -14  -2   6   -0.55    1.41
  13   2  -6    0.69    1.07
 -13  -2   6    2.65    1.39
  12   2  -6    3.67    1.00
 -12  -2   6    5.67    1.42
  11   2  -6   19.26    2.20
 -11  -2   6   22.27    2.01
  10   2  -6   27.24    2.23
 -10  -2   6   28.95    1.98
   9   2  -6    0.33    0.56
  -9  -2   6   -0.04    0.84
   8   2  -6    4.81    0.70
  -8  -2   6    6.84    1.13
   7   2  -6   16.68    1.24
  -7  -2   6   18.82    1.23
   6   2  -6    0.06    0.40
  -6  -2   6   -0.16    0.49
   5   2  -6    1.08    0.45
  -5  -2   6    2.49    0.62
   4   2  -6    0.43    0.37
  -4  -2   6   -0.70    0.52
   3   2  -6    0.60    0.40
   3   2  -6   -0.51    0.36
  -3  -2   6   -0.18    0.46
   2   2  -6    0.50    0.35
   2   2  -6    0.50    0.43
  -2  -2   6    0.68    0.38
  -2  -2   6    0.48    0.51
  -2  -2   6    0.62    0.30
   1   2  -6   63.60    2.19
  -1  -2   6   62.08    2.22
  -1  -2   6   62.05    2.21
   0   2  -6   -0.33    0.42
   0  -2   6    0.38    0.31
   0  -2   6    0.56    0.57
  -1   2  -6    1.02    0.50
   1  -2   6    1.38    0.60
  -2   2  -6    1.68    0.45
   2  -2   6    2.16    0.62
   3  -2   6    3.34    0.65
   4  -2   6    0.91    0.51
   5  -2   6   28.72    1.40
   6  -2   6    1.59    0.66
   7  -2   6    0.21    0.74
   8  -2   6   10.00    1.34
   9  -2   6    6.04    1.34
  10  -2   6    2.52    1.26
  11  -2   6    2.90    1.33
  12  -2   6    3.86    1.48
  13  -2   6    3.36    1.65
  14  -2   6    2.20    1.79
  15  -2   6    8.51    2.27
  16  -2   6    2.59    2.18
  16  -2   6    2.09    2.42
  18   1  -6   -0.44    1.58
 -18  -1   6    1.75    2.26
  17   1  -6   -0.25    1.43
 -17  -1   6   -2.38    1.84
  16   1  -6   -0.08    1.23
 -16  -1   6   -0.67    1.73
  15   1  -6    1.94    1.26
 -15  -1   6    3.98    1.68
  14   1  -6    1.49    1.11
 -14  -1   6    2.27    1.49
  13   1  -6    0.12    0.89
 -13  -1   6    0.80    1.25
  12   1  -6    2.05    0.88
 -12  -1   6    2.23    1.24
  11   1  -6    5.39    1.04
 -11  -1   6    7.01    1.32
  10   1  -6    0.61    0.73
 -10  -1   6    0.47    0.93
   9   1  -6   14.55    1.55
  -9  -1   6   16.87    1.45
   8   1  -6   16.13    1.29
  -8  -1   6   15.46    1.18
   7   1  -6    6.36    0.95
  -7  -1   6    7.74    0.90
   6   1  -6   18.71    1.18
  -6  -1   6   17.22    1.11
   5   1  -6   30.30    1.45
  -5  -1   6   28.72    1.39
   4   1  -6   26.96    1.37
  -4  -1   6   25.74    1.31
   3   1  -6    7.39    0.90
   3   1  -6    6.22    0.73
  -3  -1   6    6.07    0.81
  -3  -1   6    5.93    0.71
   2   1  -6    7.16    0.81
   2   1  -6    8.25    0.97
  -2  -1   6    7.96    0.86
  -2  -1   6    8.28    0.88
   1   1  -6    6.29    0.78
  -1  -1   6    6.50    0.87
  -1  -1   6    5.85    0.84
   0   1  -6    4.65    0.71
   0  -1   6    4.33    0.66
  -1   1  -6   13.40    0.84
   1  -1   6   14.15    1.01
  -2   1  -6    0.11    0.37
   2  -1   6    0.43    0.46
  -3   1  -6    0.44    0.52
   3  -1   6   -0.34    0.45
   4  -1   6    9.93    0.92
   5  -1   6   30.74    1.53
   6  -1   6    0.90    0.70
   7  -1   6   12.02    1.38
   8  -1   6   20.82    1.76
   9  -1   6   -0.57    1.14
  10  -1   6    4.59    1.43
  11  -1   6   -0.19    1.26
  12  -1   6    0.64    1.36
  13  -1   6    1.19    1.68
  13  -1   6    0.89    1.62
  14  -1   6    1.25    1.80
  14  -1   6    2.74    1.79
  15  -1   6    1.97    2.14
  15  -1   6   -0.39    1.94
  16  -1   6    2.27    2.31
  16  -1   6   -2.85    2.20
  18   0  -6   -2.90    1.39
 -18   0   6    2.80    2.11
  17   0  -6   -0.28    1.32
 -17   0   6   -3.22    1.74
  16   0  -6   -0.80    1.26
 -16   0   6   -0.84    1.68
  15   0  -6    2.22    1.20
 -15   0   6    3.49    1.70
  14   0  -6    0.30    0.96
 -14   0   6   -0.53    1.29
  13   0  -6    1.19    0.96
 -13   0   6    0.99    1.30
  12   0  -6    1.45    0.88
 -12   0   6    2.44    1.30
 -11   0   6    2.53    1.10
  10   0  -6    3.07    0.77
   9   0  -6   19.01    1.58
  -9   0   6   18.20    1.36
   8   0  -6   -0.35    0.44
  -8   0   6    1.17    0.57
   7   0  -6    0.17    0.33
  -7   0   6    0.15    0.45
   6   0  -6    1.22    0.38
  -6   0   6    0.28    0.50
   5   0  -6    6.98    0.85
  -5   0   6    5.60    0.86
   4   0  -6   11.96    0.93
  -4   0   6    9.92    0.94
  -4   0   6    9.72    0.75
   3   0  -6    8.03    0.76
   3   0  -6    7.15    0.89
  -3   0   6    7.62    0.62
  -3   0   6    6.04    0.88
  -3   0   6    7.59    0.70
   2   0  -6   65.45    2.19
  -2   0   6   62.75    2.20
  -2   0   6   63.68    2.11
  -2   0   6   64.68    2.25
   1   0  -6   18.50    0.98
  -1   0   6   18.73    1.02
  -1   0   6   18.44    1.02
   0   0  -6   88.70    2.79
   0   0   6   87.12    2.82
  -1   0  -6   11.02    0.80
   1   0   6   12.29    0.89
  -2   0  -6    1.40    0.56
   2   0   6    1.50    0.52
  -3   0  -6    0.08    0.57
   3   0   6    0.45    0.52
   4   0   6    7.64    0.98
   4   0   6    8.43    0.97
   5   0   6   -0.05    0.61
   6   0   6    3.49    0.86
   7   0   6   17.56    1.46
   8   0   6    0.86    0.92
   9   0   6    2.24    1.14
  10   0   6    1.05    1.27
  10   0   6    2.63    1.41
  11   0   6    4.52    1.38
  11   0   6    4.62    1.53
  12   0   6   -1.62    1.35
  12   0   6    0.68    1.60
  13   0   6    2.01    1.61
  13   0   6    1.85    1.65
  14   0   6    1.88    1.72
  14   0   6   -2.90    1.66
  15   0   6    2.13    2.10
  16   0   6   -1.71    2.39
 -18   1   6   -0.24    1.98
  17  -1  -6   -2.56    1.25
 -17   1   6   -2.95    1.59
 -16   1   6   -1.88    1.52
  15  -1  -6   -1.27    1.00
 -15   1   6   -0.41    1.41
  14  -1  -6    0.23    0.90
 -14   1   6    0.96    1.38
  13  -1  -6    2.51    0.93
 -13   1   6    4.41    1.34
 -12   1   6   11.12    1.82
  11  -1  -6    0.95    0.76
 -11   1   6   -0.26    1.01
  10  -1  -6    0.16    0.63
   9  -1  -6    0.44    0.54
  -9   1   6   -0.11    0.52
   8  -1  -6    3.41    0.60
  -8   1   6    4.41    0.74
   7  -1  -6   -0.09    0.40
  -7   1   6    0.55    0.50
   6  -1  -6   24.26    1.33
  -6   1   6   25.19    1.34
   5  -1  -6    0.43    0.32
  -5   1   6    0.77    0.54
  -5   1   6    0.07    0.33
   4  -1  -6    2.35    0.39
   4  -1  -6    3.63    0.57
  -4   1   6    2.40    0.37
   3  -1  -6    0.66    0.39
   3  -1  -6    2.01    0.48
  -3   1   6    0.60    0.47
  -3   1   6    0.66    0.26
  -3   1   6    0.67    0.53
   2  -1  -6    3.56    0.61
   2  -1  -6    2.75    0.44
  -2   1   6    2.46    0.50
  -2   1   6    1.65    0.48
   1  -1  -6   93.47    2.89
  -1   1   6   92.29    2.91
  -1   1   6   91.74    3.00
   0  -1  -6   27.10    1.20
   0   1   6   27.83    1.19
   0   1   6   28.77    1.35
  -1  -1  -6    2.73    0.57
   1   1   6    2.03    0.50
   1   1   6    2.02    0.61
  -2  -1  -6    1.82    0.58
   2   1   6    2.21    0.56
   2   1   6    1.45    0.66
  -3  -1  -6    7.93    0.94
   3   1   6    7.21    1.06
   3   1   6    6.02    0.87
   4   1   6    0.54    0.62
   4   1   6    1.39    0.64
   4   1   6    1.34    0.75
   5   1   6    0.42    0.75
   5   1   6    0.87    0.66
   5   1   6    0.45    0.67
   6   1   6   14.28    1.31
   6   1   6   17.07    1.29
   7   1   6    1.70    0.90
   8   1   6    0.42    0.94
   8   1   6   -0.54    1.20
   9   1   6    5.74    1.22
   9   1   6    2.62    1.54
  10   1   6   -0.11    1.29
  10   1   6    3.33    1.28
  11   1   6    3.97    1.53
  12   1   6    0.84    1.41
  12   1   6    4.00    1.71
  13   1   6    1.39    1.65
  13   1   6    3.40    1.90
  14   1   6   -1.01    1.76
  14   1   6   -2.75    1.68
  15   1   6   -3.39    1.92
  15   1   6   -0.76    2.25
  18  -2  -6    0.71    1.43
 -18   2   6    3.44    1.92
  17  -2  -6   -0.76    1.25
 -17   2   6   -1.97    1.68
  16  -2  -6   -1.03    1.11
 -16   2   6   -1.02    1.49
  15  -2  -6   -0.69    0.99
 -15   2   6   -0.96    1.35
  14  -2  -6    4.88    1.06
  13  -2  -6    7.12    1.07
 -13   2   6    9.24    1.49
  12  -2  -6    1.12    0.91
 -12   2   6   -0.69    1.05
  11  -2  -6    1.14    0.75
 -11   2   6    2.18    1.12
  10  -2  -6    4.13    0.78
 -10   2   6    6.39    1.18
   9  -2  -6    0.83    0.60
  -9   2   6    0.92    0.64
   8  -2  -6    3.05    0.57
  -8   2   6    4.30    0.80
   7  -2  -6    2.17    0.52
   7  -2  -6    3.64    0.80
  -7   2   6    3.20    0.57
  -7   2   6    2.86    0.70
   6  -2  -6   26.97    1.39
  -6   2   6   27.86    1.19
  -6   2   6   26.92    1.47
  -6   2   6   27.49    1.41
   5  -2  -6   -1.06    0.53
   5  -2  -6   -0.03    0.34
  -5   2   6   -0.06    0.47
  -5   2   6   -0.24    0.35
  -5   2   6   -0.08    0.49
   4  -2  -6   18.15    1.02
  -4   2   6   18.92    1.08
  -4   2   6   17.70    1.01
  -4   2   6   18.52    1.11
   3  -2  -6    4.36    0.60
   3  -2  -6    4.37    0.58
  -3   2   6    5.23    0.79
  -3   2   6    4.01    0.60
  -3   2   6    3.44    0.60
   2  -2  -6    5.17    0.63
   2  -2  -6    3.68    0.61
  -2   2   6    4.54    0.64
  -2   2   6    3.60    0.64
   1  -2  -6   98.71    3.00
   1  -2  -6   91.52    3.06
  -1   2   6   96.27    3.15
  -1   2   6   96.36    2.98
   0  -2  -6    2.79    0.45
   0  -2  -6    3.67    0.61
   0   2   6    3.37    0.59
   0   2   6    3.18    0.50
  -1  -2  -6   27.64    1.25
   1   2   6   28.12    1.45
   1   2   6   28.10    1.20
  -2  -2  -6   12.45    0.97
   2   2   6   11.61    0.91
   2   2   6   12.11    1.13
  -3  -2  -6    9.82    0.97
   3   2   6    8.07    0.95
   3   2   6    9.55    1.11
   4   2   6    1.91    0.68
   4   2   6    2.63    0.65
   4   2   6    2.56    0.73
   5   2   6    2.61    0.75
   5   2   6    2.78    0.79
   5   2   6    2.45    0.71
   6   2   6   16.14    1.32
   6   2   6   15.70    1.35
   7   2   6    1.50    0.92
   7   2   6    1.59    1.13
   8   2   6    0.69    1.26
   8   2   6    0.05    0.96
   9   2   6    1.60    1.37
   9   2   6    0.66    1.13
  10   2   6    1.49    1.37
  10   2   6    2.70    1.29
  11   2   6    4.19    1.46
  11   2   6    3.41    1.71
  12   2   6    2.31    1.66
  12   2   6    1.05    1.42
  13   2   6    0.81    1.81
  13   2   6   -0.20    1.57
  14   2   6    0.61    1.93
  14   2   6   -0.83    1.82
  15   2   6   -2.34    2.27
  19  -3  -6   -1.24    1.60
 -19   3   6   -0.07    2.05
  18  -3  -6   -0.31    1.35
 -18   3   6    1.22    1.93
  17  -3  -6   -0.95    1.20
 -17   3   6   -2.87    1.64
  16  -3  -6   -0.23    1.03
 -16   3   6   -1.24    1.48
  15  -3  -6    2.40    1.03
 -15   3   6    4.54    1.62
  14  -3  -6   12.01    2.02
 -14   3   6   13.35    2.01
  13  -3  -6    4.09    0.97
 -13   3   6    4.54    1.33
  12  -3  -6    1.54    0.81
 -12   3   6   -0.69    1.02
  11  -3  -6    0.34    0.70
 -11   3   6    0.09    0.96
  10  -3  -6    0.61    0.64
  10  -3  -6    0.68    1.13
 -10   3   6   -0.13    0.85
   9  -3  -6    1.06    1.00
   9  -3  -6    0.72    0.57
  -9   3   6    0.50    0.66
  -9   3   6    0.88    0.68
   8  -3  -6   10.17    1.23
   8  -3  -6   11.70    1.34
  -8   3   6    8.12    1.01
  -8   3   6   10.30    1.09
   7  -3  -6    1.73    0.85
   7  -3  -6    0.92    0.46
  -7   3   6    0.86    0.60
  -7   3   6    1.57    0.60
  -7   3   6   -0.07    0.51
   6  -3  -6   17.60    1.22
   6  -3  -6   20.58    1.27
  -6   3   6   18.43    1.15
  -6   3   6   16.80    1.24
  -6   3   6   18.22    1.15
   5  -3  -6   -1.29    0.60
  -5   3   6    1.15    0.49
  -5   3   6    1.53    0.65
  -5   3   6    0.37    0.39
   4  -3  -6    0.69    0.58
  -4   3   6    1.02    0.44
  -4   3   6    0.82    0.41
  -4   3   6    1.66    0.63
   3  -3  -6    0.51    0.49
   3  -3  -6    0.86    0.44
  -3   3   6    0.77    0.45
  -3   3   6    0.87    0.58
   2  -3  -6    6.17    0.78
   2  -3  -6    5.71    0.66
  -2   3   6    4.65    0.71
   1  -3  -6   18.96    1.06
  -1   3   6   17.84    1.15
  -1   3   6   19.39    0.98
   0  -3  -6    6.02    0.84
   0   3   6    5.91    0.71
   0   3   6    6.89    0.89
  -1  -3  -6   13.51    0.97
   1   3   6   12.05    1.15
   1   3   6   13.64    0.86
  -2  -3  -6   15.22    1.00
   2   3   6   13.09    0.93
   2   3   6   14.05    1.22
  -3  -3  -6    8.11    0.94
   3   3   6    9.18    1.14
   3   3   6    7.49    0.88
   4   3   6    2.48    0.75
   4   3   6    2.27    0.63
   4   3   6    2.32    0.69
   5   3   6    5.12    0.91
   5   3   6    5.48    0.83
   5   3   6    6.20    0.84
   6   3   6    5.47    0.94
   6   3   6    4.43    0.87
   7   3   6    0.71    1.22
   7   3   6    0.59    0.95
   8   3   6    5.93    1.44
   8   3   6    7.68    1.19
   9   3   6   -0.74    1.07
   9   3   6    1.07    1.34
  10   3   6    0.39    1.23
  10   3   6    1.75    1.48
  11   3   6    3.38    1.56
  11   3   6    3.04    1.57
  12   3   6    0.59    1.75
  12   3   6    0.79    1.73
  13   3   6   -0.36    1.63
  13   3   6   -3.19    1.78
  14   3   6   -3.79    2.11
  15   3   6   -3.70    2.49
  19  -4  -6    2.44    1.61
  18  -4  -6    0.55    1.37
 -18   4   6    0.92    1.78
  17  -4  -6    0.61    1.16
 -17   4   6   -3.05    1.47
  16  -4  -6   -0.05    1.07
 -16   4   6   -2.31    1.40
  15  -4  -6    4.88    1.11
 -15   4   6    7.06    1.60
  14  -4  -6   -0.13    0.95
 -14   4   6   -0.76    1.21
  13  -4  -6    0.38    0.84
 -13   4   6    0.76    1.22
  12  -4  -6    3.91    0.87
 -12   4   6    3.80    1.32
  11  -4  -6    2.04    0.78
 -11   4   6    1.92    1.14
  10  -4  -6    1.14    0.65
 -10   4   6    1.76    1.04
 -10   4   6    1.53    0.87
   9  -4  -6    8.41    1.30
  -9   4   6    8.17    1.24
   8  -4  -6   24.48    1.47
   8  -4  -6   26.42    1.74
  -8   4   6   24.49    1.70
  -8   4   6   23.53    1.47
  -8   4   6   26.48    1.46
   7  -4  -6    1.50    0.97
  -7   4   6   -0.90    0.63
  -7   4   6    0.86    0.61
  -7   4   6    0.06    0.50
   6  -4  -6    5.10    0.96
  -6   4   6    7.34    0.80
  -6   4   6    6.60    1.06
  -6   4   6    6.71    1.05
   5  -4  -6   31.18    1.60
  -5   4   6   34.14    1.66
  -5   4   6   34.91    1.50
  -5   4   6   33.81    1.58
   4  -4  -6   27.57    1.50
  -4   4   6   30.09    1.33
   3  -4  -6    0.21    0.69
  -3   4   6    0.52    0.47
  -3   4   6   -0.23    0.60
   2  -4  -6    7.64    0.93
  -2   4   6    7.96    1.08
  -2   4   6    8.24    0.83
   1  -4  -6   20.86    1.16
  -1   4   6   19.48    1.43
  -1   4   6   20.37    1.05
   0  -4  -6    1.45    0.59
   0   4   6    1.15    0.51
  -1  -4  -6    1.40    0.59
   1   4   6    0.82    0.68
   1   4   6    0.75    0.51
   2   4   6    9.82    0.79
   2   4   6   10.18    1.22
   3   4   6    5.09    0.89
   4   4   6    4.82    0.90
   6   4   6    0.02    1.08
   7   4   6    1.23    1.35
   8   4   6    0.93    1.00
   8   4   6   -0.36    1.35
   9   4   6    0.68    1.32
  10   4   6    2.98    1.34
  10   4   6    0.92    1.49
  11   4   6   -1.90    1.47
  11   4   6   -0.72    1.71
  12   4   6    0.00    1.84
  12   4   6   -1.70    1.76
  13   4   6    1.45    2.21
  14   4   6   -1.59    2.18
 -18   5   6   -0.58    1.66
 -17   5   6    0.71    1.64
  16  -5  -6   -1.77    0.99
 -16   5   6    0.34    1.48
  15  -5  -6    1.92    1.15
 -15   5   6    1.48    1.37
  14  -5  -6    0.05    0.93
 -14   5   6   -0.45    1.13
  13  -5  -6    1.14    0.88
 -13   5   6   -0.30    1.04
  12  -5  -6    0.53    0.78
 -12   5   6   -1.34    0.98
  11  -5  -6    0.32    0.71
 -11   5   6   -1.03    0.96
 -11   5   6   -1.77    0.95
  10  -5  -6   13.33    1.54
 -10   5   6   11.04    1.49
 -10   5   6   10.18    1.56
   9  -5  -6   13.25    1.48
  -9   5   6   12.30    1.65
  -9   5   6   13.13    1.66
  -9   5   6   12.55    1.48
  -8   5   6    3.44    0.73
  -8   5   6    4.35    0.92
  -8   5   6    2.64    0.62
  -7   5   6    2.71    0.86
  -7   5   6    1.30    0.52
  -7   5   6    1.30    0.50
  -6   5   6    1.83    0.50
  -6   5   6    2.06    0.83
  -6   5   6    2.19    0.59
  -5   5   6    4.72    0.96
  -5   5   6    3.10    0.60
  -5   5   6    2.78    0.56
  -4   5   6    6.02    0.93
  -4   5   6    7.94    0.88
   3  -5  -6   10.21    1.18
  -3   5   6   10.65    0.93
  -3   5   6    9.34    1.05
   2  -5  -6    3.99    0.77
  -2   5   6    3.47    0.61
   1  -5  -6   10.96    1.06
  -1   5   6    9.57    0.88
  -1   5   6   10.83    1.28
   0  -5  -6    5.53    0.74
   0   5   6    8.37    1.32
   0   5   6    4.76    0.75
   1   5   6   15.58    1.65
   2   5   6    1.39    0.85
   3   5   6    3.72    1.02
   5   5   6    0.21    1.20
   6   5   6    2.34    1.32
   7   5   6    4.95    1.55
   8   5   6    0.20    1.48
   9   5   6    2.00    1.59
  10   5   6   -2.28    1.62
  11   5   6   -1.98    1.70
  12   5   6    0.57    1.93
  13   5   6    0.95    2.14
  14   5   6   -2.10    2.46
 -19   6   6   -1.79    1.95
 -18   6   6    0.43    1.61
  17  -6  -6   -1.08    1.22
 -17   6   6    0.37    1.57
  16  -6  -6    3.85    1.31
 -16   6   6    1.89    1.61
  15  -6  -6    0.97    1.13
 -15   6   6   -0.74    1.27
  14  -6  -6    0.53    0.99
 -14   6   6   -0.72    1.18
  13  -6  -6    0.87    0.84
 -13   6   6   -0.01    1.09
  12  -6  -6    4.88    0.87
 -12   6   6    6.96    1.39
 -12   6   6    4.01    1.29
 -11   6   6    4.68    1.23
 -11   6   6    4.86    1.23
 -10   6   6    5.41    1.26
 -10   6   6    7.65    1.29
  -9   6   6    0.81    0.97
  -9   6   6    0.30    0.98
  -8   6   6    0.59    0.59
  -8   6   6   -0.28    0.93
  -7   6   6   -0.24    0.53
  -7   6   6   -0.29    0.83
  -7   6   6   -0.21    0.50
  -6   6   6    0.48    0.52
  -6   6   6    1.36    0.58
  -6   6   6    1.37    0.87
  -5   6   6   10.95    1.26
  -5   6   6    8.15    0.96
  -4   6   6    8.05    1.07
  -4   6   6    6.08    0.90
  -3   6   6    4.77    0.88
  -3   6   6    6.12    0.79
   2  -6  -6    5.74    0.93
  -2   6   6    4.83    0.73
   1  -6  -6   19.61    1.31
  -1   6   6   17.55    1.06
  -1   6   6   20.89    1.54
   0   6   6   11.49    1.41
   0   6   6    7.73    0.82
   1   6   6   -0.37    1.09
   2   6   6   11.48    1.72
   3   6   6    6.71    1.75
   4   6   6    0.76    1.25
   5   6   6    0.10    1.39
   6   6   6   11.79    2.10
   7   6   6    0.69    1.58
   8   6   6   -0.68    1.42
   9   6   6    5.05    1.78
  10   6   6   -0.92    1.96
  11   6   6   -2.15    2.06
  12   6   6    1.98    2.10
  13   6   6    3.08    2.55
 -18   7   6    0.19    1.66
 -17   7   6   -0.19    1.45
 -16   7   6   -0.87    1.26
 -15   7   6    0.18    1.27
 -14   7   6    5.17    1.53
 -13   7   6   -0.91    1.01
 -12   7   6   -0.89    1.01
 -12   7   6   -0.16    1.25
 -11   7   6    8.36    1.43
 -10   7   6    1.47    1.02
 -10   7   6    0.69    1.21
  -9   7   6    0.17    0.93
  -9   7   6   -0.07    1.04
  -8   7   6    1.35    1.08
  -7   7   6    5.91    1.16
  -7   7   6    7.34    1.05
  -6   7   6    1.54    0.60
  -6   7   6    1.28    0.99
  -6   7   6    1.83    0.72
  -5   7   6    6.28    1.05
  -5   7   6    4.25    0.82
  -4   7   6   12.21    1.18
  -4   7   6   12.19    1.26
  -3   7   6   -0.05    0.63
  -3   7   6    0.96    0.74
   2  -7  -6    1.44    0.87
  -2   7   6    1.86    0.65
  -2   7   6    2.79    0.86
   1  -7  -6    8.43    1.27
  -1   7   6    8.72    1.49
  -1   7   6    8.54    0.92
   0   7   6    4.45    1.14
   2   7   6   13.82    2.00
   3   7   6    4.86    1.99
   4   7   6    4.49    2.09
   5   7   6    7.24    2.53
   6   7   6    6.85    2.53
   7   7   6    3.43    1.93
   8   7   6    1.02    2.04
   9   7   6    3.17    2.24
  10   7   6    0.81    2.05
  11   7   6    0.08    2.33
  12   7   6    1.58    2.81
 -17   8   6    1.03    1.64
 -16   8   6    1.31    1.35
 -15   8   6    0.39    1.34
 -14   8   6   -0.84    1.15
 -13   8   6    0.53    1.17
 -13   8   6    3.93    1.42
 -12   8   6    2.74    1.17
 -12   8   6    5.42    1.43
 -11   8   6    1.93    1.14
 -10   8   6    0.76    1.09
  -9   8   6    4.64    1.36
  -9   8   6    2.94    1.11
  -8   8   6    8.83    1.42
  -8   8   6    5.02    1.13
  -7   8   6    3.97    1.29
  -7   8   6    2.26    0.88
  -6   8   6    2.54    1.08
  -6   8   6    3.27    0.97
  -5   8   6   12.86    1.35
  -5   8   6   13.56    1.50
  -4   8   6   14.52    1.31
  -4   8   6   13.82    1.50
  -3   8   6    2.60    0.99
  -3   8   6    3.49    0.84
   2  -8  -6    3.26    1.04
  -2   8   6    4.02    0.80
   1  -8  -6   -0.07    0.90
  -1   8   6    0.26    0.62
  -1   8   6    0.02    1.31
   0   8   6   -0.47    1.22
   1   8   6    5.04    1.43
   2   8   6   11.48    1.84
   3   8   6   -1.36    1.71
   4   8   6    2.29    2.03
   5   8   6    4.28    2.06
   6   8   6   -0.26    1.95
   7   8   6    2.99    2.31
   8   8   6    5.87    2.43
   9   8   6    2.84    2.52
  10   8   6    3.10    2.56
  11   8   6    3.03    2.74
  12   8   6    2.13    2.64
 -18   9   6    0.74    1.75
 -17   9   6   -0.55    1.59
 -16   9   6    1.16    1.48
 -15   9   6    4.36    1.53
 -14   9   6    0.76    1.25
 -14   9   6    3.20    1.68
 -13   9   6    4.71    1.55
 -13   9   6    2.33    1.43
 -12   9   6    3.79    1.56
 -12   9   6    1.63    1.17
 -11   9   6    0.81    1.20
 -11   9   6    2.85    1.48
 -10   9   6   -0.25    1.12
 -10   9   6   -1.14    1.22
  -9   9   6   -1.60    0.98
  -9   9   6   -0.61    1.34
  -8   9   6   -0.91    0.93
  -8   9   6    0.26    1.21
  -7   9   6   -0.65    1.20
  -6   9   6    1.66    0.97
  -6   9   6    1.72    1.19
  -5   9   6    1.84    1.27
  -5   9   6    2.98    0.98
  -4   9   6    1.33    0.86
  -4   9   6    0.12    1.32
  -3   9   6    2.44    1.36
  -3   9   6    4.56    0.94
   2  -9  -6   13.35    1.40
  -2   9   6   13.33    1.28
  -2   9   6   11.57    1.77
  -1   9   6    0.54    1.21
   0   9   6    6.53    1.94
   1   9   6    0.79    1.59
   2   9   6    1.52    1.60
   3   9   6    2.11    1.58
   4   9   6   -0.17    1.64
   5   9   6   -3.37    1.88
   6   9   6    0.36    2.02
   7   9   6   -0.18    2.35
   8   9   6    0.79    2.17
   9   9   6   -0.92    2.43
  10   9   6    0.50    2.40
  11   9   6   -3.30    2.61
 -18  10   6   -0.79    1.86
 -17  10   6   -0.66    1.64
 -16  10   6   -1.59    1.44
 -15  10   6   -0.20    1.87
 -15  10   6    2.33    1.45
 -14  10   6   -0.04    1.34
 -14  10   6    1.47    1.70
 -13  10   6    1.71    1.27
 -13  10   6    3.01    1.66
 -12  10   6    0.79    1.58
 -12  10   6    0.00    1.19
 -11  10   6    0.13    1.56
 -11  10   6    0.30    1.12
 -10  10   6   -1.12    1.11
 -10  10   6   -2.14    1.25
  -9  10   6   -0.48    1.43
  -9  10   6   -1.01    1.05
  -8  10   6   -0.36    1.26
  -7  10   6    1.10    1.13
  -7  10   6    2.16    1.39
  -6  10   6    1.07    1.32
  -6  10   6    2.42    1.08
  -5  10   6   -0.35    0.98
  -5  10   6   -0.09    1.28
  -4  10   6   10.55    1.27
  -4  10   6    8.47    1.68
  -3  10   6    4.87    1.01
  -3  10   6    3.32    1.44
   2 -10  -6    2.28    1.36
  -2  10   6    4.90    0.92
  -2  10   6    3.26    1.52
  -1  10   6   -0.65    1.68
   0  10   6   -0.67    1.50
   1  10   6    1.84    1.75
   2  10   6    1.07    1.78
   3  10   6   -1.28    1.61
   4  10   6   -0.22    1.84
   5  10   6    2.75    1.88
   6  10   6    3.40    2.04
   7  10   6    1.50    1.96
   8  10   6   -1.00    2.10
   9  10   6   -1.14    2.20
  10  10   6    1.14    2.57
 -16  11   6    1.37    1.69
 -15  11   6    1.80    1.88
 -15  11   6    1.66    1.54
 -14  11   6    3.82    1.86
 -14  11   6    1.62    1.49
 -13  11   6    0.88    1.31
 -13  11   6    2.18    1.81
 -12  11   6    0.84    1.29
 -12  11   6   -0.25    1.73
 -11  11   6   -0.57    1.55
 -11  11   6    0.59    1.19
 -10  11   6    0.00    1.11
 -10  11   6    1.78    1.48
  -9  11   6    0.92    1.19
  -9  11   6    1.92    1.48
  -8  11   6    1.18    1.43
  -8  11   6    0.68    1.15
  -7  11   6    5.93    1.31
  -7  11   6    5.96    1.70
  -6  11   6    0.72    1.13
  -6  11   6    1.28    1.35
  -5  11   6    1.60    1.14
  -5  11   6    0.41    1.46
  -4  11   6    3.84    1.14
  -4  11   6    2.79    1.42
  -3  11   6   -0.44    1.37
  -3  11   6    0.48    0.96
   2 -11  -6   -0.39    1.50
  -2  11   6   -0.72    1.33
  -2  11   6   -0.42    0.85
  -1  11   6    1.76    1.57
   0  11   6   -1.51    1.60
   1  11   6   -0.63    1.40
   2  11   6    2.31    1.70
   3  11   6    4.99    2.11
   4  11   6    0.69    2.14
   5  11   6    2.51    2.14
   6  11   6    2.97    2.09
   7  11   6   -1.62    2.21
   8  11   6   -1.92    2.35
   9  11   6   -2.91    2.54
 -17  12   6   -0.04    1.96
 -16  12   6   -0.52    1.58
 -16  12   6    0.47    2.26
 -15  12   6    3.38    2.21
 -15  12   6   -0.42    1.42
 -14  12   6    2.21    1.96
 -14  12   6    2.15    1.58
 -13  12   6   -0.50    1.93
 -13  12   6    0.71    1.45
 -12  12   6    0.94    1.87
 -12  12   6    0.77    1.47
 -11  12   6    1.71    1.80
 -11  12   6    2.37    1.39
 -10  12   6   -0.61    1.33
 -10  12   6   -1.23    1.62
  -9  12   6    2.02    1.41
  -9  12   6    3.29    1.74
  -8  12   6    2.91    1.36
  -8  12   6    4.25    1.59
  -7  12   6    2.59    1.23
  -7  12   6    2.34    1.53
  -6  12   6    0.56    1.40
  -5  12   6    1.43    1.29
  -5  12   6    1.72    1.24
  -4  12   6    2.84    1.22
  -4  12   6    0.12    1.35
  -3  12   6    0.84    1.39
  -3  12   6    0.81    1.04
  -2  12   6   -1.21    1.34
  -1  12   6    0.64    1.46
   0  12   6   -1.00    1.46
   1  12   6   -1.55    1.74
   2  12   6   -0.94    1.74
   3  12   6    0.57    1.83
   4  12   6   -0.65    1.86
   5  12   6   -1.92    1.94
   6  12   6   -0.77    2.37
   7  12   6   -0.52    2.57
   8  12   6   -0.30    2.78
 -16  13   6    0.96    2.49
 -15  13   6    0.31    2.22
 -15  13   6   -0.71    1.67
 -14  13   6   -0.67    1.52
 -14  13   6    1.15    2.26
 -13  13   6   -1.10    2.12
 -13  13   6    0.48    1.48
 -12  13   6    0.60    1.55
 -12  13   6    0.55    1.87
 -11  13   6   -0.74    1.83
 -11  13   6   -0.12    1.44
 -10  13   6    3.05    1.52
 -10  13   6    1.30    1.75
  -9  13   6    2.91    1.87
  -9  13   6    0.49    1.35
  -8  13   6   -0.11    1.39
  -8  13   6    0.50    1.69
  -7  13   6    1.14    1.48
  -7  13   6   -0.72    1.25
  -6  13   6    0.98    1.23
  -6  13   6   -1.87    1.36
  -5  13   6    2.70    1.46
  -5  13   6    0.43    1.26
  -4  13   6    1.57    1.49
  -4  13   6    0.42    1.23
  -3  13   6    0.42    1.54
  -2  13   6    1.45    1.53
  -1  13   6    0.64    1.55
   0  13   6    1.99    1.69
   1  13   6    2.03    1.72
   2  13   6    0.67    2.34
   3  13   6   -4.11    2.22
   4  13   6   -0.71    2.08
   5  13   6   -0.23    2.02
   6  13   6    0.04    2.14
 -15  14   6   -0.38    1.97
 -15  14   6    2.86    2.40
 -14  14   6   -2.40    1.80
 -14  14   6    4.92    2.69
 -13  14   6    4.37    2.37
 -13  14   6    0.64    1.85
 -12  14   6   -0.22    2.19
 -12  14   6    1.09    1.75
 -11  14   6    0.10    1.74
 -11  14   6   -2.41    2.02
 -10  14   6    2.00    1.96
 -10  14   6    0.72    1.58
  -9  14   6    2.16    1.74
  -9  14   6    1.21    1.65
  -8  14   6    0.99    1.76
  -8  14   6    1.00    1.49
  -7  14   6    2.09    1.73
  -7  14   6    0.12    1.34
  -6  14   6    0.15    1.33
  -6  14   6    0.74    1.55
  -5  14   6   -0.55    1.57
  -4  14   6   -0.86    1.56
  -3  14   6   -0.57    1.46
  -2  14   6   -0.32    1.49
  -1  14   6    2.61    1.73
   0  14   6    2.35    1.82
   1  14   6    1.99    1.73
   2  14   6    0.13    1.68
   3  14   6    0.16    1.92
   4  14   6    1.90    2.33
   5  14   6   -2.14    2.65
 -14  15   6    0.85    2.22
 -14  15   6   -0.41    2.66
 -13  15   6    0.67    1.89
 -13  15   6   -0.04    2.61
 -12  15   6    0.14    2.39
 -12  15   6    0.44    1.84
 -11  15   6    0.41    1.75
 -11  15   6   -0.21    2.11
 -10  15   6    0.88    1.90
 -10  15   6    0.22    1.60
  -9  15   6    1.34    1.94
  -9  15   6   -2.44    1.50
  -8  15   6    1.68    1.71
  -8  15   6    0.63    1.61
  -7  15   6    2.57    1.54
  -7  15   6    3.51    1.92
  -6  15   6    1.23    1.44
  -6  15   6    0.88    1.67
  -5  15   6   -0.05    1.72
  -5  15   6    0.29    1.19
   4 -15  -6    0.43    1.66
  -4  15   6    2.01    1.54
  -3  15   6   -0.14    1.04
  -3  15   6    2.03    1.75
  -2  15   6   -0.92    1.64
  -1  15   6   -0.12    1.65
   0  15   6    1.13    1.95
   1  15   6    2.73    1.91
   2  15   6    0.69    2.12
   3  15   6    1.50    1.64
   3  15   6    4.19    2.28
   4  15   6    0.39    1.46
 -13  16   6    0.38    2.64
 -13  16   6   -1.02    2.04
 -12  16   6    1.09    2.11
 -12  16   6    1.69    2.70
 -11  16   6   -3.01    2.26
 -11  16   6    2.22    2.00
 -10  16   6    1.48    2.32
 -10  16   6    0.60    1.96
  -9  16   6   -0.76    1.83
  -9  16   6    0.98    2.07
  -8  16   6    0.32    1.71
  -8  16   6    2.85    2.05
  -7  16   6    2.07    2.06
   6 -16  -6    1.47    1.62
  -6  16   6    1.31    1.81
  -5  16   6   -0.06    1.76
  -4  16   6    3.24    1.87
  -4  16   6    0.63    1.15
  -3  16   6    0.46    1.18
  -3  16   6    4.25    1.82
  -2  16   6    1.90    1.87
  -2  16   6    0.28    1.24
  -1  16   6   -1.07    1.32
  -1  16   6    2.00    2.06
   0  16   6   -0.08    1.91
   0  16   6   -1.63    1.43
   1  16   6   -0.60    1.50
   2  16   6    3.48    2.36
   2  16   6   -0.47    1.56
 -11  17   6   -0.01    2.17
 -10  17   6    1.16    2.11
  -9  17   6    1.29    2.29
   8 -17  -6   -0.02    1.98
  -8  17   6    5.02    2.20
   7 -17  -6    0.02    1.96
  -7  17   6    1.40    2.06
  -6  17   6    3.62    2.11
  -5  17   6    0.68    1.94
  -4  17   6    1.26    2.08
  -2  17   6    1.65    1.51
  -1  17   6    4.32    2.20
  -1  17   6    1.15    1.53
   0  17   6    0.37    2.15
  -7  18   6    2.74    2.02
  -6  18   6    3.10    2.04
  -5  18   6    3.20    2.25
   2 -19   7   -1.66    2.59
   3 -19   7   -2.48    2.44
  -4  19  -7    0.05    2.35
   4 -19   7   -2.19    2.50
  -5  19  -7    3.11    2.46
   5 -19   7    3.91    2.60
   2  18  -7    1.45    2.45
   1  18  -7   -0.74    2.24
   0  18  -7   -1.32    2.16
   0  18  -7   -2.54    1.70
  -1  18  -7   -1.57    1.64
  -1  18  -7    2.50    2.10
   1 -18   7    3.72    2.44
  -2  18  -7    3.64    2.26
   2 -18   7    2.52    2.32
  -3  18  -7    1.71    1.99
   3 -18   7   -0.04    2.29
  -4  18  -7   -1.12    1.78
   4 -18   7    0.30    2.21
  -5  18  -7    4.30    2.11
   5 -18   7   -0.48    2.15
  -6  18  -7    3.82    2.12
   6 -18   7   -3.90    2.07
   7 -18   7    1.55    2.25
  -8  18  -7   -1.05    1.81
   8 -18   7   -1.80    2.14
  -9  18  -7    2.42    2.05
   9 -18   7    3.05    2.25
   4  17  -7   -0.55    2.26
   4  17  -7   -1.77    1.86
   3  17  -7   -2.04    2.00
   3  17  -7    0.55    1.88
   2  17  -7   -3.01    1.96
   2  17  -7   -0.62    1.77
   1  17  -7    1.25    1.93
   1  17  -7   -2.89    1.71
  -1 -17   7    2.69    2.18
   0  17  -7    1.19    1.85
   0 -17   7    1.01    2.07
  -1  17  -7    0.32    1.83
  -1  17  -7   -1.53    1.50
   1 -17   7   -1.79    1.98
  -2  17  -7   -1.59    1.44
  -2  17  -7   -0.01    1.84
   2 -17   7   -1.43    1.95
  -3  17  -7    1.47    1.91
  -3  17  -7    1.15    1.41
   3 -17   7   -2.22    2.02
  -4  17  -7    2.12    1.72
   4 -17   7    1.45    1.98
  -5  17  -7    2.42    2.07
   5 -17   7   -1.04    1.92
  -6  17  -7    2.52    1.77
   6 -17   7    0.31    1.94
  -7  17  -7    1.46    1.71
   7 -17   7    0.04    1.91
  -8  17  -7    2.97    1.73
   8 -17   7    2.68    2.06
   9 -17   7    1.29    2.19
 -10  17  -7    0.41    2.02
  10 -17   7   -0.09    2.23
   6  16  -7   -1.59    1.71
   6  16  -7    1.16    2.44
   5  16  -7   -1.86    1.61
   5  16  -7    0.60    2.20
   4  16  -7    0.63    2.08
   4  16  -7   -1.17    1.56
   3  16  -7    0.39    1.91
   3  16  -7   -0.30    1.57
   2  16  -7   -1.96    1.72
   2  16  -7   -0.33    1.53
  -2 -16   7   -0.84    1.85
   1  16  -7   -2.66    1.50
   1  16  -7   -1.23    1.75
  -1 -16   7    3.81    1.92
   0  16  -7    0.66    1.65
   0  16  -7   -1.32    1.48
   0 -16   7    3.81    1.94
  -1  16  -7   -0.27    1.32
  -1  16  -7   -0.33    1.59
   1 -16   7    0.82    1.88
  -2  16  -7   -1.02    1.27
  -2  16  -7    0.85    1.64
   2 -16   7   -1.22    1.80
  -3  16  -7    0.90    1.31
  -3  16  -7    1.45    1.77
   3 -16   7   -0.53    1.71
  -4  16  -7    0.68    1.63
   4 -16   7    0.65    1.61
  -5  16  -7   -1.08    1.54
   5 -16   7   -2.36    1.59
  -6  16  -7    2.99    1.71
   6 -16   7    0.12    1.69
  -7  16  -7    1.38    1.43
   7 -16   7    2.61    1.83
  -8  16  -7    1.13    1.54
   8 -16   7    0.79    1.92
  -9  16  -7    0.43    1.82
   9 -16   7   -0.33    1.86
 -10  16  -7    0.10    1.64
  10 -16   7   -0.46    1.89
  11 -16   7   -0.87    2.07
  12 -16   7   -0.55    2.39
   8  15  -7    4.56    2.53
   7  15  -7    3.51    2.29
   7  15  -7   -1.87    1.68
   6  15  -7   -2.05    1.68
   6  15  -7    3.61    2.13
   5  15  -7   -0.13    1.53
   5  15  -7    0.53    1.92
   4  15  -7    2.06    1.81
   4  15  -7    0.81    1.53
   3  15  -7   -1.11    1.62
   3  15  -7   -0.98    1.37
   2  15  -7    1.11    1.30
   2  15  -7   -1.49    1.58
  -2 -15   7    1.29    1.67
   1  15  -7   -2.19    1.23
   1  15  -7   -1.65    1.60
  -1 -15   7    3.80    1.76
   0  15  -7   -1.41    1.27
   0  15  -7   -0.62    1.58
   0 -15   7    0.40    1.63
  -1  15  -7   -0.84    1.50
  -1  15  -7   -1.08    1.16
   1 -15   7   -1.42    1.57
  -2  15  -7    0.08    1.13
  -2  15  -7    0.68    1.56
   2 -15   7   -1.66    1.56
  -3  15  -7    2.71    1.54
   3 -15   7   -1.39    1.54
  -4  15  -7    1.28    1.51
   4 -15   7   -1.84    1.45
  -5  15  -7    1.57    1.62
   5 -15   7    0.83    1.56
  -6  15  -7    0.40    1.56
   6 -15   7   -0.40    1.54
  -7  15  -7   -0.01    1.58
   7 -15   7    2.32    1.67
  -8  15  -7    2.20    1.54
   8 -15   7    0.60    1.66
  -9  15  -7    2.47    1.76
   9 -15   7   -1.02    1.65
  10 -15   7   -1.60    1.78
  11 -15   7   -0.98    2.00
  12 -15   7    3.61    2.17
  13 -15   7   -0.26    2.13
   9  14  -7    0.69    2.43
   8  14  -7    3.77    2.23
   7  14  -7    2.26    1.91
   6  14  -7    1.59    1.81
   5  14  -7    3.94    1.87
   5  14  -7   -0.45    1.35
  -5 -14   7    2.97    1.77
   4  14  -7    1.16    1.30
   4  14  -7    3.09    1.72
  -4 -14   7    1.61    1.72
   3  14  -7    0.25    1.13
   3  14  -7    0.92    1.54
  -3 -14   7    0.96    1.73
   2  14  -7    0.28    1.20
   2  14  -7   -0.85    1.43
   1  14  -7   -0.17    1.22
   1  14  -7   -0.97    1.38
  -1 -14   7   -0.14    1.48
   0  14  -7   -0.19    1.18
   0  14  -7    1.59    1.48
   0 -14   7    0.67    1.57
  -1  14  -7    2.80    1.16
  -1  14  -7    4.01    1.50
   1 -14   7    2.90    1.59
  -2  14  -7    2.11    1.44
   2 -14   7    0.62    1.50
  -3  14  -7    0.45    1.22
  -3  14  -7    1.14    1.36
   3 -14   7    1.40    1.44
  -4  14  -7    0.38    1.43
   4 -14   7   -0.37    1.49
  -5  14  -7    2.79    1.44
   5 -14   7    3.12    1.48
  -6  14  -7    1.59    1.40
   6 -14   7    1.93    1.49
  -7  14  -7   -0.48    1.26
   7 -14   7    1.33    1.52
  -8  14  -7    1.35    1.62
   8 -14   7   -0.25    1.57
  -9  14  -7    0.26    1.44
   9 -14   7    0.18    1.58
  10 -14   7   -0.23    1.72
  11 -14   7    1.18    1.71
  12 -14   7   -1.10    1.65
  13 -14   7   -1.22    1.88
  14 -14   7   -1.40    1.99
   9  13  -7    2.09    2.17
   9  13  -7   -1.39    1.34
   8  13  -7   -0.99    1.46
   8  13  -7    2.19    1.99
   7  13  -7   -1.88    1.17
   7  13  -7    0.86    1.85
   6  13  -7    1.27    1.61
   6  13  -7   -1.15    1.22
  -6 -13   7    0.20    1.71
   5  13  -7    0.10    1.14
   5  13  -7    3.80    1.58
  -5 -13   7   -0.91    1.63
   4  13  -7    0.88    1.47
   4  13  -7   -0.42    1.11
  -4 -13   7    1.69    1.64
   3  13  -7    0.96    1.36
   3  13  -7    1.33    1.13
  -3 -13   7    0.75    1.51
   2  13  -7    3.63    1.15
   2  13  -7    3.48    1.48
  -2 -13   7    3.81    1.67
   1  13  -7   -1.01    1.26
   1  13  -7   -0.20    1.06
   0  13  -7   -0.69    1.21
   0  13  -7    0.32    1.02
   0 -13   7   -1.52    1.33
  -1  13  -7    9.34    1.57
   1 -13   7   10.29    1.73
  -2  13  -7    5.27    1.20
  -2  13  -7    5.21    1.57
   2 -13   7    4.40    1.45
  -3  13  -7    0.18    1.07
  -3  13  -7    0.00    1.23
   3 -13   7   -1.20    1.28
  -4  13  -7   -0.56    1.25
   4 -13   7   -0.33    1.22
  -5  13  -7    1.17    1.23
   5 -13   7    1.38    1.29
  -6  13  -7   -0.81    1.02
   6 -13   7    2.06    1.42
  -7  13  -7    2.10    1.33
   7 -13   7    0.57    1.42
  -8  13  -7    0.81    1.51
   8 -13   7    0.36    1.50
   9 -13   7    0.48    1.43
  10 -13   7    0.28    1.66
  11 -13   7   -0.25    1.68
  12 -13   7   -1.45    1.60
  13 -13   7   -1.56    1.92
  10  12  -7    0.47    1.50
  10  12  -7    4.21    2.12
   9  12  -7   -1.97    1.15
   9  12  -7    4.35    1.86
   8  12  -7    0.52    1.73
  -8 -12   7   -0.87    1.80
   7  12  -7   -0.86    1.10
   7  12  -7    0.95    1.59
  -7 -12   7   -0.51    1.67
   6  12  -7    3.23    1.23
   6  12  -7    6.81    1.71
  -6 -12   7    6.90    1.76
   5  12  -7    0.02    1.07
   5  12  -7    2.67    1.43
  -5 -12   7    1.72    1.48
   4  12  -7    0.36    1.33
   4  12  -7    0.05    1.02
  -4 -12   7   -0.28    1.38
   3  12  -7    2.69    1.15
   3  12  -7    4.77    1.46
  -3 -12   7    7.13    1.56
   2  12  -7    1.04    0.91
   2  12  -7    0.89    1.24
  -2 -12   7   -0.64    1.35
   1  12  -7   -2.02    1.18
   1  12  -7   -0.71    0.93
  -1 -12   7   -0.26    1.36
   0  12  -7   -0.18    1.21
   0  12  -7    1.49    1.04
  -1  12  -7    4.86    1.13
  -1  12  -7    4.35    1.46
   1 -12   7    3.05    1.39
  -2  12  -7   -0.27    1.19
  -2  12  -7    0.45    0.97
   2 -12   7    0.24    1.31
  -3  12  -7    0.72    1.19
  -3  12  -7   -0.38    0.97
   3 -12   7    0.03    1.32
  -4  12  -7   -0.47    1.09
   4 -12   7    0.97    1.28
  -5  12  -7    0.90    1.12
   5 -12   7    1.39    1.21
  -6  12  -7   -1.09    1.09
   6 -12   7    0.37    1.24
  -7  12  -7    1.21    1.23
   7 -12   7    0.38    1.24
  -8  12  -7    0.10    1.24
   8 -12   7    1.11    1.35
   9 -12   7   -0.20    1.30
  10 -12   7   -1.55    1.35
  12 -12   7   -1.79    1.56
  13 -12   7   -1.48    1.80
  14 -12   7   -1.27    1.81
  15 -12   7   -3.23    1.94
  12  11  -7    0.99    1.64
  11  11  -7   -0.38    1.44
  10  11  -7    0.76    1.33
  10  11  -7    4.93    1.86
   9  11  -7    0.55    1.66
   9  11  -7   -0.44    1.23
  -9 -11   7   -0.89    1.69
   8  11  -7    3.72    1.67
   8  11  -7    0.72    1.32
  -8 -11   7    2.07    1.60
   7  11  -7    0.47    1.02
  -7 -11   7    0.43    1.59
   6  11  -7   14.92    2.41
  -6 -11   7   18.10    2.26
   5  11  -7    0.76    0.95
  -5 -11   7    2.42    1.34
   4  11  -7    4.58    1.21
  -4 -11   7    6.53    1.50
   3  11  -7    1.56    0.96
  -3 -11   7    4.29    1.35
   2  11  -7    1.53    0.90
  -2 -11   7    0.27    1.31
   1  11  -7   -1.21    1.10
   1  11  -7   -0.06    0.91
  -1 -11   7    0.26    1.31
   0  11  -7   -1.02    1.11
   0  11  -7    1.17    0.97
   0 -11   7   -0.04    1.26
  -1  11  -7    0.31    1.12
  -1  11  -7    0.48    0.90
  -2  11  -7    0.24    1.09
  -2  11  -7    0.49    0.90
   2 -11   7    0.78    1.23
  -3  11  -7    1.76    1.24
  -3  11  -7    0.20    0.94
   3 -11   7    1.78    1.26
  -4  11  -7    2.26    1.25
   4 -11   7    2.14    1.19
  -5  11  -7    4.56    1.27
   5 -11   7    5.93    1.41
  -6  11  -7   16.32    2.02
   6 -11   7   15.21    2.15
  -7  11  -7    1.22    1.30
   7 -11   7    0.15    1.26
   8 -11   7   -0.83    1.23
   9 -11   7    0.78    1.32
  10 -11   7   -1.23    1.46
  11 -11   7   -0.66    1.55
  12 -11   7   -0.45    1.59
  13 -11   7    2.36    1.86
  14 -11   7    0.24    2.00
  13  10  -7   -1.67    1.48
  12  10  -7   -1.09    1.45
  11  10  -7   -1.31    1.23
  11  10  -7    0.81    2.22
  10  10  -7    0.40    1.92
  10  10  -7   -0.33    1.19
 -10 -10   7   -1.12    1.83
   9  10  -7   -0.38    1.19
   9  10  -7   -0.25    1.68
  -9 -10   7   -0.33    1.59
   8  10  -7    3.14    1.28
   8  10  -7    6.99    1.70
  -8 -10   7    5.39    1.62
   7  10  -7    5.43    1.58
   7  10  -7    3.96    1.12
  -7 -10   7    6.53    1.57
   6  10  -7   -0.43    0.86
   6  10  -7   -0.07    1.27
  -6 -10   7    0.43    1.28
   5  10  -7    0.89    0.88
   5  10  -7    0.13    1.26
  -5 -10   7   -0.37    1.22
   4  10  -7    5.21    1.13
   4  10  -7    8.20    1.46
  -4 -10   7    6.56    1.38
   3  10  -7    1.39    1.16
   3  10  -7    0.61    0.93
  -3 -10   7   -0.17    1.17
   2  10  -7    3.57    0.92
   2  10  -7    5.19    1.25
  -2 -10   7    4.27    1.30
   1  10  -7    3.80    0.92
   1  10  -7    2.95    1.11
  -1 -10   7    4.25    1.31
   0  10  -7    1.20    0.79
   0  10  -7    1.10    1.00
   0 -10   7    0.76    1.17
  -1  10  -7   -0.79    0.73
   1 -10   7    1.62    1.13
  -2  10  -7    0.88    0.83
  -2  10  -7    0.71    1.08
   2 -10   7    2.91    1.11
  -3  10  -7    3.11    1.21
   3 -10   7    2.37    1.22
  -4  10  -7   -0.70    0.89
   4 -10   7    1.10    1.10
  -5  10  -7   14.17    1.86
   5 -10   7   13.90    1.96
  -6  10  -7    0.38    1.07
   6 -10   7    0.65    1.12
   7 -10   7   -0.57    1.08
   8 -10   7   -0.56    1.20
   9 -10   7   -1.36    1.32
  10 -10   7    0.04    1.38
  11 -10   7    3.27    1.61
  12 -10   7    3.88    1.81
  13 -10   7    0.12    1.67
  14 -10   7   -1.11    1.83
  15 -10   7   -1.82    1.94
  16 -10   7   -2.19    2.13
  14   9  -7   -2.14    1.49
  13   9  -7   -0.01    1.42
  12   9  -7   -0.52    1.40
 -12  -9   7    3.34    1.79
  11   9  -7   -0.69    1.95
  11   9  -7   -1.58    1.04
  10   9  -7   -0.06    1.05
  10   9  -7   -0.18    1.71
 -10  -9   7   -0.62    1.59
   9   9  -7    3.20    1.56
   9   9  -7    0.14    1.12
  -9  -9   7    3.38    1.55
   8   9  -7    0.36    0.99
   8   9  -7    1.74    1.41
  -8  -9   7    1.45    1.46
   7   9  -7    2.38    1.10
   7   9  -7    2.18    1.28
  -7  -9   7    4.23    1.38
   6   9  -7   -0.05    0.83
   6   9  -7   -1.49    1.12
  -6  -9   7   -0.89    1.16
   5   9  -7    6.28    1.30
   5   9  -7    4.23    1.05
  -5  -9   7    7.76    1.37
   4   9  -7    1.15    1.07
   4   9  -7    0.97    0.84
  -4  -9   7   -0.03    1.10
   3   9  -7    1.84    1.03
   3   9  -7    1.23    0.86
  -3  -9   7   -0.30    1.01
   2   9  -7   10.38    1.49
   2   9  -7    7.56    1.06
  -2  -9   7   10.58    1.74
   1   9  -7   13.55    1.83
   1   9  -7   11.36    1.49
  -1  -9   7   11.41    1.69
   0   9  -7   10.77    1.49
   0   9  -7   11.74    1.70
   0  -9   7   12.43    1.70
  -1   9  -7    3.70    0.78
  -1   9  -7    5.15    1.01
   1  -9   7    4.33    1.11
  -2   9  -7    0.39    0.74
  -2   9  -7    0.02    0.72
   2  -9   7    0.93    0.84
   3  -9   7   -0.82    0.79
  -4   9  -7    9.69    1.48
   4  -9   7    9.83    1.46
  -5   9  -7   10.36    1.57
   5  -9   7   10.61    1.49
   6  -9   7   -0.09    1.10
   7  -9   7   -1.02    1.02
   8  -9   7    7.72    1.65
   9  -9   7    1.84    1.35
  10  -9   7    0.34    1.35
  11  -9   7    6.03    1.69
  12  -9   7    0.36    1.65
  13  -9   7   -0.71    1.56
  14  -9   7    1.33    1.84
  15  -9   7    2.41    1.93
  15   8  -7   -0.29    1.62
  14   8  -7    0.21    1.55
  13   8  -7   -2.16    1.36
 -13  -8   7    2.31    1.85
  12   8  -7    0.36    1.17
 -12  -8   7   -0.10    1.70
  11   8  -7   -0.98    1.15
 -11  -8   7    1.77    1.49
  10   8  -7   -0.12    1.09
  10   8  -7   -0.71    1.45
 -10  -8   7    0.26    1.55
   9   8  -7   15.54    2.11
   9   8  -7   18.15    2.52
  -9  -8   7   17.41    2.30
   8   8  -7   11.05    1.47
   8   8  -7    7.21    1.33
  -8  -8   7    9.27    1.58
   7   8  -7    1.38    1.01
   7   8  -7   -0.32    1.12
  -7  -8   7    2.14    1.24
   6   8  -7    2.52    0.95
   6   8  -7    3.60    1.15
  -6  -8   7    5.22    1.24
   5   8  -7   21.88    1.76
   5   8  -7   23.38    2.13
  -5  -8   7   18.05    1.79
   4   8  -7    0.31    0.90
   4   8  -7    0.27    0.76
  -4  -8   7    0.91    1.03
   3   8  -7    3.01    0.64
   3   8  -7    4.76    0.99
  -3  -8   7    3.94    1.01
   2   8  -7   12.02    1.37
   2   8  -7   13.10    1.49
  -2  -8   7   13.33    1.55
   1   8  -7    0.07    0.79
   1   8  -7    0.64    0.59
  -1  -8   7    0.53    0.90
   0   8  -7    0.64    0.71
   0   8  -7    0.48    0.58
   0  -8   7   -0.19    0.84
  -1   8  -7   19.43    1.41
  -1   8  -7   19.67    1.60
   1  -8   7   20.24    1.48
  -2   8  -7    0.09    0.64
  -2   8  -7    0.75    0.61
   2  -8   7    0.49    0.68
   3  -8   7    3.74    0.85
  -4   8  -7   21.40    1.50
   4  -8   7   19.30    1.54
   5  -8   7    4.71    1.18
   6  -8   7    0.67    1.13
   7  -8   7   -0.12    1.10
   8  -8   7   -0.43    1.20
   9  -8   7   -0.16    1.29
  10  -8   7    0.52    1.29
  11  -8   7    0.31    1.47
  12  -8   7    0.29    1.55
  13  -8   7    2.90    1.77
  14  -8   7   -0.51    1.84
  15  -8   7   -0.05    1.87
  16  -8   7   -0.34    2.12
 -15  -7   7    0.98    2.27
  14   7  -7   -0.87    1.32
 -14  -7   7   -3.46    1.85
  13   7  -7   -0.91    1.19
 -13  -7   7    4.02    1.81
  12   7  -7    1.36    1.25
 -12  -7   7    3.32    1.62
  11   7  -7    0.14    1.05
 -11  -7   7    3.74    1.43
  10   7  -7    4.97    1.29
 -10  -7   7    7.19    1.72
   9   7  -7   21.25    2.45
  -9  -7   7   21.69    2.27
   8   7  -7    2.28    1.15
   8   7  -7    1.41    0.97
  -8  -7   7    3.32    1.29
   7   7  -7   -0.51    0.95
   7   7  -7    0.12    0.81
  -7  -7   7    0.94    1.17
   6   7  -7    6.32    1.06
  -6  -7   7    5.30    1.17
  -6  -7   7    5.92    1.37
   5   7  -7    0.76    0.86
   5   7  -7    1.31    0.79
  -5  -7   7    1.66    0.98
   4   7  -7    1.74    0.58
   4   7  -7    3.29    0.86
  -4  -7   7    3.24    0.98
   3   7  -7    6.47    0.93
   3   7  -7    6.30    1.04
  -3  -7   7    5.53    0.97
   2   7  -7    1.13    0.51
   2   7  -7    1.60    0.75
  -2  -7   7    0.79    0.82
   1   7  -7    4.46    0.69
   1   7  -7    5.16    0.84
  -1  -7   7    5.08    0.97
   0   7  -7    9.76    1.11
   0   7  -7    8.33    1.21
   0  -7   7    7.58    1.09
  -1   7  -7    3.74    0.71
  -1   7  -7    2.48    0.64
   1  -7   7    3.24    0.77
  -2   7  -7   -0.17    0.56
   2  -7   7   -0.04    0.57
  -3   7  -7   10.94    1.04
   3  -7   7    8.08    1.10
   4  -7   7    3.03    0.86
   5  -7   7    3.13    0.89
   6  -7   7    7.21    1.34
   7  -7   7    7.24    1.29
   8  -7   7    4.46    1.35
   9  -7   7    0.06    1.35
  10  -7   7    1.04    1.37
  11  -7   7    6.24    1.66
  12  -7   7    0.06    1.55
  13  -7   7    0.84    1.67
  14  -7   7    1.70    1.71
  15  -7   7    0.02    1.88
  16  -7   7   -0.88    2.21
 -16  -6   7   -3.45    2.20
  15   6  -7   -1.63    1.31
 -15  -6   7   -0.74    2.00
  14   6  -7   -0.17    1.34
 -14  -6   7   -0.76    1.79
  13   6  -7    0.13    1.17
 -13  -6   7    2.07    1.61
  12   6  -7    1.91    1.20
 -12  -6   7    4.08    1.55
  11   6  -7   -0.38    0.97
 -11  -6   7    0.54    1.27
  10   6  -7    5.09    1.11
   9   6  -7   13.22    2.24
  -9  -6   7   13.18    1.67
   8   6  -7    0.49    0.90
  -8  -6   7    2.21    1.22
   7   6  -7    1.00    0.77
  -7  -6   7    0.85    1.04
   6   6  -7   -0.06    0.71
   6   6  -7   -0.42    0.70
  -6  -6   7   -0.54    0.96
   5   6  -7    1.38    0.71
   5   6  -7    1.29    0.62
  -5  -6   7    0.46    0.83
  -5  -6   7   -1.83    0.98
   4   6  -7   17.64    1.20
   4   6  -7   16.27    1.39
  -4  -6   7   16.30    1.45
  -4  -6   7   18.30    1.39
   3   6  -7    1.96    0.69
   3   6  -7    1.36    0.49
  -3  -6   7    1.89    0.74
   2   6  -7    4.87    0.75
   2   6  -7    3.40    0.59
  -2  -6   7    3.94    0.76
  -2  -6   7    4.72    0.88
   1   6  -7   20.19    1.34
   1   6  -7   20.66    1.29
  -1  -6   7   20.35    1.31
   0   6  -7   45.67    1.88
   0   6  -7   44.69    1.96
   0  -6   7   44.58    1.96
  -1   6  -7    2.43    0.64
   1  -6   7    3.51    0.84
  -2   6  -7    0.35    0.50
   2  -6   7    0.62    0.61
   3  -6   7    0.44    0.63
   4  -6   7    0.42    0.69
   5  -6   7    3.34    0.83
   7  -6   7    0.26    1.15
   8  -6   7    3.28    1.32
   9  -6   7    5.34    1.46
  10  -6   7    1.55    1.44
  11  -6   7    0.80    1.38
  12  -6   7    6.30    1.81
  13  -6   7    0.33    1.57
  14  -6   7    0.70    1.77
  15  -6   7    2.50    2.03
  16  -6   7   -1.50    2.00
  16   5  -7   -1.96    1.38
 -16  -5   7   -3.58    2.00
  15   5  -7   -0.39    1.43
 -15  -5   7   -1.07    1.88
  14   5  -7   -0.86    1.20
 -14  -5   7   -1.78    1.63
  13   5  -7    0.16    1.11
 -13  -5   7    0.95    1.54
  12   5  -7    0.52    1.02
 -12  -5   7    4.60    1.46
 -11  -5   7    4.85    1.42
  10   5  -7    1.77    1.02
   9   5  -7   -0.32    0.82
  -9  -5   7    0.96    1.17
   8   5  -7    2.31    0.86
  -8  -5   7    3.30    1.20
   7   5  -7    2.87    0.78
  -7  -5   7    4.00    1.07
   6   5  -7    0.86    0.57
  -6  -5   7    1.20    0.88
   5   5  -7    2.68    0.65
  -5  -5   7    3.92    0.89
   4   5  -7   11.87    1.23
   4   5  -7   11.04    0.98
  -4  -5   7   10.16    1.15
  -4  -5   7   12.38    1.15
   3   5  -7    3.14    0.58
   3   5  -7    4.88    0.68
  -3  -5   7    5.71    0.97
  -3  -5   7    4.24    0.71
   2   5  -7    0.38    0.40
   2   5  -7    0.18    0.52
  -2  -5   7   -1.01    0.51
  -2  -5   7    0.82    0.61
   1   5  -7   44.60    1.82
   1   5  -7   47.80    1.94
  -1  -5   7   46.00    1.91
  -1  -5   7   44.34    1.87
   0   5  -7    1.51    0.47
   0   5  -7    2.95    0.64
   0  -5   7    2.85    0.76
   1  -5   7    4.18    0.83
   2  -5   7    0.75    0.66
   3  -5   7    0.77    0.71
   4  -5   7    8.37    1.14
   5  -5   7    8.93    1.11
   6  -5   7    1.72    0.73
   8  -5   7   12.90    1.68
   9  -5   7    0.15    1.17
  10  -5   7    0.26    1.26
  11  -5   7    5.55    1.56
  12  -5   7    3.90    1.61
  13  -5   7   -0.20    1.52
  14  -5   7    1.96    1.76
  15  -5   7    2.11    1.92
  16  -5   7   -1.95    2.11
  17   4  -7   -1.80    1.58
 -17  -4   7   -4.02    2.14
  16   4  -7   -2.07    1.48
 -16  -4   7   -1.56    1.99
  15   4  -7    0.55    1.22
 -15  -4   7    1.72    1.79
  14   4  -7    0.36    1.12
 -14  -4   7    2.04    1.69
  13   4  -7   -0.19    1.09
 -13  -4   7    0.53    1.52
  12   4  -7    0.08    0.95
 -12  -4   7    1.47    1.32
  11   4  -7    4.04    1.17
  10   4  -7    0.30    0.86
   9   4  -7    0.12    0.78
  -9  -4   7   -0.04    1.04
   8   4  -7    0.74    0.83
  -8  -4   7    2.21    1.04
   7   4  -7   -0.33    0.49
  -7  -4   7   -0.17    0.85
   6   4  -7    0.02    0.49
  -6  -4   7    0.05    0.76
   5   4  -7   25.99    1.61
  -5  -4   7   24.33    1.48
   4   4  -7    2.81    0.56
  -4  -4   7    5.12    0.83
   3   4  -7    3.95    0.64
   3   4  -7    4.20    0.70
  -3  -4   7    5.18    0.64
  -3  -4   7    4.49    0.65
   2   4  -7    7.33    1.00
  -2  -4   7    5.36    0.87
  -2  -4   7    6.41    0.85
  -1  -4   7    3.01    0.66
  -1  -4   7    2.81    0.67
   0  -4   7   -0.15    0.60
   0  -4   7    0.29    0.58
   1  -4   7   -0.46    0.61
   2  -4   7   24.38    1.45
   3  -4   7    0.30    0.62
   4  -4   7   13.49    1.20
   5  -4   7    6.76    0.94
   6  -4   7    0.26    0.59
   7  -4   7    3.27    0.82
   8  -4   7   14.14    1.83
   9  -4   7    0.66    1.11
  10  -4   7    3.08    1.39
  11  -4   7    4.82    1.50
  12  -4   7    4.51    1.60
  13  -4   7    0.86    1.54
  14  -4   7    0.86    1.70
  15  -4   7    0.34    1.86
  16  -4   7   -3.04    2.15
  17   3  -7   -1.79    1.38
 -17  -3   7   -3.87    2.09
  16   3  -7   -2.31    1.34
 -16  -3   7   -1.44    1.94
  15   3  -7    0.57    1.25
 -15  -3   7    2.47    1.81
  14   3  -7   -0.01    1.13
 -14  -3   7    0.49    1.54
  13   3  -7    0.13    1.01
 -13  -3   7    1.27    1.51
  12   3  -7    0.39    0.93
 -12  -3   7    2.39    1.24
  11   3  -7    3.00    1.06
 -11  -3   7    5.59    1.32
  10   3  -7    0.28    0.84
   9   3  -7    2.48    0.86
  -9  -3   7    4.92    1.15
   8   3  -7    3.45    0.64
  -8  -3   7    4.91    0.99
   7   3  -7    0.31    0.47
  -7  -3   7    1.01    0.74
   6   3  -7   13.16    1.23
  -6  -3   7   14.80    1.20
   5   3  -7   18.41    1.39
  -5  -3   7   19.25    1.20
   4   3  -7    0.26    0.42
  -4  -3   7    0.67    0.45
   3   3  -7   24.18    1.42
  -3  -3   7   22.86    1.24
   2   3  -7    7.88    1.00
  -2  -3   7    7.17    0.92
  -2  -3   7    8.78    0.79
   1   3  -7   -0.13    0.39
  -1  -3   7    0.36    0.47
  -1  -3   7    0.00    0.59
   0  -3   7    1.35    0.66
   0  -3   7    1.68    0.55
   1  -3   7    5.56    0.82
   1  -3   7    5.75    0.91
   2  -3   7    0.87    0.63
   3  -3   7    0.68    0.55
   4  -3   7   44.09    1.88
   5  -3   7    0.75    0.52
   6  -3   7   21.23    1.37
   7  -3   7    7.15    1.09
   9  -3   7    0.89    1.17
  10  -3   7    4.95    1.38
  11  -3   7    1.58    1.34
  12  -3   7   -1.27    1.30
  13  -3   7    0.40    1.54
  14  -3   7   -1.61    1.69
  15  -3   7   -2.64    1.92
  16  -3   7    7.82    2.58
 -18  -2   7   -3.09    2.24
  17   2  -7   -1.19    1.45
 -17  -2   7   -0.82    2.07
  16   2  -7   -1.29    1.20
 -16  -2   7   -1.65    1.82
  15   2  -7   -0.78    1.06
 -15  -2   7   -0.21    1.68
  14   2  -7    0.73    1.02
 -14  -2   7    0.77    1.44
  13   2  -7    1.05    0.94
 -13  -2   7    3.06    1.49
  12   2  -7    4.64    1.07
 -12  -2   7    8.22    1.48
  11   2  -7    0.17    0.79
 -11  -2   7    0.97    1.08
  10   2  -7    3.85    0.91
  -9  -2   7   17.12    1.54
   8   2  -7    0.61    0.47
  -8  -2   7    0.67    0.72
   7   2  -7   16.06    1.22
  -7  -2   7   16.16    1.24
   6   2  -7   14.40    1.18
  -6  -2   7   14.50    1.09
   5   2  -7    8.92    1.09
  -5  -2   7    7.56    0.94
   4   2  -7    0.74    0.40
  -4  -2   7    0.84    0.53
   3   2  -7    0.56    0.45
  -3  -2   7    0.32    0.50
   2   2  -7    0.58    0.41
  -2  -2   7    0.94    0.55
  -1  -2   7    0.92    0.62
   0  -2   7   17.10    1.17
   1  -2   7    8.81    1.02
   2  -2   7   16.67    1.13
   3  -2   7   28.58    1.43
   4  -2   7    6.18    0.86
   5  -2   7    3.86    0.75
   6  -2   7    6.85    1.14
   7  -2   7    1.63    0.84
   8  -2   7    1.56    1.00
   9  -2   7    4.80    1.34
  10  -2   7   -0.06    1.19
  11  -2   7    9.26    1.64
  12  -2   7   -0.40    1.43
  13  -2   7   -1.00    1.51
  14  -2   7   -3.04    1.68
  15  -2   7   -3.44    1.87
  15  -2   7    2.55    2.16
  16  -2   7   -1.62    2.15
  16  -2   7    1.09    2.33
  18   1  -7   -2.32    1.55
 -18  -1   7   -3.28    2.17
 -17  -1   7    2.23    2.01
  16   1  -7   -2.11    1.24
 -16  -1   7   -0.22    1.74
  15   1  -7   -0.55    1.15
 -15  -1   7    0.20    1.69
  14   1  -7    4.07    1.14
 -14  -1   7    9.33    1.84
  13   1  -7   -0.61    0.86
 -13  -1   7    1.13    1.35
  12   1  -7    0.41    0.90
 -12  -1   7    0.64    1.20
  11   1  -7    0.21    0.76
 -11  -1   7    0.96    1.12
   9   1  -7    0.81    0.62
  -9  -1   7    1.55    0.74
   8   1  -7    6.25    1.04
  -8  -1   7    7.04    0.94
   7   1  -7   10.84    1.08
  -7  -1   7   12.87    1.05
   6   1  -7    0.46    0.35
  -6  -1   7   -0.33    0.50
   5   1  -7    0.79    0.38
  -5  -1   7   -0.42    0.59
   4   1  -7    7.57    0.95
  -4  -1   7    6.86    0.96
   3   1  -7    7.05    0.96
  -3  -1   7   10.06    0.90
  -2  -1   7    1.61    0.58
   1   1  -7    4.54    0.68
  -1  -1   7    6.00    0.77
  -1  -1   7    3.89    0.52
   0   1  -7    7.33    0.71
   0  -1   7    7.71    0.93
  -1   1  -7   22.72    1.13
   1  -1   7   23.17    1.25
   2  -1   7   10.49    0.93
   3  -1   7    2.22    0.61
   4  -1   7   10.88    1.06
   5  -1   7   15.66    1.29
   6  -1   7    2.55    0.85
   7  -1   7    0.18    0.91
   8  -1   7    3.88    1.14
   9  -1   7   21.29    1.97
  10  -1   7   -1.00    1.10
  11  -1   7   -2.17    1.19
  12  -1   7    1.73    1.57
  12  -1   7   -1.93    1.29
  13  -1   7    3.61    1.90
  13  -1   7   -1.85    1.51
  14  -1   7    0.82    1.97
  14  -1   7   -1.34    1.76
  15  -1   7    0.07    2.07
  15  -1   7    0.12    2.01
  16  -1   7    4.53    2.30
  16  -1   7    0.93    2.31
  18   0  -7   -0.43    1.52
  17   0  -7    0.92    1.37
 -17   0   7    1.86    1.85
  16   0  -7   -1.32    1.24
 -16   0   7   -1.74    1.75
  15   0  -7   -0.18    1.06
 -15   0   7    1.27    1.57
  14   0  -7    5.15    1.22
  13   0  -7   -0.86    0.78
 -13   0   7    0.05    1.23
  12   0  -7    1.26    0.84
 -12   0   7    0.11    1.18
  11   0  -7    0.95    0.80
 -11   0   7    1.24    1.08
  10   0  -7    4.29    0.83
 -10   0   7    6.66    1.24
   9   0  -7    0.63    0.56
  -9   0   7    1.04    0.71
   8   0  -7   17.07    1.40
  -8   0   7   18.47    1.22
   7   0  -7    3.27    0.54
  -7   0   7    5.03    0.76
   6   0  -7   11.12    1.02
  -6   0   7    7.94    1.01
   5   0  -7   -0.03    0.32
  -5   0   7   -0.58    0.54
   4   0  -7    2.71    0.43
  -3   0   7    0.08    0.28
  -3   0   7   -0.51    0.50
  -3   0   7    0.63    0.42
   2   0  -7   -0.43    0.38
  -2   0   7    0.08    0.31
  -2   0   7    0.06    0.47
  -2   0   7    0.60    0.45
   1   0  -7    0.44    0.41
  -1   0   7   -0.46    0.44
  -1   0   7    0.35    0.43
   0   0  -7   45.70    1.69
   0   0   7   45.93    1.83
   0   0   7   45.94    1.75
  -1   0  -7   34.20    1.50
   1   0   7   35.58    1.47
  -2   0  -7   37.51    1.65
   2   0   7   39.42    1.63
   3   0   7   43.95    1.81
   4   0   7   -0.10    0.65
   5   0   7   14.03    1.25
   6   0   7    3.62    0.94
   7   0   7    2.60    0.99
   8   0   7   13.43    1.68
   9   0   7    1.61    1.19
   9   0   7    2.34    1.53
  10   0   7    1.50    1.28
  11   0   7   -1.20    1.21
  11   0   7    0.46    1.38
  12   0   7   -1.28    1.42
  12   0   7    0.38    1.66
  13   0   7   -1.09    1.51
  13   0   7    0.67    1.69
  14   0   7    4.74    2.02
  14   0   7    1.36    1.78
  15   0   7    1.08    2.20
  15   0   7    2.02    2.25
  18  -1  -7   -1.24    1.37
 -18   1   7   -1.03    2.00
  17  -1  -7   -0.13    1.28
 -17   1   7   -0.81    1.76
  16  -1  -7   -0.86    1.19
 -16   1   7   -1.85    1.65
  15  -1  -7    1.09    1.08
 -15   1   7    1.82    1.51
  14  -1  -7    1.48    0.97
 -14   1   7    2.01    1.39
  13  -1  -7    0.24    0.83
 -13   1   7    1.54    1.18
  12  -1  -7   -0.22    0.77
 -12   1   7   -0.54    1.08
  11  -1  -7   -0.02    0.69
 -11   1   7    1.06    1.01
  10  -1  -7    0.48    0.63
 -10   1   7    0.41    0.88
   9  -1  -7   10.98    1.48
  -9   1   7    9.69    1.13
   8  -1  -7    3.35    0.62
  -8   1   7    5.39    0.86
   7  -1  -7    3.03    0.56
  -7   1   7    4.24    0.73
   6  -1  -7    1.18    0.42
  -6   1   7    2.79    0.66
   5  -1  -7    1.86    0.41
  -5   1   7    3.07    0.70
   4  -1  -7    1.43    0.46
  -4   1   7    1.65    0.62
  -4   1   7    0.97    0.33
  -4   1   7    0.73    0.48
   3  -1  -7    3.14    0.60
  -3   1   7    2.18    0.36
  -3   1   7    3.59    0.63
  -3   1   7    2.18    0.56
   2  -1  -7   27.03    1.17
  -2   1   7   26.12    1.21
  -2   1   7   26.77    1.22
   1  -1  -7   14.14    0.91
  -1   1   7   14.71    0.98
  -1   1   7   13.55    0.90
   0  -1  -7  128.26    3.94
   0   1   7  127.58    4.12
   0   1   7  128.90    3.92
  -1  -1  -7   53.96    2.02
   1   1   7   56.08    1.98
   1   1   7   54.85    2.15
  -2  -1  -7    7.26    1.01
   2   1   7    7.29    1.05
   2   1   7    7.66    0.96
  -3  -1  -7   14.94    1.30
   3   1   7   13.73    1.27
   3   1   7   15.24    1.16
   4   1   7    2.58    0.72
   4   1   7    3.11    0.84
   5   1   7   13.05    1.31
   5   1   7   13.30    1.30
   6   1   7    1.33    0.85
   7   1   7   13.32    1.57
   7   1   7   11.83    1.88
   8   1   7    2.62    1.28
   8   1   7    1.78    1.10
   9   1   7    1.05    1.19
   9   1   7   -0.42    1.28
  10   1   7   -1.16    1.22
  10   1   7   -0.36    1.28
  11   1   7    5.61    1.63
  11   1   7    4.16    1.42
  12   1   7    0.99    1.65
  12   1   7   -0.56    1.44
  13   1   7    3.56    1.84
  13   1   7    4.05    1.70
  14   1   7    0.96    1.91
  14   1   7   -0.86    1.95
  15   1   7    1.15    2.45
  15   1   7   -1.37    2.19
  18  -2  -7    0.31    1.39
 -18   2   7   -1.55    1.97
  17  -2  -7   -0.92    1.18
 -17   2   7   -1.12    1.62
  16  -2  -7   -0.77    1.10
 -16   2   7    0.11    1.62
  15  -2  -7    0.35    0.99
 -15   2   7    2.14    1.48
  14  -2  -7   -0.45    0.85
 -14   2   7   -1.76    1.26
  13  -2  -7    1.86    0.87
 -13   2   7    2.29    1.28
  12  -2  -7    3.99    0.97
 -12   2   7    6.35    1.42
  11  -2  -7    0.02    0.76
 -11   2   7   -0.46    1.04
  10  -2  -7    1.52    0.70
 -10   2   7    1.17    0.87
   9  -2  -7    1.27    0.64
  -9   2   7    0.59    0.63
   8  -2  -7    0.15    0.52
   8  -2  -7    0.88    0.79
  -8   2   7    0.59    0.60
   7  -2  -7    2.10    0.53
  -7   2   7    2.53    0.66
   6  -2  -7    5.64    0.97
   6  -2  -7    6.66    1.01
  -6   2   7    6.21    0.94
  -6   2   7    7.97    0.87
   5  -2  -7   12.06    1.01
  -5   2   7   13.09    1.06
  -5   2   7   12.74    1.16
  -5   2   7   13.01    1.03
   4  -2  -7    4.87    0.66
  -4   2   7    2.93    0.48
  -4   2   7    4.94    0.85
  -4   2   7    4.29    0.69
   3  -2  -7    2.76    0.57
  -3   2   7    2.54    0.56
  -3   2   7    2.08    0.43
  -3   2   7    2.15    0.68
   2  -2  -7    3.47    0.57
   2  -2  -7    3.53    0.58
   1  -2  -7    6.82    0.88
   1  -2  -7    9.09    0.76
  -1   2   7    7.46    0.73
  -1   2   7    5.97    0.87
   0  -2  -7   88.13    2.84
   0   2   7   86.29    2.79
   0   2   7   86.08    3.01
  -1  -2  -7   20.70    1.25
   1   2   7   21.51    1.33
   1   2   7   21.18    1.13
  -2  -2  -7   12.82    1.11
   2   2   7   12.71    1.18
   2   2   7   13.37    1.04
  -3  -2  -7    1.74    0.77
   3   2   7    1.66    0.68
   3   2   7    2.17    0.73
   4   2   7    3.44    0.86
   4   2   7    4.06    0.81
   4   2   7    3.41    0.78
   5   2   7    2.92    0.83
   5   2   7    1.89    0.91
   5   2   7    1.17    0.84
   6   2   7    1.43    0.88
   6   2   7    1.10    1.13
   7   2   7    9.04    1.52
   7   2   7    9.15    1.53
   8   2   7    0.48    1.28
   8   2   7    0.02    1.06
   9   2   7    1.37    1.23
   9   2   7    1.05    1.31
  10   2   7   -1.37    1.32
  10   2   7    0.51    1.30
  11   2   7    5.41    1.72
  11   2   7    3.90    1.64
  12   2   7    0.61    1.47
  12   2   7    1.03    1.75
  13   2   7   -0.35    1.98
  13   2   7    2.29    1.74
  14   2   7    2.48    2.25
  14   2   7    1.54    1.98
  15   2   7   -3.15    2.37
  19  -3  -7   -2.46    1.59
  18  -3  -7    0.11    1.40
  17  -3  -7    0.33    1.24
 -17   3   7   -1.46    1.57
  16  -3  -7    0.55    1.08
 -16   3   7   -0.30    1.48
  15  -3  -7    0.96    1.01
 -15   3   7    1.24    1.39
  14  -3  -7    3.39    0.99
 -14   3   7    5.13    1.48
  13  -3  -7    9.69    1.19
 -13   3   7    9.49    1.58
  12  -3  -7    0.90    0.84
 -12   3   7   -0.68    1.08
  11  -3  -7    6.60    1.51
  11  -3  -7    4.70    0.89
 -11   3   7    4.06    1.20
  10  -3  -7    2.32    0.75
  10  -3  -7    5.01    1.25
 -10   3   7    2.14    0.96
   9  -3  -7   -1.07    1.07
   9  -3  -7    0.34    0.60
  -9   3   7   -0.87    0.66
   8  -3  -7    1.04    0.55
   8  -3  -7   -0.01    0.98
  -8   3   7    0.93    0.69
  -8   3   7   -0.23    0.61
   7  -3  -7    4.59    0.92
   7  -3  -7    2.38    0.57
  -7   3   7    4.69    0.78
  -7   3   7    3.66    0.72
   6  -3  -7    5.32    0.96
  -6   3   7    6.76    0.86
  -6   3   7    4.44    0.64
   5  -3  -7    0.91    0.76
  -5   3   7    0.46    0.51
  -5   3   7   -1.05    0.70
  -5   3   7    0.57    0.46
   4  -3  -7   38.18    1.65
  -4   3   7   32.47    1.73
  -4   3   7   35.44    1.52
  -4   3   7   34.70    1.65
   3  -3  -7   31.71    1.46
  -3   3   7   29.46    1.49
  -3   3   7   32.38    1.39
   2  -3  -7    0.59    0.62
  -2   3   7    0.37    0.49
  -2   3   7    0.19    0.68
   1  -3  -7   40.81    1.72
  -1   3   7   41.66    1.80
  -1   3   7   40.94    1.62
   0  -3  -7    9.26    1.11
   0   3   7    9.50    1.03
   0   3   7   10.54    0.85
  -1  -3  -7    0.17    0.64
   1   3   7   -0.53    0.57
   1   3   7    0.56    0.54
  -2  -3  -7    7.66    0.86
   2   3   7    7.32    1.11
   2   3   7    5.52    0.88
  -3  -3  -7   11.91    1.14
   3   3   7   12.35    1.05
   3   3   7   12.73    1.30
   4   3   7    7.86    1.12
   4   3   7    8.62    1.21
   4   3   7    8.35    1.13
   5   3   7    4.40    0.93
   5   3   7    3.56    0.89
   6   3   7   10.78    1.57
   6   3   7   10.78    1.46
   6   3   7   10.64    1.42
   7   3   7    8.90    1.22
   7   3   7    8.23    1.58
   8   3   7    0.64    1.05
   8   3   7   -0.04    1.29
   9   3   7   -0.10    1.18
   9   3   7    1.10    1.33
  10   3   7   -0.36    1.31
  10   3   7    1.62    1.45
  11   3   7   -0.58    1.50
  11   3   7    0.93    1.63
  12   3   7   -1.51    1.77
  12   3   7   -2.54    1.87
  13   3   7   -0.12    1.72
  13   3   7   -3.51    1.82
  14   3   7   -1.57    2.26
  19  -4  -7   -2.41    1.54
  18  -4  -7   -2.58    1.33
 -18   4   7   -0.85    1.70
 -17   4   7   -0.77    1.55
  16  -4  -7   -1.24    1.07
 -16   4   7    1.92    1.45
 -15   4   7   -0.35    1.33
  14  -4  -7    4.69    1.17
 -14   4   7    3.74    1.35
  13  -4  -7    2.17    0.94
 -13   4   7    2.76    1.23
  12  -4  -7    2.72    0.90
 -12   4   7    2.24    1.16
  11  -4  -7    0.23    0.72
 -11   4   7    0.02    1.06
  10  -4  -7    0.76    0.67
 -10   4   7   -0.69    0.88
 -10   4   7   -0.78    0.80
   9  -4  -7    1.16    0.63
  -9   4   7    2.02    0.90
  -9   4   7    2.22    0.96
   8  -4  -7    1.26    1.18
  -8   4   7    1.02    0.67
  -8   4   7    1.49    0.77
   7  -4  -7    4.04    1.07
  -7   4   7    5.31    0.81
  -7   4   7    5.70    0.92
   6  -4  -7    0.97    0.86
  -6   4   7    1.79    0.56
  -6   4   7    1.09    0.52
  -6   4   7    1.30    0.80
  -5   4   7   22.13    1.46
  -5   4   7   23.12    1.22
  -5   4   7   21.20    1.49
  -4   4   7    1.73    0.72
  -4   4   7    0.70    0.50
  -3   4   7    1.09    0.55
  -3   4   7    1.47    0.69
   2  -4  -7    0.85    0.71
  -2   4   7   -0.45    0.69
  -2   4   7    0.80    0.54
   1  -4  -7   20.17    1.31
  -1   4   7   20.53    1.44
  -1   4   7   19.25    1.12
   0  -4  -7    0.01    0.69
   0   4   7    0.32    0.55
  -1  -4  -7    6.16    0.81
   1   4   7    5.46    0.96
   1   4   7    5.68    0.70
  -2  -4  -7    7.47    0.85
   2   4   7    6.12    0.87
   2   4   7    6.57    1.04
  -3  -4  -7    4.88    0.79
   3   4   7    3.94    0.98
   4   4   7    0.65    0.68
   5   4   7   -0.31    1.09
   6   4   7    0.92    1.29
   6   4   7    3.62    0.95
   6   4   7    2.67    0.91
   7   4   7    0.10    1.25
   7   4   7    0.94    1.03
   8   4   7    0.61    1.42
   9   4   7    0.03    1.12
  10   4   7   -1.67    1.41
  10   4   7    1.25    1.38
  11   4   7    3.20    1.64
  11   4   7   -3.50    1.70
  12   4   7    1.12    2.14
  13   4   7   -3.66    2.10
  14   4   7   -3.30    2.24
 -19   5   7    0.92    1.95
 -18   5   7    2.61    1.86
 -17   5   7   -0.21    1.60
 -16   5   7   -2.08    1.36
  15  -5  -7    0.67    1.13
 -15   5   7   -0.55    1.30
  14  -5  -7    0.38    0.99
 -14   5   7    0.04    1.15
  13  -5  -7    0.42    0.87
 -13   5   7    1.16    1.15
  12  -5  -7    3.16    0.88
 -12   5   7    2.41    1.24
  11  -5  -7    2.49    0.84
 -11   5   7    3.68    1.14
 -11   5   7    3.09    1.10
  10  -5  -7    1.65    0.73
 -10   5   7    1.86    1.02
 -10   5   7    2.90    1.06
  -9   5   7    8.47    1.26
  -9   5   7    8.17    1.40
  -8   5   7    0.81    0.66
  -8   5   7   -0.02    0.90
  -8   5   7    1.25    0.61
  -7   5   7    0.64    0.84
  -7   5   7   -0.37    0.54
  -7   5   7    0.13    0.55
  -6   5   7    8.80    1.11
  -6   5   7    5.05    0.69
  -6   5   7    7.29    0.86
  -5   5   7   26.74    1.66
  -5   5   7   28.65    1.42
  -5   5   7   25.67    1.72
  -4   5   7    1.56    0.57
  -4   5   7    0.02    0.72
  -3   5   7   -0.11    0.58
  -3   5   7    0.81    0.64
  -2   5   7    0.22    0.57
  -2   5   7    0.84    0.66
   1  -5  -7   22.78    1.40
  -1   5   7   21.22    1.55
  -1   5   7   21.81    1.24
   0  -5  -7   13.95    1.23
   0   5   7   13.27    1.01
   0   5   7   14.58    1.62
  -1  -5  -7    3.67    0.79
   1   5   7    4.28    0.66
   1   5   7    4.10    0.90
   2   5   7    8.61    1.35
   4   5   7    4.84    1.42
   5   5   7    2.52    1.27
   6   5   7    9.33    1.69
   7   5   7   -0.75    1.26
   8   5   7   -1.07    1.36
   9   5   7    0.22    1.48
  10   5   7   -0.69    1.51
  11   5   7   -0.27    1.97
  12   5   7    1.36    1.89
  13   5   7   -0.83    2.11
 -19   6   7   -0.07    1.96
 -18   6   7   -0.13    1.64
  17  -6  -7   -1.83    1.14
 -17   6   7   -1.13    1.48
  16  -6  -7   -0.16    1.24
 -16   6   7   -2.54    1.32
  15  -6  -7    1.62    1.12
 -15   6   7    0.89    1.36
  14  -6  -7    0.76    1.01
 -14   6   7   -1.36    1.14
  13  -6  -7    0.54    0.89
 -13   6   7   -0.35    1.10
  12  -6  -7    0.88    0.85
 -12   6   7    0.65    1.06
 -12   6   7    1.34    1.24
 -11   6   7    0.04    1.12
 -11   6   7    1.27    1.21
 -10   6   7    0.09    0.85
 -10   6   7    1.26    1.17
 -10   6   7    1.00    1.04
  -9   6   7    1.25    1.05
  -9   6   7    0.36    0.78
  -9   6   7    1.17    0.99
  -8   6   7   -0.51    0.96
  -8   6   7    0.50    0.67
  -7   6   7    1.39    0.65
  -7   6   7    1.78    0.99
  -7   6   7    1.25    0.62
  -6   6   7    5.97    0.91
  -6   6   7    4.54    0.71
  -6   6   7    8.25    1.22
  -5   6   7    1.60    0.69
  -5   6   7    2.87    0.93
  -4   6   7    0.48    0.78
  -4   6   7    0.30    0.68
  -3   6   7    6.31    0.94
  -3   6   7    6.48    0.88
   2  -6  -7    7.22    1.04
  -2   6   7    6.57    0.99
  -2   6   7    6.98    1.20
   1  -6  -7   -0.07    0.82
  -1   6   7   -0.08    0.57
  -1   6   7    1.05    0.92
   0  -6  -7    7.87    0.96
   0   6   7    8.60    1.36
   0   6   7    6.73    0.92
   1   6   7    9.32    1.88
   2   6   7    4.85    2.04
   3   6   7    2.81    1.56
   4   6   7    1.39    1.37
   5   6   7    1.00    1.46
   6   6   7    1.03    1.47
   7   6   7    3.55    1.63
   8   6   7   -1.75    1.36
   9   6   7   -0.04    1.57
  10   6   7    1.41    1.83
  11   6   7   -0.69    2.02
  12   6   7   -1.06    2.25
  13   6   7    2.48    2.49
 -18   7   7   -1.07    1.82
 -17   7   7    0.30    1.53
 -16   7   7   -0.98    1.43
 -15   7   7   -2.55    1.23
 -14   7   7    2.23    1.27
 -13   7   7    1.20    1.21
 -12   7   7    0.67    1.07
 -12   7   7    1.34    1.34
 -11   7   7   -0.40    1.16
 -11   7   7   -0.72    1.24
 -10   7   7    4.41    1.34
 -10   7   7    1.64    1.01
  -9   7   7   -0.20    1.16
  -9   7   7    0.51    1.05
  -8   7   7   -0.77    0.89
  -8   7   7   -0.12    1.18
  -7   7   7    5.49    0.96
  -7   7   7    3.16    0.71
  -7   7   7    4.32    1.33
  -6   7   7   10.24    1.56
  -6   7   7    9.19    1.21
  -5   7   7    0.42    0.74
  -5   7   7    0.33    0.99
  -4   7   7    2.80    0.83
  -4   7   7    1.61    0.78
  -3   7   7    9.49    1.24
  -3   7   7   10.44    1.12
   2  -7  -7    7.11    1.11
  -2   7   7    5.43    1.13
  -2   7   7    6.17    0.85
   1  -7  -7    0.79    0.91
  -1   7   7    0.73    0.89
  -1   7   7   -0.57    0.62
   1   7   7    2.11    1.56
   2   7   7   10.90    1.98
   3   7   7    1.80    1.97
   4   7   7    7.37    2.40
   5   7   7    2.44    2.21
   6   7   7    1.22    1.78
   7   7   7    2.61    1.83
   8   7   7    1.30    2.12
   9   7   7    3.40    2.30
  10   7   7    1.43    2.23
  11   7   7    1.92    2.40
  12   7   7    1.93    3.17
 -17   8   7   -0.53    1.47
 -16   8   7   -0.22    1.52
 -15   8   7   -0.90    1.23
 -14   8   7   -1.15    1.33
 -14   8   7    0.36    1.53
 -13   8   7    1.46    1.24
 -13   8   7    3.84    1.49
 -12   8   7   -0.62    1.16
 -12   8   7   -0.11    1.33
 -11   8   7    2.52    1.17
 -10   8   7    2.09    1.13
  -9   8   7    1.27    1.36
  -9   8   7    0.57    1.05
  -8   8   7    7.89    1.49
  -8   8   7    6.71    1.30
  -7   8   7    6.29    1.10
  -7   8   7    4.40    1.32
  -6   8   7    0.07    1.07
  -6   8   7    1.91    0.94
  -5   8   7    4.70    1.19
  -5   8   7    4.16    1.00
  -4   8   7    4.03    0.93
  -3   8   7    8.97    1.08
  -2   8   7   -0.62    0.72
  -2   8   7    0.10    1.15
   1  -8  -7    2.19    1.02
  -1   8   7    2.12    0.74
  -1   8   7   -0.37    1.49
   0   8   7    2.37    1.40
   1   8   7   -0.95    1.30
   2   8   7   19.61    2.40
   3   8   7    4.35    2.19
   4   8   7    0.37    2.00
   5   8   7    1.61    2.05
   6   8   7    2.95    2.36
   7   8   7    1.56    2.57
   8   8   7    1.45    2.65
   9   8   7    3.64    2.95
  10   8   7    5.40    2.83
  11   8   7    1.11    2.86
 -18   9   7   -0.36    1.91
 -17   9   7    0.13    1.49
 -16   9   7    0.09    1.27
 -15   9   7    1.36    1.38
 -14   9   7    3.61    1.65
 -14   9   7    1.04    1.37
 -13   9   7   -1.67    1.17
 -13   9   7    1.18    1.47
 -12   9   7   -0.50    1.13
 -12   9   7    0.59    1.49
 -11   9   7    3.55    1.33
 -11   9   7    3.23    1.48
 -10   9   7    3.75    1.29
 -10   9   7    4.27    1.45
  -9   9   7    2.14    1.17
  -9   9   7    2.94    1.47
  -8   9   7    2.91    1.18
  -8   9   7    4.00    1.42
  -7   9   7    0.08    1.24
  -6   9   7    0.31    1.37
  -6   9   7    0.27    0.96
  -5   9   7    3.42    1.08
  -5   9   7    4.37    1.52
  -4   9   7    7.06    1.68
  -4   9   7    9.13    1.45
  -3   9   7    1.69    0.90
  -3   9   7   -0.17    1.25
   2  -9  -7    0.30    1.33
  -2   9   7    0.45    0.82
  -2   9   7   -2.27    1.49
  -1   9   7    1.25    1.47
   0   9   7   -0.62    1.70
   1   9   7    0.88    1.64
   2   9   7    4.25    1.66
   3   9   7    2.99    1.60
   4   9   7   -1.89    1.81
   5   9   7   -0.55    2.04
   6   9   7   -1.40    2.04
   7   9   7   -1.36    2.15
   8   9   7   -1.16    2.56
   9   9   7   -3.03    2.71
  10   9   7   -1.45    2.62
 -18  10   7   -0.13    1.94
 -17  10   7   -1.06    1.72
 -16  10   7    0.00    1.56
 -15  10   7    4.41    1.99
 -15  10   7    1.67    1.48
 -14  10   7    1.53    1.32
 -14  10   7    2.60    1.74
 -13  10   7    1.98    1.74
 -13  10   7   -0.78    1.32
 -12  10   7    0.40    1.20
 -12  10   7    3.86    1.77
 -11  10   7   -1.10    1.15
 -11  10   7    1.09    1.54
 -10  10   7   -0.16    1.22
 -10  10   7    0.54    1.49
  -9  10   7    1.11    1.34
  -9  10   7   -1.84    0.99
  -8  10   7   -1.55    1.02
  -8  10   7    0.70    1.46
  -7  10   7   -1.51    1.01
  -7  10   7   -1.17    1.40
  -6  10   7    7.32    1.35
  -6  10   7    7.49    1.67
  -5  10   7    1.94    1.51
  -4  10   7    1.67    1.42
  -4  10   7    1.67    1.06
  -3  10   7   -0.21    1.48
  -3  10   7    2.21    1.03
  -2  10   7    8.01    1.32
  -2  10   7    5.66    1.87
  -1  10   7   -1.88    1.40
   0  10   7    4.08    1.54
   1  10   7    1.73    1.86
   2  10   7    0.40    1.76
   3  10   7   -2.13    1.60
   4  10   7    2.59    1.87
   5  10   7    3.66    1.89
   6  10   7   -1.55    1.90
   7  10   7    2.47    2.32
   8  10   7    0.65    2.49
   9  10   7   -2.74    2.56
 -17  11   7    1.20    1.79
 -16  11   7   -0.96    2.29
 -16  11   7   -0.92    1.68
 -15  11   7    1.29    1.57
 -15  11   7    4.04    2.12
 -14  11   7    2.86    1.88
 -14  11   7   -0.19    1.55
 -13  11   7    0.72    1.75
 -13  11   7    2.27    1.54
 -12  11   7   -0.06    1.34
 -12  11   7    0.73    1.72
 -11  11   7   -1.46    1.59
 -11  11   7    0.32    1.28
 -10  11   7   -1.55    1.18
 -10  11   7   -0.64    1.53
  -9  11   7   -1.57    1.15
  -9  11   7    0.08    1.43
  -8  11   7    3.45    1.55
  -8  11   7    0.76    1.20
  -7  11   7   -1.05    1.13
  -7  11   7   -0.46    1.41
  -6  11   7    1.61    1.37
  -5  11   7   -1.14    1.33
  -5  11   7    0.35    1.15
  -4  11   7   12.39    1.51
  -4  11   7   12.74    1.96
  -3  11   7    0.82    1.03
  -3  11   7    0.51    1.48
  -2  11   7    2.66    1.63
  -1  11   7   -1.27    1.49
   0  11   7    1.10    1.37
   1  11   7   -1.08    1.60
   2  11   7   -1.63    1.73
   3  11   7    3.32    2.13
   4  11   7   -1.22    2.01
   5  11   7   -0.97    1.98
   6  11   7   -0.56    2.19
   7  11   7    1.04    2.41
   8  11   7   -2.43    2.25
 -17  12   7    0.00    1.84
 -16  12   7    2.88    1.92
 -16  12   7    2.36    2.51
 -15  12   7    0.62    1.72
 -15  12   7    1.90    2.34
 -14  12   7    0.62    1.66
 -14  12   7    2.32    2.18
 -13  12   7   -1.68    1.42
 -13  12   7    0.98    1.99
 -12  12   7   -0.61    1.42
 -12  12   7   -2.13    2.00
 -11  12   7   -1.67    1.32
 -11  12   7   -2.08    1.63
 -10  12   7    2.46    1.67
 -10  12   7    2.62    1.39
  -9  12   7    3.93    1.68
  -9  12   7    1.73    1.37
  -8  12   7   -0.73    1.25
  -8  12   7    1.78    1.64
  -7  12   7    5.12    1.40
  -7  12   7    4.82    1.67
  -6  12   7    5.47    1.61
  -6  12   7    3.71    1.39
  -5  12   7   -0.31    1.40
  -5  12   7    0.33    1.25
  -4  12   7    2.49    1.48
  -4  12   7    2.57    1.27
  -3  12   7    2.96    1.50
  -3  12   7    2.47    1.16
  -2  12   7    1.11    1.49
  -1  12   7   -0.90    1.41
   0  12   7   -1.14    1.88
   1  12   7    0.10    1.99
   2  12   7   -1.34    1.58
   3  12   7    2.65    1.91
   4  12   7   -1.55    2.18
   5  12   7   -4.19    2.27
   6  12   7    1.80    2.59
   7  12   7   -0.93    2.74
 -16  13   7   -1.96    1.89
 -16  13   7    3.64    2.66
 -15  13   7    4.80    2.30
 -15  13   7    1.10    1.62
 -14  13   7    1.82    2.32
 -14  13   7    2.92    1.69
 -13  13   7    1.90    1.64
 -13  13   7    1.12    2.22
 -12  13   7   -2.60    2.01
 -12  13   7   -0.09    1.60
 -11  13   7    2.31    1.85
 -11  13   7    1.33    1.56
 -10  13   7    0.17    1.84
 -10  13   7    0.61    1.53
  -9  13   7    1.13    1.77
  -9  13   7    1.00    1.46
  -8  13   7    2.01    1.51
  -8  13   7    0.52    1.69
  -7  13   7   -0.53    1.54
  -7  13   7    1.85    1.34
  -6  13   7    1.90    1.64
  -6  13   7   -0.03    1.29
  -5  13   7    3.45    1.45
  -5  13   7    4.52    1.76
  -4  13   7    1.33    1.60
  -4  13   7    2.60    1.33
  -3  13   7    0.98    1.21
  -3  13   7    2.21    1.63
  -2  13   7    0.50    1.61
  -1  13   7    1.56    1.61
   0  13   7   -0.75    1.61
   1  13   7   -1.62    1.96
   2  13   7    0.18    2.11
   3  13   7   -0.09    2.02
   4  13   7    1.44    1.91
   5  13   7   -0.22    2.17
   6  13   7    2.09    2.42
 -15  14   7    1.89    2.63
 -14  14   7   -0.46    1.96
 -14  14   7   -2.60    2.41
 -13  14   7    0.09    2.35
 -13  14   7   -0.66    1.78
 -12  14   7    0.20    1.70
 -12  14   7   -0.47    2.24
 -11  14   7    1.34    1.72
 -11  14   7    0.37    2.10
 -10  14   7    0.81    1.66
 -10  14   7    1.43    1.90
  -9  14   7    2.60    1.80
  -9  14   7   -0.02    1.56
  -8  14   7    0.37    1.76
  -8  14   7    0.06    1.58
  -7  14   7    1.03    1.61
  -7  14   7    3.31    1.60
  -6  14   7    1.14    1.34
  -6  14   7   -1.08    1.51
  -5  14   7    2.46    1.56
  -4  14   7    0.09    1.38
  -4  14   7    0.74    1.53
  -3  14   7   -0.05    1.55
  -2  14   7    1.22    1.62
  -1  14   7    3.81    1.85
   0  14   7    0.98    1.70
   1  14   7    0.89    1.91
   2  14   7    0.92    1.99
   3  14   7   -0.23    2.40
   4  14   7   -2.64    2.32
 -14  15   7    1.03    2.54
 -14  15   7    0.59    2.02
 -13  15   7    2.24    2.67
 -13  15   7    1.76    2.16
 -12  15   7   -2.24    2.26
 -12  15   7    0.27    1.91
 -11  15   7    0.43    2.32
 -11  15   7    2.46    1.93
 -10  15   7    0.34    1.93
 -10  15   7   -0.01    1.85
  -9  15   7    2.26    1.81
  -9  15   7    3.92    1.94
  -8  15   7    1.95    1.78
  -8  15   7   -0.25    1.57
  -7  15   7    1.88    1.73
  -7  15   7    1.32    1.61
  -6  15   7    1.79    1.78
  -6  15   7   -0.42    1.46
  -5  15   7    2.93    1.74
  -4  15   7    0.36    1.85
  -3  15   7    1.37    1.78
  -2  15   7    1.75    1.86
  -1  15   7    4.49    2.08
   0  15   7    2.26    1.94
   1  15   7    1.68    2.20
   2  15   7    2.15    2.09
   3  15   7    4.82    2.45
 -13  16   7   -0.42    2.18
 -12  16   7   -2.24    2.02
 -12  16   7   -4.52    2.26
 -11  16   7   -1.32    1.98
 -11  16   7   -1.67    2.22
 -10  16   7   -0.53    1.94
 -10  16   7    0.64    2.15
  -9  16   7    1.83    1.94
  -9  16   7    3.10    2.24
  -8  16   7    1.65    1.99
  -8  16   7    0.38    1.81
  -7  16   7    1.24    1.69
  -7  16   7    4.00    1.87
   6 -16  -7    1.81    1.67
  -6  16   7    2.61    2.09
  -5  16   7    1.49    1.79
  -4  16   7    0.81    1.76
  -4  16   7   -0.04    1.23
  -3  16   7    0.13    1.25
  -3  16   7    4.26    2.06
  -2  16   7    1.30    1.37
  -2  16   7    1.54    2.07
  -1  16   7    0.51    1.91
  -1  16   7    0.89    1.49
   0  16   7   -0.11    1.53
   1  16   7    0.12    2.19
   1  16   7    0.19    1.60
 -10  17   7    2.40    2.25
  -9  17   7    1.64    2.08
  -3  17   7    2.09    2.00
  -2  17   7   -0.55    1.53
  -2  17   7    3.43    2.22
   2  18  -8   -2.21    2.26
   1  18  -8   -2.24    1.74
   1  18  -8    1.00    2.36
   0  18  -8    3.96    2.45
   0 -18   8    7.04    2.54
  -1  18  -8   -1.62    2.20
  -1  18  -8   -0.46    1.67
   1 -18   8    3.14    2.44
  -2  18  -8    0.69    1.89
  -2  18  -8    1.00    1.73
   2 -18   8   -0.31    2.34
  -3  18  -8    1.43    2.09
   3 -18   8    0.44    2.32
  -4  18  -8    1.45    2.11
   4 -18   8   -0.47    2.28
  -5  18  -8    2.44    2.13
   5 -18   8   -1.89    2.14
   6 -18   8    0.25    2.05
  -8  18  -8   -0.06    1.97
   8 -18   8    3.08    2.35
   4  17  -8   -0.38    1.84
   4  17  -8   -2.30    2.34
   3  17  -8   -2.33    2.02
   3  17  -8   -3.74    1.76
   2  17  -8   -3.39    1.76
   2  17  -8   -1.99    2.02
   1  17  -8   -2.60    1.54
   1  17  -8    0.18    2.00
  -1 -17   8    2.09    2.29
   0  17  -8   -0.87    1.50
   0  17  -8    0.94    2.09
   0 -17   8   -1.53    2.04
  -1  17  -8    0.92    1.49
  -1  17  -8   -0.93    1.82
   1 -17   8   -1.95    1.94
  -2  17  -8   -0.83    1.49
  -2  17  -8    1.65    1.97
   2 -17   8    0.32    2.07
  -3  17  -8    3.26    2.08
  -3  17  -8    1.20    1.57
   3 -17   8   -0.61    2.03
  -4  17  -8    0.27    1.84
   4 -17   8    1.08    2.01
  -5  17  -8    2.88    1.72
   5 -17   8   -0.65    1.81
  -6  17  -8   -0.25    1.78
   6 -17   8   -2.47    1.83
  -7  17  -8    2.32    1.90
   7 -17   8   -1.05    1.94
  -8  17  -8    2.46    1.90
   8 -17   8    2.25    2.25
   9 -17   8    0.84    2.07
   6  16  -8   -1.18    2.28
   6  16  -8   -1.50    1.76
   5  16  -8   -0.49    2.21
   5  16  -8   -1.74    1.63
   4  16  -8   -2.55    2.00
   4  16  -8    0.56    1.64
   3  16  -8   -2.65    1.49
   3  16  -8   -2.41    1.86
  -3 -16   8    3.86    2.05
   2  16  -8   -1.35    1.80
   2  16  -8   -0.97    1.59
  -2 -16   8    0.43    1.89
   1  16  -8   -3.06    1.48
   1  16  -8   -2.75    1.66
  -1 -16   8    5.68    1.97
   0  16  -8    0.21    1.79
   0  16  -8   -0.62    1.36
   0 -16   8    0.52    1.91
  -1  16  -8   -0.31    1.30
  -1  16  -8    0.61    1.74
   1 -16   8    0.28    1.88
  -2  16  -8   -1.17    1.32
  -2  16  -8    0.06    1.67
   2 -16   8   -0.01    1.81
  -3  16  -8    1.18    1.38
  -3  16  -8    0.40    1.60
   3 -16   8   -1.18    1.75
  -4  16  -8    1.76    1.90
   4 -16   8   -1.92    1.69
  -5  16  -8    4.17    1.74
   5 -16   8   -1.83    1.69
  -6  16  -8    0.68    1.52
   6 -16   8   -0.54    1.74
  -7  16  -8    0.32    1.68
   7 -16   8    0.47    1.76
  -8  16  -8    1.42    1.90
   8 -16   8    4.01    2.03
  -9  16  -8    0.93    1.97
   9 -16   8    1.86    1.94
  10 -16   8    0.97    2.07
   8  15  -8   -1.58    2.38
   7  15  -8   -1.54    1.76
   7  15  -8   -0.47    2.15
   6  15  -8    0.00    1.60
   6  15  -8    1.82    2.06
   5  15  -8    0.49    1.42
   5  15  -8    0.45    1.93
   4  15  -8   -0.70    1.81
   4  15  -8    0.64    1.37
  -4 -15   8    0.73    1.85
   3  15  -8   -2.49    1.62
   3  15  -8    0.36    1.34
  -3 -15   8   -0.30    1.74
   2  15  -8   -1.05    1.31
   2  15  -8    0.09    1.60
  -2 -15   8    3.15    1.72
   1  15  -8   -2.21    1.52
   1  15  -8   -1.48    1.30
  -1 -15   8    1.53    1.72
   0  15  -8    0.35    1.64
   0  15  -8    0.30    1.22
   0 -15   8    2.96    1.77
  -1  15  -8   -0.35    1.19
  -1  15  -8    1.54    1.65
   1 -15   8    2.01    1.76
  -2  15  -8    0.11    1.22
  -2  15  -8   -0.21    1.45
   2 -15   8   -0.06    1.69
  -3  15  -8    1.34    1.56
  -3  15  -8    1.40    1.21
   3 -15   8    0.79    1.59
  -4  15  -8    3.37    1.81
   4 -15   8    2.46    1.61
  -5  15  -8    2.77    1.60
   5 -15   8   -0.90    1.62
  -6  15  -8   -1.16    1.51
   6 -15   8   -0.20    1.72
  -7  15  -8    3.38    1.79
   7 -15   8    1.85    1.67
  -8  15  -8   -1.42    1.52
   8 -15   8    2.42    1.76
   9 -15   8    0.32    1.75
  10 -15   8    0.26    1.95
  11 -15   8    1.06    1.87
   8  14  -8   -2.77    1.44
   8  14  -8    0.03    2.15
   7  14  -8    1.56    1.96
   7  14  -8   -0.33    1.57
   6  14  -8    1.46    1.54
   6  14  -8    2.63    1.94
   5  14  -8   -0.74    1.73
   5  14  -8   -1.05    1.16
   4  14  -8   -1.16    1.61
   4  14  -8    0.46    1.34
  -4 -14   8   -0.83    1.62
   3  14  -8    1.09    1.24
   3  14  -8   -1.78    1.51
  -3 -14   8    0.51    1.56
   2  14  -8   -1.29    1.43
   2  14  -8   -0.83    1.15
  -2 -14   8   -0.50    1.55
   1  14  -8   -0.24    1.26
   1  14  -8    0.25    1.54
  -1 -14   8    2.17    1.58
   0  14  -8    1.63    1.15
   0  14  -8    3.18    1.56
   0 -14   8    3.13    1.64
  -1  14  -8    3.32    1.66
  -1  14  -8    2.77    1.14
   1 -14   8    3.34    1.65
  -2  14  -8   -0.35    1.35
  -2  14  -8   -0.02    1.09
   2 -14   8   -0.78    1.47
  -3  14  -8   -0.34    1.38
  -3  14  -8    0.72    1.36
   3 -14   8   -0.53    1.44
  -4  14  -8    3.47    1.49
   4 -14   8    0.70    1.47
  -5  14  -8    1.94    1.49
   5 -14   8    0.61    1.43
  -6  14  -8    0.94    1.47
   6 -14   8    1.87    1.54
  -7  14  -8    0.16    1.38
   7 -14   8    3.15    1.60
  -8  14  -8   -0.16    1.52
   8 -14   8    0.95    1.67
   9 -14   8    0.67    1.66
  10 -14   8    0.15    1.77
  11 -14   8   -1.17    1.77
  12 -14   8   -0.38    2.12
  13 -14   8   -0.94    2.23
   9  13  -8    3.43    2.11
   8  13  -8   -1.64    1.40
   8  13  -8    2.98    1.98
   7  13  -8   -1.08    1.28
   7  13  -8    0.30    1.77
  -7 -13   8   -1.27    1.98
   6  13  -8    1.17    1.64
   6  13  -8    0.93    1.27
  -6 -13   8   -0.08    1.96
   5  13  -8   -0.44    1.48
   5  13  -8   -0.09    1.18
   4  13  -8    3.04    1.54
   4  13  -8    1.59    1.21
   3  13  -8    5.88    1.31
   3  13  -8    4.15    1.57
  -3 -13   8    6.69    1.66
   2  13  -8   -1.01    1.28
   2  13  -8   -1.11    1.13
  -2 -13   8    1.40    1.46
   1  13  -8    0.89    1.43
   1  13  -8    1.15    1.10
  -1 -13   8    1.43    1.49
   0  13  -8    1.57    1.01
   0  13  -8    3.43    1.40
   0 -13   8    2.26    1.50
  -1  13  -8    0.65    0.99
  -1  13  -8    0.40    1.28
   1 -13   8    0.40    1.38
  -2  13  -8    5.89    1.47
   2 -13   8    4.59    1.62
  -3  13  -8    2.50    1.36
   3 -13   8    0.99    1.29
  -4  13  -8    1.87    1.40
   4 -13   8   -2.38    1.28
  -5  13  -8   -0.19    1.20
   5 -13   8    1.09    1.40
  -6  13  -8    1.21    1.38
   6 -13   8    1.27    1.46
  -7  13  -8    0.93    1.27
   7 -13   8    1.73    1.48
   8 -13   8   -0.33    1.46
   9 -13   8    5.44    1.83
  10 -13   8    0.33    1.69
  11 -13   8   -1.41    1.65
  12 -13   8    0.93    1.85
  13 -13   8    1.67    2.09
  14 -13   8   -0.16    1.89
  10  12  -8   -2.58    1.30
   9  12  -8    3.00    1.92
   8  12  -8    3.15    1.41
   8  12  -8    8.49    1.85
  -8 -12   8    4.50    2.04
   7  12  -8   -1.40    1.26
   7  12  -8    2.62    1.63
  -7 -12   8    1.04    1.74
   6  12  -8    0.80    1.52
   6  12  -8   -0.98    1.14
  -6 -12   8   -0.38    1.57
   5  12  -8    0.46    1.09
   5  12  -8    0.92    1.37
  -5 -12   8   -0.38    1.54
   4  12  -8    0.27    1.01
   4  12  -8    0.95    1.35
  -4 -12   8    0.64    1.55
   3  12  -8    0.35    1.06
   3  12  -8   -1.28    1.23
   2  12  -8    1.12    1.24
   2  12  -8   -0.81    0.97
   1  12  -8    1.47    1.05
   1  12  -8    1.02    1.29
  -1 -12   8    3.20    1.43
   0  12  -8    0.24    0.93
   0  12  -8    0.10    1.26
   0 -12   8    1.01    1.31
  -1  12  -8    4.47    1.31
   1 -12   8    3.98    1.45
  -2  12  -8    3.59    1.13
  -2  12  -8    5.36    1.50
   2 -12   8    5.31    1.57
  -3  12  -8    0.02    1.13
   3 -12   8   -1.20    1.20
  -4  12  -8   -0.06    1.28
   4 -12   8    1.18    1.37
  -5  12  -8    0.44    1.07
   5 -12   8    0.11    1.21
  -6  12  -8    0.38    1.22
   6 -12   8    0.91    1.28
  -7  12  -8    0.12    1.29
   7 -12   8    0.80    1.32
   8 -12   8   -1.76    1.30
   9 -12   8    4.47    1.72
  10 -12   8    0.34    1.57
  11 -12   8    0.18    1.70
  12 -12   8   -0.16    1.71
  13 -12   8   -1.41    1.88
  12  11  -8   -1.22    1.41
  11  11  -8   -2.81    1.29
  10  11  -8   -1.35    1.17
   9  11  -8   -1.51    1.18
   8  11  -8    0.87    1.75
   8  11  -8   -1.16    1.03
  -8 -11   8    0.42    1.76
   7  11  -8    4.44    1.62
  -7 -11   8    4.42    1.66
   6  11  -8   11.35    1.85
  -6 -11   8   16.48    2.13
   5  11  -8    1.06    0.97
   5  11  -8    2.53    1.39
  -5 -11   8    1.09    1.43
   4  11  -8   -0.26    0.87
  -4 -11   8    1.03    1.37
   3  11  -8    0.08    0.95
  -3 -11   8    0.07    1.29
   2  11  -8    0.41    0.93
  -2 -11   8   -1.04    1.31
   1  11  -8    0.40    0.94
   1  11  -8   -0.19    1.15
   0  11  -8   -0.37    1.15
  -1  11  -8    1.76    0.95
  -1  11  -8   -0.34    1.06
   1 -11   8   -0.08    1.25
  -2  11  -8   -0.23    1.15
  -2  11  -8    0.07    0.97
   2 -11   8   -0.71    1.16
  -3  11  -8    1.80    1.19
   3 -11   8    0.93    1.30
  -4  11  -8    0.10    1.14
   4 -11   8    1.33    1.31
  -5  11  -8    2.34    1.28
   5 -11   8    3.35    1.35
  -6  11  -8    0.42    1.21
   6 -11   8    1.40    1.30
   7 -11   8   -0.45    1.23
   8 -11   8    0.49    1.32
   9 -11   8   -1.80    1.48
  10 -11   8   -0.94    1.38
  11 -11   8    1.88    1.54
  12 -11   8   -0.99    1.63
  13 -11   8   -2.24    1.53
  14 -11   8   -2.05    1.70
  15 -11   8   -0.56    2.05
  13  10  -8   -2.64    1.46
  12  10  -8   -0.62    1.33
  11  10  -8   -0.70    1.26
 -11 -10   8    3.12    1.81
  10  10  -8    0.09    1.92
  10  10  -8   -0.16    1.15
 -10 -10   8    2.78    1.62
   9  10  -8    0.01    1.14
   9  10  -8    3.23    1.78
   8  10  -8   -1.02    0.98
   8  10  -8   -0.23    1.45
  -8 -10   8   -0.66    1.60
   7  10  -8   -0.98    0.92
   7  10  -8   -1.44    1.32
  -7 -10   8   -0.43    1.42
   6  10  -8    0.97    1.33
   6  10  -8   -0.38    0.95
  -6 -10   8    1.46    1.37
   5  10  -8    1.12    0.88
   5  10  -8    3.05    1.30
  -5 -10   8    2.02    1.35
   4  10  -8    4.21    1.29
   4  10  -8    2.24    0.96
  -4 -10   8    3.74    1.36
   3  10  -8    6.82    1.12
   3  10  -8    9.15    1.39
  -3 -10   8    7.36    1.42
   2  10  -8    7.20    1.34
  -2 -10   8    7.75    1.50
   1  10  -8    1.81    1.16
  -1 -10   8    2.02    1.33
   0  10  -8    0.32    0.97
   0  10  -8    0.94    0.86
   0 -10   8    0.82    1.16
  -1  10  -8    2.59    0.90
  -2  10  -8    0.31    0.96
  -2  10  -8    0.39    0.88
   2 -10   8   -0.16    1.06
  -3  10  -8    0.31    0.96
   3 -10   8    0.59    1.16
  -4  10  -8    2.64    1.18
   4 -10   8    2.18    1.21
  -5  10  -8   -0.67    1.04
   5 -10   8    1.86    1.29
   6 -10   8    9.32    1.61
   7 -10   8    1.31    1.24
   8 -10   8    4.09    1.59
   9 -10   8    3.97    1.45
  10 -10   8    2.26    1.54
  11 -10   8   -0.97    1.38
  12 -10   8   -1.83    1.43
  13 -10   8    0.34    1.61
  14 -10   8   -1.66    1.68
  14   9  -8   -2.13    1.46
  13   9  -8    0.34    1.61
  12   9  -8   -0.77    1.28
 -12  -9   8    4.18    1.86
  11   9  -8   -0.80    1.13
 -11  -9   8    2.53    1.76
 -10  -9   8    6.97    1.66
   9   9  -8    0.05    1.07
   9   9  -8    1.91    1.49
   8   9  -8    0.46    1.29
   8   9  -8   -0.18    1.00
  -8  -9   8   -0.02    1.48
   7   9  -8    5.24    1.32
  -7  -9   8    4.50    1.47
   6   9  -8    1.73    0.92
   6   9  -8    2.21    1.19
  -6  -9   8    1.44    1.29
   5   9  -8   -0.03    1.06
   5   9  -8    0.07    0.84
  -5  -9   8    1.59    1.23
   4   9  -8    1.02    1.07
   4   9  -8    1.67    0.92
  -4  -9   8    0.73    1.18
   3   9  -8    3.54    0.92
   3   9  -8    5.48    1.17
  -3  -9   8    4.74    1.27
   2   9  -8   -0.63    0.97
  -2  -9   8   -0.60    1.02
   1   9  -8   15.50    1.92
   1   9  -8   14.57    1.58
  -1  -9   8   15.58    1.87
   0   9  -8    0.16    0.75
   0   9  -8   -0.70    0.89
   0  -9   8   -0.02    1.06
  -1   9  -8   -0.61    0.78
  -1   9  -8    0.26    0.75
   1  -9   8    0.74    0.99
  -2   9  -8    2.65    0.93
  -3   9  -8    2.08    1.03
   3  -9   8    1.41    1.12
  -4   9  -8    0.04    0.97
   4  -9   8    0.59    1.07
   5  -9   8   12.09    1.94
   6  -9   8    2.16    1.26
   7  -9   8   -0.10    1.13
   8  -9   8    0.36    1.19
   9  -9   8    2.82    1.32
  10  -9   8    5.78    1.63
  11  -9   8   -1.29    1.28
  12  -9   8   -0.97    1.44
  13  -9   8   -1.31    1.56
  15  -9   8   -4.16    1.95
  14   8  -8   -1.70    1.39
 -14  -8   8    2.02    2.17
  13   8  -8   -1.16    1.25
 -13  -8   8    1.61    1.98
  12   8  -8   -0.94    1.15
 -12  -8   8    1.06    1.80
  11   8  -8    0.67    1.21
 -11  -8   8    5.20    1.69
 -10  -8   8    5.27    1.56
   9   8  -8    0.70    0.98
   8   8  -8    1.92    0.98
  -8  -8   8    4.81    1.47
   7   8  -8   -0.28    1.06
   7   8  -8   -0.76    0.87
  -7  -8   8   -1.31    1.23
   6   8  -8    0.50    0.91
   6   8  -8    0.58    1.01
  -6  -8   8    0.03    1.16
   5   8  -8    5.25    0.99
   5   8  -8    9.20    1.53
  -5  -8   8    8.04    1.30
   4   8  -8   14.28    1.57
   4   8  -8   16.79    1.91
  -4  -8   8   12.70    1.73
   3   8  -8    0.42    0.90
   3   8  -8    0.02    0.59
  -3  -8   8    0.13    0.96
   2   8  -8    2.56    0.69
   2   8  -8    2.95    0.97
  -2  -8   8    4.04    1.12
   1   8  -8    8.46    1.46
   1   8  -8    8.99    1.19
  -1  -8   8    8.53    1.21
   0   8  -8    0.88    0.61
   0   8  -8    0.36    0.81
   0  -8   8    0.38    0.86
  -1   8  -8   -0.14    0.61
  -1   8  -8    0.01    0.64
   1  -8   8    0.46    0.87
  -2   8  -8    3.08    0.81
   2  -8   8    1.50    0.82
  -3   8  -8    7.42    1.17
   3  -8   8    8.30    1.28
   4  -8   8    3.78    1.15
   5  -8   8   24.43    2.05
   6  -8   8    1.84    1.16
   7  -8   8    0.59    1.16
   8  -8   8    0.56    1.18
   9  -8   8    0.39    1.19
  10  -8   8   -0.17    1.25
  11  -8   8   -1.67    1.29
  12  -8   8   -2.28    1.57
  13  -8   8   -2.88    1.55
  14  -8   8    0.24    1.87
  15  -8   8   -2.89    1.79
 -15  -7   8    2.02    2.23
  14   7  -8    0.04    1.45
 -14  -7   8    6.10    2.05
  13   7  -8   -1.48    1.15
 -13  -7   8   -0.50    1.79
  12   7  -8   -0.71    1.21
 -12  -7   8    3.06    1.66
  11   7  -8    1.77    1.17
 -11  -7   8    7.44    1.67
  10   7  -8   -1.20    0.97
 -10  -7   8    0.30    1.36
   9   7  -8   -0.68    0.87
   8   7  -8    2.35    0.99
  -8  -7   8    2.96    1.31
   7   7  -8   -0.88    0.85
  -7  -7   8    1.48    1.18
   6   7  -8    0.22    0.83
   6   7  -8    0.34    0.76
  -6  -7   8    1.28    1.27
  -6  -7   8    0.84    1.10
   5   7  -8   20.26    1.91
   5   7  -8   21.21    1.50
  -5  -7   8   17.11    1.82
  -5  -7   8   17.36    1.71
   4   7  -8    4.44    0.83
   4   7  -8    6.46    0.98
  -4  -7   8    6.60    1.17
   3   7  -8   -0.14    0.77
   3   7  -8    1.38    0.51
  -3  -7   8    1.14    0.86
   2   7  -8    0.23    0.47
   2   7  -8   -0.26    0.71
  -2  -7   8   -0.22    0.80
   1   7  -8    0.90    0.69
   1   7  -8    0.43    0.49
  -1  -7   8    0.89    0.74
   0   7  -8    5.44    0.87
   0   7  -8    4.31    0.67
   0  -7   8    5.83    0.92
  -1   7  -8   24.88    1.49
  -1   7  -8   25.18    1.76
   1  -7   8   23.37    1.54
  -2   7  -8    8.26    1.01
   2  -7   8    5.69    0.91
   3  -7   8    0.14    0.72
   4  -7   8   28.74    1.91
   5  -7   8    4.43    1.15
   6  -7   8    0.23    1.02
   7  -7   8    4.82    1.41
   8  -7   8    1.21    1.16
   9  -7   8    0.56    1.25
  10  -7   8   -1.26    1.12
  11  -7   8   -2.15    1.32
  12  -7   8   -2.14    1.42
  13  -7   8   -1.95    1.45
  14  -7   8   -2.40    1.73
  15  -7   8   -1.98    1.95
  16  -7   8   -2.19    2.18
 -16  -6   8   -1.05    2.34
  15   6  -8   -2.62    1.39
  14   6  -8   -0.83    1.30
 -14  -6   8    0.13    1.87
  13   6  -8   -0.65    1.12
 -13  -6   8    1.74    1.66
  12   6  -8    6.32    1.29
  11   6  -8   -1.09    0.94
 -11  -6   8    2.58    1.40
  10   6  -8    0.12    0.87
 -10  -6   8    0.12    1.27
   9   6  -8    5.62    1.17
   8   6  -8   -0.83    0.79
  -8  -6   8   -0.55    1.12
   7   6  -8    0.36    0.75
  -7  -6   8   -0.76    1.04
   6   6  -8    3.43    0.81
  -6  -6   8    5.65    1.17
   5   6  -8    6.91    1.11
  -5  -6   8    7.61    1.05
  -5  -6   8    7.44    1.13
   4   6  -8   -0.69    0.61
   4   6  -8    0.45    0.50
  -4  -6   8    0.68    0.87
  -4  -6   8   -0.56    0.75
   3   6  -8    2.85    0.73
   3   6  -8    2.00    0.56
  -3  -6   8    3.42    0.84
  -3  -6   8    2.05    0.74
   2   6  -8    0.19    0.63
   2   6  -8    0.73    0.42
  -2  -6   8    0.25    0.59
   1   6  -8    7.50    1.06
   1   6  -8    7.15    1.02
  -1  -6   8    6.45    1.03
   0   6  -8   19.11    1.38
   0   6  -8   20.17    1.35
   0  -6   8   18.36    1.35
   1  -6   8    2.71    0.81
   2  -6   8    0.07    0.65
   3  -6   8    4.31    0.91
   4  -6   8    0.66    0.75
   5  -6   8    1.09    0.89
   6  -6   8    1.35    1.02
   7  -6   8    0.17    1.11
   8  -6   8    0.39    1.12
   9  -6   8   -0.20    1.30
  10  -6   8    1.33    1.30
  11  -6   8    2.58    1.44
  12  -6   8   -2.41    1.41
  13  -6   8   -1.54    1.59
  14  -6   8   -1.85    1.66
  15  -6   8   -3.06    1.80
  16  -6   8   -3.43    2.09
  16   5  -8   -2.52    1.41
 -16  -5   8    0.72    2.36
  15   5  -8   -1.49    1.22
 -15  -5   8   -2.90    1.91
  14   5  -8   -0.54    1.21
 -14  -5   8    2.02    1.84
 -13  -5   8    5.56    1.77
 -12  -5   8    7.04    1.65
  11   5  -8    0.63    1.00
 -11  -5   8    0.70    1.27
  10   5  -8   -0.44    0.93
 -10  -5   8   -1.73    1.14
   9   5  -8    1.13    0.90
  -9  -5   8    1.97    1.19
   8   5  -8    0.80    0.80
  -8  -5   8   -0.27    1.03
   7   5  -8    4.64    1.01
  -7  -5   8    7.89    1.23
  -6  -5   8    2.43    0.93
   5   5  -8    0.03    0.49
  -5  -5   8    0.35    0.76
   4   5  -8    1.43    0.54
   4   5  -8    1.06    0.57
  -4  -5   8    2.08    0.71
  -4  -5   8    1.71    0.66
   3   5  -8    9.34    1.18
   3   5  -8    5.82    0.87
  -3  -5   8    6.26    1.06
  -3  -5   8    6.09    0.90
   2   5  -8    1.66    0.48
  -2  -5   8    1.02    0.64
  -2  -5   8    2.60    0.69
   1   5  -8   17.48    1.26
  -1  -5   8   18.11    1.30
  -1  -5   8   16.29    1.30
   0   5  -8   23.33    1.43
   0  -5   8   24.04    1.50
   1  -5   8    0.38    0.76
   2  -5   8    8.13    1.14
   3  -5   8    6.91    1.14
   4  -5   8    7.60    1.19
   5  -5   8   -0.55    0.65
   7  -5   8    7.74    1.46
   8  -5   8    0.99    1.18
   9  -5   8    3.32    1.29
  10  -5   8    9.49    1.66
  11  -5   8   -1.85    1.33
  12  -5   8   -0.21    1.38
  13  -5   8   -1.50    1.53
  14  -5   8   -2.92    1.58
  15  -5   8   -1.42    1.86
  16  -5   8   -2.30    2.13
  17   4  -8   -2.32    1.63
 -17  -4   8    1.19    2.37
  16   4  -8   -0.97    1.37
 -16  -4   8    0.93    2.13
 -15  -4   8   -0.85    1.83
  14   4  -8   -0.50    1.14
 -14  -4   8    0.31    1.67
  13   4  -8    0.85    1.05
 -13  -4   8    3.03    1.59
  12   4  -8   -1.00    0.93
 -12  -4   8    0.17    1.35
  11   4  -8    0.97    0.90
 -11  -4   8    0.81    1.27
  10   4  -8   -0.22    0.86
 -10  -4   8    0.52    1.18
   9   4  -8    1.35    0.88
  -9  -4   8    1.85    1.16
   8   4  -8    0.23    0.75
  -8  -4   8   -0.47    0.97
  -7  -4   8    0.92    0.92
   6   4  -8    5.67    0.81
  -6  -4   8    9.23    1.23
   5   4  -8    2.97    0.61
  -5  -4   8    2.51    0.72
   4   4  -8   19.04    1.44
  -4  -4   8   18.75    1.20
   3   4  -8    2.13    0.55
  -3  -4   8    2.91    0.60
   2   4  -8   -0.14    0.39
  -2  -4   8    1.03    0.60
  -2  -4   8    0.05    0.58
   1   4  -8   45.64    1.99
  -1  -4   8   44.88    1.99
  -1  -4   8   44.26    1.86
   0  -4   8   17.69    1.41
   1  -4   8    9.38    1.22
   2  -4   8   12.62    1.22
   3  -4   8    0.36    0.62
   4  -4   8   32.61    1.68
   5  -4   8    4.62    0.89
   6  -4   8    5.54    0.94
   8  -4   8   13.24    1.83
   9  -4   8   -0.94    1.08
  10  -4   8    0.86    1.24
  11  -4   8    0.53    1.42
  12  -4   8    2.65    1.62
  13  -4   8   -0.48    1.60
  14  -4   8   -0.57    1.73
  15  -4   8    0.58    2.05
  16  -4   8   -2.59    2.08
  17   3  -8   -2.77    1.34
 -17  -3   8   -2.61    2.13
  16   3  -8   -2.16    1.37
 -16  -3   8   -0.76    1.96
  15   3  -8   -1.28    1.20
 -15  -3   8    1.39    1.74
  14   3  -8    0.25    1.02
 -14  -3   8    2.42    1.70
  13   3  -8   -0.33    0.92
 -13  -3   8    3.00    1.40
  12   3  -8   -0.37    0.94
 -12  -3   8    0.58    1.34
  11   3  -8    7.45    1.31
 -11  -3   8   11.87    1.97
  10   3  -8    0.77    0.86
 -10  -3   8    1.74    1.12
   9   3  -8    1.08    0.78
  -9  -3   8   -0.24    0.95
  -8  -3   8   16.25    1.60
   7   3  -8    2.63    0.62
  -7  -3   8    4.47    0.92
   6   3  -8    4.42    0.70
  -6  -3   8    7.16    1.02
   5   3  -8    0.49    0.51
  -5  -3   8   -1.09    0.56
   4   3  -8   28.84    1.65
  -4  -3   8   29.65    1.44
   3   3  -8    1.51    0.51
  -3  -3   8    2.37    0.55
  -3  -3   8    1.26    0.60
   2   3  -8   18.61    1.31
  -2  -3   8   19.12    1.12
  -2  -3   8   18.00    1.23
  -1  -3   8   12.35    1.03
  -1  -3   8   10.75    1.11
   0  -3   8    0.18    0.63
   0  -3   8   -0.29    0.61
   1  -3   8    3.08    0.74
   2  -3   8   45.97    2.01
   3  -3   8    5.48    0.91
   4  -3   8    4.85    0.78
   5  -3   8   12.67    1.13
   6  -3   8    0.37    0.67
   7  -3   8    2.52    1.02
   8  -3   8    6.18    1.32
   9  -3   8    5.61    1.34
  10  -3   8   -0.57    1.11
  11  -3   8   -0.18    1.33
  12  -3   8    0.52    1.44
  13  -3   8   -0.09    1.59
  14  -3   8   -0.79    1.78
  15  -3   8   -1.14    1.91
  16  -3   8    5.82    2.60
  16  -3   8    0.17    2.39
 -18  -2   8   -4.07    2.33
  17   2  -8   -2.36    1.43
 -17  -2   8   -2.42    2.16
  16   2  -8    0.27    1.39
 -16  -2   8   -0.84    1.88
  15   2  -8   -0.58    1.13
 -15  -2   8    0.25    1.64
  14   2  -8    0.35    1.08
 -14  -2   8    0.28    1.59
  13   2  -8    0.12    1.01
 -13  -2   8    1.81    1.36
  12   2  -8    0.05    0.84
 -12  -2   8    1.31    1.32
  11   2  -8    4.10    1.00
  10   2  -8    0.49    0.74
 -10  -2   8    2.29    1.06
   9   2  -8   18.50    1.96
  -9  -2   8   15.74    1.59
   8   2  -8   13.67    1.35
  -8  -2   8   12.19    1.28
   7   2  -8    0.81    0.44
  -7  -2   8    1.23    0.66
   6   2  -8    0.16    0.39
  -6  -2   8    0.19    0.55
   5   2  -8    0.19    0.40
  -5  -2   8    0.87    0.63
   4   2  -8    0.87    0.43
   3   2  -8    0.40    0.45
  -3  -2   8    0.52    0.60
  -3  -2   8    0.05    0.46
  -2  -2   8    9.14    0.97
  -1  -2   8    3.14    0.71
   0  -2   8    0.06    0.63
   1  -2   8   49.95    2.05
   2  -2   8   -0.14    0.56
   3  -2   8   15.38    1.16
   4  -2   8   37.99    1.75
   5  -2   8    1.74    0.72
   6  -2   8    3.43    0.93
   7  -2   8    5.45    1.14
   9  -2   8    1.85    1.29
  10  -2   8    0.42    1.15
  11  -2   8    2.49    1.36
  12  -2   8    2.78    1.50
  13  -2   8   -0.51    1.56
  14  -2   8    5.23    2.18
  14  -2   8    0.13    1.86
  15  -2   8    2.18    2.24
  15  -2   8   -1.69    2.12
  18   1  -8   -1.27    1.61
 -18  -1   8   -2.83    2.21
  17   1  -8   -0.63    1.35
 -17  -1   8   -1.34    1.93
  16   1  -8   -0.92    1.17
 -16  -1   8   -0.96    1.84
  15   1  -8    0.63    1.23
 -15  -1   8    1.27    1.66
  14   1  -8    0.18    1.10
 -14  -1   8    2.20    1.57
  13   1  -8    0.31    0.90
 -13  -1   8    0.22    1.26
  12   1  -8    4.14    0.97
 -12  -1   8    6.29    1.44
  11   1  -8    0.61    0.72
 -11  -1   8    1.65    1.19
  10   1  -8    2.51    0.81
 -10  -1   8    3.35    1.18
   9   1  -8   10.73    1.51
  -9  -1   8   10.94    1.37
   8   1  -8    2.54    0.56
  -8  -1   8    3.01    0.72
   7   1  -8    0.35    0.42
  -7  -1   8    0.33    0.54
   6   1  -8    2.82    0.55
  -6  -1   8    3.46    0.80
   5   1  -8    2.16    0.48
   4   1  -8    1.14    0.41
  -4  -1   8    0.87    0.62
  -3  -1   8    4.28    0.63
  -3  -1   8    3.84    0.73
  -2  -1   8    7.73    0.90
  -1  -1   8    0.83    0.58
   0  -1   8   14.62    1.06
   1  -1   8   15.78    1.09
   2  -1   8    7.03    0.95
   3  -1   8    1.60    0.65
   4  -1   8    4.47    0.82
   5  -1   8   -0.02    0.78
   6  -1   8    4.02    0.99
   7  -1   8    3.34    1.11
   8  -1   8    8.57    1.43
   9  -1   8    0.41    1.14
  10  -1   8    2.35    1.28
  11  -1   8    1.39    1.39
  12  -1   8   -0.58    1.48
  12  -1   8    2.65    1.75
  13  -1   8    1.78    1.80
  13  -1   8    0.94    1.74
  14  -1   8   -0.08    2.01
  14  -1   8   -0.28    1.87
  15  -1   8    1.53    2.19
  15  -1   8   -0.77    2.13
  18   0  -8   -0.97    1.47
  17   0  -8   -0.42    1.30
 -17   0   8    0.06    2.01
  16   0  -8   -0.35    1.21
 -16   0   8   -0.21    1.71
  15   0  -8    0.48    1.04
 -15   0   8   -0.69    1.59
 -14   0   8    4.58    1.54
  13   0  -8   -0.18    0.81
 -13   0   8   -0.82    1.30
  12   0  -8    0.87    0.80
 -12   0   8    2.24    1.25
  11   0  -8    1.03    0.81
 -11   0   8    0.62    1.05
  10   0  -8    0.02    0.64
 -10   0   8    0.49    0.98
   9   0  -8    2.88    0.75
   8   0  -8    0.17    0.51
  -8   0   8    0.58    0.61
   7   0  -8    2.02    0.55
  -7   0   8    2.69    0.73
   6   0  -8    0.46    0.39
  -6   0   8   -0.24    0.58
   5   0  -8    7.58    0.97
  -5   0   8    6.65    1.05
   4   0  -8   10.78    1.03
  -4   0   8   10.85    1.06
  -4   0   8   11.69    0.85
  -3   0   8   29.31    1.42
  -3   0   8   29.18    1.27
  -2   0   8    3.39    0.67
  -2   0   8    3.16    0.64
  -1   0   8    0.09    0.44
  -1   0   8    0.62    0.52
   0   0   8    7.01    0.90
   0   0   8    8.09    0.86
   1   0   8   10.01    0.93
   2   0   8    0.59    0.60
   3   0   8    6.55    0.90
   4   0   8   -1.31    0.64
   5   0   8    8.91    1.31
   6   0   8    5.20    1.12
   7   0   8    1.55    1.04
   8   0   8    1.16    1.37
   8   0   8    0.25    1.12
   9   0   8    4.21    1.60
   9   0   8    3.73    1.37
  10   0   8    1.94    1.45
  10   0   8    0.78    1.19
  11   0   8    2.18    1.41
  11   0   8    3.10    1.59
  12   0   8    2.74    1.65
  12   0   8    1.57    1.56
  13   0   8   -1.16    1.65
  13   0   8    2.23    1.82
  14   0   8    3.02    1.89
  14   0   8    1.58    2.01
  15   0   8   -0.04    2.17
  15   0   8    2.35    2.44
  18  -1  -8   -0.06    1.40
 -18   1   8   -3.84    1.99
  17  -1  -8    2.40    1.32
 -17   1   8    2.82    1.92
  16  -1  -8   -1.21    1.09
 -16   1   8   -1.10    1.56
  15  -1  -8   -0.28    1.02
 -15   1   8   -1.03    1.49
  14  -1  -8    0.44    0.93
 -14   1   8    0.79    1.38
  13  -1  -8    0.42    0.86
 -13   1   8   -0.72    1.08
  12  -1  -8    1.38    0.82
 -12   1   8    0.51    1.10
  11  -1  -8    0.27    0.79
 -11   1   8   -0.10    1.07
  10  -1  -8    3.42    0.87
 -10   1   8    3.00    1.10
   9  -1  -8    1.80    0.68
   8  -1  -8    3.32    0.70
  -8   1   8    4.93    0.82
   7  -1  -8    7.77    1.15
  -7   1   8    6.82    1.02
   6  -1  -8    0.36    0.44
  -6   1   8   -0.26    0.57
   5  -1  -8    0.63    0.41
  -5   1   8   -0.18    0.59
   4  -1  -8    0.55    0.62
  -4   1   8    0.35    0.60
  -4   1   8   -0.24    0.55
  -3   1   8    0.09    0.53
  -3   1   8    0.58    0.51
  -2   1   8    5.80    0.73
  -2   1   8    6.84    0.86
  -1   1   8   17.85    1.04
  -1   1   8   19.49    1.15
   0   1   8    0.01    0.54
   0   1   8   -0.05    0.44
  -1  -1  -8    9.18    1.07
   1   1   8    9.34    0.97
   1   1   8    7.67    0.96
   2   1   8   53.27    2.04
   2   1   8   49.12    2.19
   3   1   8   25.27    1.59
   3   1   8   23.52    1.46
   4   1   8   -0.94    0.66
   4   1   8   -0.17    0.78
   5   1   8   14.81    1.41
   6   1   8    8.83    1.18
   6   1   8    7.13    1.50
   7   1   8    0.73    1.34
   7   1   8    4.07    1.19
   8   1   8    0.98    1.11
   8   1   8   -0.42    1.24
   9   1   8   -0.77    1.17
   9   1   8   -0.56    1.24
  10   1   8    1.49    1.35
  11   1   8    2.64    1.48
  11   1   8    0.97    1.47
  12   1   8    5.85    1.81
  12   1   8    3.80    1.67
  13   1   8    2.10    1.69
  13   1   8    1.23    1.77
  14   1   8    1.97    2.03
  14   1   8    3.59    1.95
  15   1   8    6.38    2.45
  15   1   8    0.83    2.54
  18  -2  -8    0.19    1.43
 -18   2   8    0.60    1.99
  17  -2  -8    0.15    1.23
 -17   2   8    1.03    1.69
  16  -2  -8    0.13    1.09
 -16   2   8   -1.55    1.51
  15  -2  -8    0.58    1.04
 -15   2   8   -0.29    1.43
  14  -2  -8   -0.56    0.93
 -14   2   8    2.62    1.51
 -13   2   8    0.90    1.30
 -12   2   8    3.38    1.32
  11  -2  -8    1.12    0.82
 -11   2   8    0.68    1.15
  10  -2  -8    5.43    0.90
 -10   2   8    6.30    1.25
   9  -2  -8    0.16    0.64
   8  -2  -8   11.84    1.38
  -8   2   8    8.97    1.07
   7  -2  -8    0.52    0.50
  -7   2   8   -0.24    0.59
   6  -2  -8    4.65    0.76
  -6   2   8    4.98    0.76
  -6   2   8    4.66    0.80
   5  -2  -8   10.39    1.01
  -5   2   8   12.91    1.03
  -5   2   8    9.85    1.01
   4  -2  -8    4.59    0.73
  -4   2   8    4.45    0.74
   3  -2  -8   -0.11    0.59
  -3   2   8   -1.29    0.69
  -3   2   8   -0.14    0.46
  -2   2   8   23.80    1.31
  -2   2   8   23.65    1.22
   1  -2  -8    8.15    1.19
  -1   2   8   10.19    0.88
  -1   2   8    9.34    0.91
   0  -2  -8   12.22    1.22
   0   2   8   12.42    1.00
   0   2   8   11.03    0.99
  -1  -2  -8   63.37    2.40
   1   2   8   61.94    2.49
   1   2   8   64.88    2.28
  -2  -2  -8    5.98    0.92
   2   2   8    6.76    1.05
   2   2   8    6.43    0.85
  -3  -2  -8    0.71    0.86
   3   2   8    1.86    0.78
   3   2   8    0.01    0.68
   4   2   8    0.58    0.77
   4   2   8   -0.03    0.81
   5   2   8   11.17    1.44
   5   2   8   11.77    1.80
   6   2   8    3.30    1.07
   6   2   8    3.29    1.33
   7   2   8   -0.05    1.14
   7   2   8    0.43    1.06
   8   2   8    0.95    1.15
   8   2   8    0.42    1.16
   9   2   8    0.81    1.24
   9   2   8    1.71    1.39
  10   2   8    0.36    1.38
  10   2   8   -0.70    1.40
  11   2   8    4.42    1.76
  12   2   8   -0.14    1.80
  12   2   8    0.26    1.54
  13   2   8    0.99    1.86
  13   2   8    1.26    2.11
  14   2   8    0.63    2.28
  18  -3  -8   -2.11    1.37
 -18   3   8   -0.12    1.91
 -17   3   8   -0.04    1.64
  16  -3  -8   -1.27    1.07
 -16   3   8   -0.02    1.50
  15  -3  -8   -0.77    0.97
 -15   3   8    0.29    1.49
  14  -3  -8   -0.13    0.88
 -14   3   8   -0.93    1.27
 -13   3   8    1.01    1.21
  12  -3  -8    1.78    0.91
 -12   3   8    2.48    1.24
  11  -3  -8    0.58    0.82
 -11   3   8    0.09    1.08
  10  -3  -8    0.76    0.76
  10  -3  -8    0.05    1.35
 -10   3   8   -0.48    0.99
   9  -3  -8    3.11    0.73
   9  -3  -8    3.51    1.13
  -9   3   8    2.65    1.01
  -9   3   8    3.91    0.80
   8  -3  -8   -0.32    0.91
   8  -3  -8   -0.01    0.59
  -8   3   8    0.30    0.64
  -8   3   8    0.27    0.66
   7  -3  -8    8.09    1.35
  -7   3   8   10.51    1.03
  -7   3   8   10.59    1.13
  -6   3   8   12.52    1.25
  -6   3   8   11.64    0.98
   5  -3  -8   10.21    1.22
  -5   3   8   11.39    0.94
  -5   3   8   12.21    1.28
   4  -3  -8    3.43    0.80
  -4   3   8    2.77    0.81
  -4   3   8    2.48    0.61
  -3   3   8    1.19    0.58
  -2   3   8   64.61    2.45
  -2   3   8   64.46    2.29
   1  -3  -8   -0.27    0.73
  -1   3   8   -0.22    0.49
  -1   3   8    0.67    0.67
   0  -3  -8   17.94    1.39
   0   3   8   19.59    1.30
   0   3   8   19.91    1.16
  -1  -3  -8    1.15    0.83
   1   3   8    1.80    0.74
   1   3   8    2.24    0.67
  -2  -3  -8    2.64    0.85
   2   3   8    3.09    0.69
   2   3   8    3.13    0.76
  -3  -3  -8    0.15    0.88
   3   3   8    0.01    0.73
   3   3   8    0.16    0.68
   4   3   8    4.87    0.94
   4   3   8    4.01    0.94
   5   3   8    5.77    1.12
   5   3   8    6.45    1.04
   5   3   8    5.09    1.25
   6   3   8    0.95    1.22
   6   3   8    0.71    0.98
   7   3   8   -0.47    1.10
   7   3   8    0.69    1.28
   8   3   8    2.06    1.32
   8   3   8    0.65    1.07
   9   3   8    1.37    1.25
   9   3   8    2.19    1.35
  10   3   8    0.82    1.43
  10   3   8    2.06    1.60
  11   3   8    2.04    1.66
  11   3   8    1.28    1.60
  12   3   8   -1.45    1.82
  13   3   8   -3.03    2.01
  14   3   8   -4.51    2.41
 -19   4   8    1.92    2.14
 -17   4   8   -0.75    1.65
  16  -4  -8   -1.01    1.07
 -16   4   8   -0.46    1.45
  15  -4  -8   -0.94    0.97
 -15   4   8    1.13    1.35
 -14   4   8    1.07    1.35
  13  -4  -8    2.31    1.02
 -13   4   8    3.82    1.39
  12  -4  -8    0.72    0.85
 -12   4   8    0.53    1.17
  11  -4  -8    2.86    0.86
 -11   4   8    2.82    1.02
 -11   4   8    2.12    1.14
  10  -4  -8    0.49    0.75
 -10   4   8    1.04    0.93
 -10   4   8    0.72    0.92
   9  -4  -8    6.78    0.92
  -9   4   8    8.82    1.31
  -9   4   8    8.10    1.27
  -8   4   8    0.47    0.62
  -8   4   8    0.13    0.82
  -7   4   8   13.93    1.41
  -7   4   8   13.91    1.07
  -6   4   8    4.67    0.79
  -6   4   8    6.79    1.06
  -5   4   8    2.80    0.94
  -5   4   8    1.75    0.56
  -4   4   8   15.64    1.12
  -4   4   8   12.40    1.41
  -3   4   8   14.68    1.09
  -3   4   8    9.24    1.29
  -2   4   8   16.19    1.38
  -2   4   8   16.31    1.21
   1  -4  -8    0.02    0.80
  -1   4   8    0.48    0.65
  -1   4   8    1.79    0.71
   0  -4  -8    3.53    0.92
   0   4   8    2.43    0.75
   0   4   8    3.22    0.91
  -1  -4  -8    0.20    0.80
   1   4   8    0.17    0.57
   1   4   8   -0.38    0.68
  -2  -4  -8    8.00    1.29
   2   4   8    7.79    1.05
   2   4   8   10.65    1.34
  -3  -4  -8   11.42    1.34
   3   4   8   10.54    1.14
   4   4   8    8.19    1.31
   4   4   8    8.46    1.02
   4   4   8    7.05    1.42
   5   4   8   -0.76    0.88
   5   4   8   -0.50    1.24
   5   4   8    0.00    0.86
   6   4   8    5.72    1.13
   6   4   8    2.78    1.47
   7   4   8   -0.71    1.01
   7   4   8   -0.35    1.31
   8   4   8    1.94    1.54
   8   4   8    1.88    1.22
   9   4   8   -2.50    1.37
  10   4   8    0.34    1.73
  10   4   8    1.80    1.57
  11   4   8   -2.51    1.68
  11   4   8    0.44    1.87
  12   4   8    0.62    2.01
  13   4   8   -0.08    2.11
 -19   5   8    2.01    2.15
  18  -5  -8   -2.23    1.37
 -18   5   8   -2.33    1.54
 -17   5   8   -2.23    1.48
  16  -5  -8   -1.48    1.03
 -16   5   8   -2.19    1.36
 -15   5   8    1.28    1.42
  14  -5  -8    1.71    1.04
 -14   5   8    2.06    1.28
  13  -5  -8    1.99    0.95
 -13   5   8    1.33    1.23
  12  -5  -8   -0.35    0.85
 -12   5   8    0.71    1.15
 -12   5   8    0.10    1.13
  11  -5  -8    0.60    0.85
 -11   5   8    0.16    1.08
 -11   5   8    2.31    1.15
 -10   5   8   -0.67    0.98
 -10   5   8    0.13    1.02
  -9   5   8    0.48    0.97
  -9   5   8    1.91    0.96
  -8   5   8   -0.11    0.98
  -7   5   8    8.37    1.03
  -7   5   8    9.11    1.24
  -6   5   8    1.26    0.58
  -6   5   8    0.64    0.99
  -5   5   8   14.37    1.51
  -5   5   8   15.51    1.15
  -4   5   8   19.30    1.27
  -4   5   8   19.57    1.51
  -3   5   8    1.25    0.68
  -3   5   8    1.70    0.73
  -2   5   8    0.96    0.76
  -2   5   8    0.85    0.69
   1  -5  -8    0.26    0.89
  -1   5   8    0.12    0.67
  -1   5   8   -0.11    0.83
   0  -5  -8    6.14    1.07
   0   5   8    8.10    1.51
   0   5   8    5.87    0.85
  -1  -5  -8    5.86    0.99
   1   5   8    4.72    1.15
   1   5   8    7.05    0.87
   3   5   8   14.76    1.95
   4   5   8    2.77    1.37
   5   5   8    1.06    1.39
   6   5   8   -0.91    1.29
   7   5   8   -1.19    1.37
   8   5   8    3.20    1.69
   9   5   8   -0.26    1.52
  10   5   8   -2.09    1.56
  11   5   8   -1.12    1.86
  12   5   8    2.24    2.07
  13   5   8   -0.08    2.19
 -18   6   8   -1.60    1.69
 -17   6   8    0.79    1.70
 -16   6   8   -0.20    1.45
  15  -6  -8    0.73    1.19
 -15   6   8   -0.32    1.40
  14  -6  -8   -0.30    1.05
 -14   6   8    0.25    1.21
 -13   6   8   -0.53    1.40
 -13   6   8   -0.95    1.06
 -12   6   8    0.84    1.17
 -12   6   8    0.82    1.24
 -11   6   8    5.53    1.34
 -11   6   8    6.31    1.37
 -10   6   8    1.05    1.03
 -10   6   8    1.64    1.14
  -9   6   8    0.38    1.13
  -9   6   8   -0.43    0.97
  -8   6   8    2.54    0.98
  -8   6   8    1.44    1.13
  -7   6   8    2.81    0.83
  -7   6   8    2.65    1.19
  -6   6   8    1.33    1.09
  -6   6   8    1.12    0.70
  -5   6   8    7.41    1.22
  -5   6   8    6.95    1.02
  -4   6   8    9.47    1.17
  -4   6   8    8.75    1.16
  -3   6   8    6.22    0.94
  -3   6   8    8.47    1.24
  -2   6   8    1.06    0.74
  -2   6   8    0.37    0.71
   1  -6  -8   -0.38    0.97
  -1   6   8    1.47    0.73
  -1   6   8    1.81    1.09
   0  -6  -8   -0.88    0.98
   0   6   8    0.22    0.71
   1   6   8    2.20    1.81
   2   6   8    7.77    1.73
   3   6   8    4.29    1.47
   4   6   8    1.80    1.48
   5   6   8    0.37    1.56
   6   6   8    0.96    1.46
   7   6   8    1.31    1.58
   8   6   8    5.18    1.93
   9   6   8   -1.20    1.68
  10   6   8   -1.15    2.02
  11   6   8   -0.62    2.32
  12   6   8    1.06    2.29
 -16   7   8   -1.29    1.31
 -15   7   8    0.68    1.39
 -14   7   8    0.40    1.29
 -13   7   8    1.54    1.30
 -13   7   8    1.91    1.52
 -12   7   8    1.02    1.10
 -12   7   8    1.91    1.43
 -11   7   8   -0.29    1.35
 -11   7   8   -0.80    1.11
 -10   7   8    1.92    1.32
 -10   7   8    2.16    1.23
  -9   7   8    0.53    0.85
  -9   7   8   -0.11    1.02
  -9   7   8   -0.63    1.22
  -8   7   8   11.55    1.60
  -8   7   8    9.98    1.37
  -8   7   8    7.10    0.97
  -7   7   8   -1.56    1.19
  -7   7   8    1.40    0.89
  -6   7   8   12.48    1.36
  -6   7   8   13.98    1.87
  -5   7   8    8.20    1.25
  -5   7   8    9.97    1.71
  -4   7   8    2.31    1.11
  -4   7   8    1.62    0.87
  -3   7   8    0.33    0.95
  -3   7   8   -0.36    0.76
  -2   7   8    2.02    0.90
   1  -7  -8    8.94    1.26
  -1   7   8    8.00    1.19
  -1   7   8    8.88    1.50
   0   7   8    0.57    0.77
   0   7   8    0.57    1.55
   1   7   8    3.14    1.78
   2   7   8    3.88    1.93
   3   7   8    2.73    2.29
   4   7   8    2.09    2.44
   5   7   8    0.28    1.95
   6   7   8    2.74    1.93
   7   7   8    4.54    2.06
   8   7   8    5.87    1.96
   9   7   8    0.38    1.73
  10   7   8    2.11    2.61
  11   7   8    0.35    2.70
 -18   8   8    1.27    1.72
 -17   8   8   -0.22    1.62
 -16   8   8   -2.66    1.29
 -15   8   8   -1.40    1.32
 -14   8   8   -0.98    1.24
 -14   8   8    3.20    1.60
 -13   8   8    3.00    1.43
 -13   8   8    5.63    1.52
 -12   8   8    5.47    1.43
 -12   8   8    6.53    1.61
 -11   8   8   -0.38    1.09
 -11   8   8   -0.98    1.37
 -10   8   8    0.21    1.12
  -9   8   8    0.79    1.16
  -8   8   8    1.63    0.86
  -8   8   8    2.34    1.10
  -6   8   8    4.52    1.17
  -5   8   8   -0.20    0.90
  -4   8   8   -0.73    1.45
  -4   8   8    1.89    0.93
  -3   8   8    1.27    1.13
  -2   8   8    1.23    1.42
  -2   8   8    1.18    0.83
   1  -8  -8   -0.08    1.19
  -1   8   8   -2.31    1.29
  -1   8   8    0.52    0.79
   0   8   8    6.65    1.54
   1   8   8   -0.06    1.72
   2   8   8    1.16    1.89
   3   8   8    2.49    2.13
   4   8   8    2.03    2.13
   5   8   8    2.82    2.45
   6   8   8    1.31    2.42
   7   8   8    7.44    2.77
   8   8   8    6.01    2.93
   9   8   8    3.36    3.09
  10   8   8    3.01    3.17
  11   8   8   -1.27    2.98
 -18   9   8    2.01    1.87
 -17   9   8   -0.59    1.44
 -16   9   8   -0.67    1.52
 -15   9   8   -2.22    1.38
 -15   9   8    0.42    1.87
 -14   9   8    2.37    1.75
 -14   9   8   -0.23    1.21
 -13   9   8    3.19    1.75
 -13   9   8    0.95    1.31
 -12   9   8    0.05    1.28
 -12   9   8    0.32    1.60
 -11   9   8   -0.08    1.51
 -11   9   8    1.33    1.33
 -10   9   8    2.54    1.22
 -10   9   8    3.44    1.53
  -9   9   8    0.51    1.45
  -9   9   8   -0.26    1.15
  -8   9   8    0.20    1.37
  -8   9   8    0.67    1.19
  -7   9   8    4.57    1.24
  -7   9   8    8.78    1.73
  -6   9   8   -1.85    1.29
  -6   9   8    1.90    1.10
  -5   9   8    2.52    1.11
  -5   9   8    2.07    1.48
  -4   9   8   -0.29    0.97
  -4   9   8    0.24    1.35
  -3   9   8    0.95    1.65
  -3   9   8    1.97    0.98
  -2   9   8    4.74    1.52
  -2   9   8    6.84    1.05
  -1   9   8    6.39    0.98
  -1   9   8    4.63    1.87
   0   9   8   -0.96    1.54
   1   9   8    0.30    1.57
   2   9   8    5.40    1.70
   3   9   8   -0.52    1.91
   4   9   8   -1.57    2.01
   5   9   8   -0.36    2.13
   6   9   8   -0.61    2.32
   7   9   8   -2.21    2.42
   8   9   8    0.60    2.60
   9   9   8   -0.73    2.84
  10   9   8   -0.60    2.85
 -16  10   8    1.96    1.64
 -15  10   8    2.67    1.97
 -15  10   8    0.48    1.53
 -14  10   8    0.37    1.34
 -14  10   8    4.76    1.89
 -13  10   8   -1.63    1.24
 -13  10   8    0.75    1.74
 -12  10   8   -1.23    1.70
 -12  10   8   -0.90    1.26
 -11  10   8    0.62    1.34
 -11  10   8    0.37    1.68
 -10  10   8    2.80    1.68
 -10  10   8    0.43    1.28
  -9  10   8    1.24    1.50
  -9  10   8   -0.76    1.16
  -8  10   8   -0.44    1.16
  -8  10   8   -0.03    1.49
  -7  10   8    5.16    1.60
  -7  10   8    2.04    1.20
  -6  10   8   -0.56    1.39
  -6  10   8    2.27    1.25
  -5  10   8    0.47    1.17
  -5  10   8   -0.70    1.34
  -4  10   8    4.04    1.21
  -4  10   8    4.21    1.61
  -3  10   8   -1.49    1.44
  -3  10   8    1.28    1.06
  -2  10   8    1.30    0.95
  -2  10   8    0.07    1.50
  -1  10   8    2.46    1.56
   0  10   8    1.04    1.72
   1  10   8   -0.43    1.67
   2  10   8   -1.63    1.56
   3  10   8   -0.18    1.72
   4  10   8    2.27    1.89
   5  10   8    2.17    1.98
   6  10   8    1.61    2.13
   7  10   8   -3.95    2.34
   8  10   8   -3.02    2.68
   9  10   8   -5.51    2.82
 -17  11   8    0.23    1.74
 -16  11   8   -0.09    1.67
 -16  11   8    2.96    2.44
 -15  11   8   -0.30    2.08
 -15  11   8    0.43    1.48
 -14  11   8    6.11    2.23
 -14  11   8    1.95    1.66
 -13  11   8   -0.73    1.39
 -13  11   8   -1.23    1.93
 -12  11   8   -0.56    1.84
 -12  11   8   -0.46    1.38
 -11  11   8    0.41    1.71
 -11  11   8   -0.41    1.42
 -10  11   8   -1.39    1.24
 -10  11   8    2.57    1.65
  -9  11   8    0.31    1.66
  -8  11   8    2.47    1.57
  -8  11   8   -0.34    1.26
  -7  11   8    4.70    1.67
  -7  11   8    1.43    1.29
  -6  11   8    0.77    1.46
  -5  11   8    0.94    1.24
  -5  11   8   -0.42    1.38
  -4  11   8    0.85    1.20
  -4  11   8    0.93    1.47
  -3  11   8    0.33    1.32
  -3  11   8    0.61    1.09
  -2  11   8    3.68    1.82
  -1  11   8   -0.50    1.61
   0  11   8   -0.93    1.45
   1  11   8   -1.38    1.56
   2  11   8   -1.47    2.01
   3  11   8    0.23    2.08
   4  11   8    4.62    2.06
   5  11   8    0.07    2.23
   6  11   8   -1.73    2.11
   7  11   8   -1.29    2.28
   8  11   8    1.02    2.83
 -16  12   8    4.89    2.56
 -15  12   8   -1.95    1.64
 -15  12   8    2.80    2.24
 -14  12   8    0.16    1.60
 -14  12   8    2.00    2.27
 -13  12   8    1.27    2.12
 -13  12   8    0.80    1.59
 -12  12   8    0.99    1.42
 -12  12   8   -1.20    1.90
 -11  12   8    1.92    1.48
 -11  12   8   -1.45    1.79
 -10  12   8    1.14    1.92
 -10  12   8    1.62    1.40
  -9  12   8    2.27    1.43
  -9  12   8    3.22    1.85
  -8  12   8    3.40    1.47
  -8  12   8    2.71    1.66
  -7  12   8    0.69    1.53
  -7  12   8   -0.35    1.25
  -6  12   8    1.56    1.60
  -6  12   8    3.03    1.31
  -5  12   8   -0.28    1.33
  -5  12   8   -1.41    1.41
  -4  12   8    1.72    1.33
  -4  12   8    1.64    1.65
  -3  12   8    3.61    1.74
  -3  12   8    3.07    1.27
  -2  12   8    1.89    1.59
  -1  12   8   -1.89    1.79
   0  12   8   -1.64    1.74
   1  12   8   -0.01    1.57
   2  12   8   -1.04    1.71
   3  12   8    0.96    1.97
   4  12   8    5.13    2.56
   5  12   8   -2.47    2.29
   6  12   8    3.89    2.83
 -16  13   8    2.93    1.86
 -16  13   8    0.68    2.60
 -15  13   8    4.45    2.66
 -15  13   8    1.02    1.80
 -14  13   8    0.48    1.95
 -14  13   8   -0.53    2.26
 -13  13   8    0.72    1.69
 -13  13   8    3.07    2.31
 -12  13   8   -0.18    1.68
 -12  13   8   -2.40    2.05
 -11  13   8   -0.63    1.59
 -11  13   8    1.04    1.90
 -10  13   8    1.87    1.65
 -10  13   8    1.96    2.10
  -9  13   8    2.15    1.96
  -9  13   8    2.10    1.60
  -8  13   8    1.70    1.85
  -8  13   8    0.50    1.51
  -7  13   8    0.84    1.44
  -7  13   8    1.71    1.70
  -6  13   8    4.31    1.63
  -6  13   8    4.16    1.53
  -5  13   8    3.12    1.56
  -5  13   8    1.37    1.81
  -4  13   8    1.62    1.71
  -4  13   8    3.41    1.52
  -3  13   8    3.25    1.68
  -2  13   8    1.78    1.67
  -1  13   8    1.96    1.63
   0  13   8    0.22    1.56
   1  13   8   -0.55    2.03
   2  13   8    0.05    2.10
   3  13   8    2.30    1.90
   4  13   8   -1.17    2.06
   5  13   8   -2.12    2.50
   6  13   8   -1.26    2.54
 -15  14   8    1.86    2.82
 -14  14   8    3.25    2.67
 -14  14   8    1.41    1.88
 -13  14   8    2.45    1.85
 -13  14   8    2.93    2.69
 -12  14   8   -1.60    2.21
 -12  14   8    1.00    1.92
 -11  14   8    3.67    1.86
 -11  14   8    2.62    2.16
 -10  14   8    2.67    1.70
 -10  14   8    4.25    2.03
  -9  14   8    0.46    1.68
  -9  14   8    0.80    2.00
  -8  14   8    4.25    1.80
  -8  14   8   -0.21    1.62
  -7  14   8    1.61    1.58
  -7  14   8    1.74    1.79
  -6  14   8    0.84    1.45
  -6  14   8    4.59    1.90
  -5  14   8    2.62    1.83
  -4  14   8    2.69    1.56
  -4  14   8   -1.27    1.59
  -3  14   8    2.90    1.68
  -2  14   8    1.59    1.80
  -1  14   8    1.11    1.71
   0  14   8    2.33    1.86
   1  14   8    0.64    1.89
   2  14   8    1.56    2.61
   3  14   8   -3.10    2.24
 -14  15   8    0.82    2.80
 -14  15   8    1.21    2.39
 -13  15   8   -1.35    2.65
 -13  15   8   -0.05    2.08
 -12  15   8    0.38    1.98
 -12  15   8   -2.22    2.45
 -11  15   8   -3.16    2.15
 -11  15   8   -1.10    2.01
 -10  15   8   -0.90    2.03
 -10  15   8    4.23    2.32
  -9  15   8    0.61    1.87
  -9  15   8    2.12    1.90
  -8  15   8    4.15    2.00
  -8  15   8    3.47    1.86
  -7  15   8    1.41    2.02
  -7  15   8    2.16    1.64
  -6  15   8    1.50    1.55
  -6  15   8    3.30    1.90
  -5  15   8    3.52    1.76
  -4  15   8    3.60    2.00
  -3  15   8   -1.74    1.72
  -2  15   8    1.55    1.84
  -1  15   8    2.18    1.93
   0  15   8    1.43    2.14
   1  15   8    1.34    2.44
   2  15   8    3.92    2.46
 -12  16   8    2.46    2.32
 -12  16   8   -1.56    2.52
 -11  16   8    0.40    2.22
 -11  16   8    0.40    2.47
 -10  16   8    0.08    2.20
 -10  16   8   -2.72    1.96
  -9  16   8    2.64    2.15
  -9  16   8   -2.55    1.95
  -8  16   8    2.01    2.14
  -8  16   8    2.78    1.96
  -7  16   8    0.10    1.80
  -7  16   8    1.15    1.87
  -6  16   8    0.61    2.21
  -5  16   8    1.09    1.95
  -4  16   8    3.02    2.05
  -3  16   8    2.19    1.93
  -1  16   8    2.11    2.25
   0  16   8    3.31    2.29
  -9  17   8   -0.40    2.19
  -9  17   8    3.55    2.31
  -8  17   8    3.38    2.18
  -8  17   8    4.16    2.41
  -7  17   8    5.39    2.30
  -6  17   8    0.34    2.23
  -5  17   8    2.41    2.18
  -4  17   8    3.01    2.13
  -3  17   8    2.06    2.02
   1  18  -9   -0.57    1.86
   1  18  -9    1.51    2.54
   0  18  -9    0.15    1.79
   0  18  -9    2.04    2.37
   0 -18   9    8.36    2.55
  -1  18  -9    4.37    2.40
  -1  18  -9   -0.86    1.80
   1 -18   9    1.85    2.51
  -2  18  -9    1.51    1.85
  -2  18  -9    2.08    2.12
   2 -18   9    0.38    2.42
  -3  18  -9    1.52    2.25
   3 -18   9   -0.03    2.31
  -4  18  -9    3.39    2.05
   4 -18   9   -1.20    2.28
  -5  18  -9    0.34    2.15
   5 -18   9    0.33    2.32
   6 -18   9   -3.73    2.32
  -7  18  -9    3.17    2.12
   7 -18   9   -3.28    2.37
   4  17  -9   -2.00    2.37
   3  17  -9   -2.02    1.82
   3  17  -9   -0.67    2.11
   2  17  -9   -1.69    1.62
   2  17  -9    0.05    2.19
  -2 -17   9    0.76    2.20
   1  17  -9   -0.55    1.67
   1  17  -9    0.94    2.12
  -1 -17   9    1.38    2.29
   0  17  -9    1.53    1.93
   0  17  -9    0.97    1.60
   0 -17   9    0.76    2.24
  -1  17  -9    0.58    1.96
  -1  17  -9   -2.94    1.49
   1 -17   9    0.25    2.04
  -2  17  -9    1.93    1.59
  -2  17  -9    2.06    1.99
   2 -17   9   -0.53    2.09
  -3  17  -9    2.39    1.94
   3 -17   9   -0.12    2.05
  -4  17  -9    2.15    1.85
   4 -17   9    0.27    2.07
  -5  17  -9    0.89    1.78
   5 -17   9   -3.08    1.90
  -6  17  -9    2.49    1.90
   6 -17   9    0.69    2.12
  -7  17  -9   -1.34    1.82
   7 -17   9   -2.52    2.15
   8 -17   9   -1.34    2.07
   9 -17   9   -1.61    2.16
   6  16  -9    0.40    1.72
   6  16  -9   -0.37    2.40
   5  16  -9   -0.64    1.79
   5  16  -9   -0.71    2.15
   4  16  -9   -3.27    1.50
   4  16  -9   -1.28    2.08
   3  16  -9   -2.62    1.55
   3  16  -9   -2.20    2.00
  -3 -16   9    4.04    2.16
   2  16  -9   -1.69    1.41
   2  16  -9   -1.23    1.87
  -2 -16   9    0.41    1.97
   1  16  -9    0.03    1.40
   1  16  -9    0.93    2.03
  -1 -16   9    3.66    2.08
   0  16  -9    2.86    1.89
   0  16  -9    1.39    1.43
   0 -16   9    1.99    1.93
  -1  16  -9    0.75    1.83
   1 -16   9    0.92    1.94
  -2  16  -9    3.22    1.88
  -2  16  -9    2.62    1.44
   2 -16   9   -0.01    1.79
  -3  16  -9    2.52    1.82
   3 -16   9   -2.61    1.74
  -4  16  -9    1.61    1.74
   4 -16   9    0.71    1.79
  -5  16  -9   -0.04    1.57
   5 -16   9    0.43    1.70
  -6  16  -9    2.92    1.84
   6 -16   9   -2.42    1.68
  -7  16  -9    0.60    1.83
   7 -16   9    0.19    1.78
  -8  16  -9    0.33    1.68
   8 -16   9    2.26    1.89
   9 -16   9   -0.22    1.97
  10 -16   9    3.03    2.24
  11 -16   9    0.94    2.20
   7  15  -9   -4.28    2.19
   7  15  -9   -1.14    1.50
   6  15  -9    0.02    1.55
   6  15  -9   -3.94    1.98
   5  15  -9   -1.74    1.95
   5  15  -9    0.36    1.42
  -5 -15   9    5.02    1.92
   4  15  -9   -0.48    1.87
   4  15  -9   -2.44    1.50
  -4 -15   9   -0.16    1.84
   3  15  -9   -0.54    1.74
   3  15  -9   -2.54    1.39
  -3 -15   9   -0.53    1.84
   2  15  -9    0.25    1.68
   2  15  -9   -2.06    1.27
  -2 -15   9    2.16    1.84
   1  15  -9    1.52    1.76
   1  15  -9    1.29    1.33
  -1 -15   9    1.53    1.77
   0  15  -9    0.64    1.64
   0  15  -9   -0.52    1.23
   0 -15   9    1.26    1.75
  -1  15  -9   -2.36    1.19
  -1  15  -9   -0.20    1.47
   1 -15   9    1.39    1.76
  -2  15  -9    2.60    1.29
  -2  15  -9    1.42    1.62
   2 -15   9   -2.00    1.61
  -3  15  -9    2.94    1.72
   3 -15   9    0.99    1.66
  -4  15  -9   -0.34    1.39
   4 -15   9   -2.68    1.51
  -5  15  -9    0.03    1.54
   5 -15   9   -3.16    1.51
  -6  15  -9    2.93    1.75
   6 -15   9    1.66    1.82
  -7  15  -9    2.41    1.77
   7 -15   9    0.71    1.83
   8 -15   9    2.22    1.82
   9 -15   9    2.54    1.94
  10 -15   9   -0.26    1.95
  11 -15   9    3.10    2.33
  12 -15   9   -0.74    2.00
   9  14  -9   -1.12    1.72
   8  14  -9   -2.27    2.10
   8  14  -9   -0.66    1.61
   7  14  -9   -3.65    1.99
   7  14  -9   -1.50    1.31
   6  14  -9    0.15    1.85
   6  14  -9    1.04    1.46
  -6 -14   9    0.61    1.77
   5  14  -9    1.76    1.79
   5  14  -9    2.39    1.45
  -5 -14   9    3.48    1.72
   4  14  -9   -0.03    1.26
   4  14  -9    0.25    1.70
  -4 -14   9   -0.11    1.68
   3  14  -9   -1.64    1.57
   3  14  -9   -1.83    1.25
  -3 -14   9    0.19    1.60
   2  14  -9    0.48    1.24
   2  14  -9    2.40    1.65
  -2 -14   9    2.45    1.77
   1  14  -9    0.62    1.56
   1  14  -9   -0.26    1.15
  -1 -14   9   -0.75    1.63
   0  14  -9    0.59    1.41
   0  14  -9   -1.10    1.08
   0 -14   9    0.38    1.62
  -1  14  -9    3.41    1.57
   1 -14   9    3.95    1.67
  -2  14  -9    1.39    1.15
  -2  14  -9    1.67    1.58
   2 -14   9    0.24    1.55
  -3  14  -9    1.93    1.40
   3 -14   9    0.88    1.47
  -4  14  -9    3.74    1.53
   4 -14   9    5.08    1.66
  -5  14  -9    3.25    1.49
   5 -14   9    0.87    1.61
  -6  14  -9    0.85    1.45
   6 -14   9    0.22    1.56
  -7  14  -9    0.47    1.52
   7 -14   9    1.32    1.71
   8 -14   9    4.44    1.75
   9 -14   9    0.65    1.78
  10 -14   9    0.32    1.84
  11 -14   9    1.64    2.02
  12 -14   9   -0.29    2.21
  13 -14   9   -1.72    2.02
  10  13  -9   -0.86    1.52
   9  13  -9    0.55    1.47
   8  13  -9   -1.38    1.26
   8  13  -9   -1.29    1.94
   7  13  -9   -3.12    1.66
   7  13  -9   -0.60    1.22
  -7 -13   9    0.49    1.70
   6  13  -9    1.43    1.26
   6  13  -9   -1.59    1.64
  -6 -13   9   -1.94    1.47
   5  13  -9    0.67    1.60
   5  13  -9    3.14    1.32
  -5 -13   9    1.43    1.60
   4  13  -9   -0.54    1.10
   4  13  -9   -0.84    1.49
  -4 -13   9    1.35    1.55
   3  13  -9    9.17    1.76
  -3 -13   9   12.13    1.87
   2  13  -9    0.78    1.14
   2  13  -9    1.73    1.43
  -2 -13   9    3.18    1.60
   1  13  -9   -1.38    1.32
   1  13  -9   -1.25    1.01
  -1 -13   9   -1.84    1.42
   0  13  -9    3.27    1.46
   0  13  -9    3.16    1.12
   0 -13   9    5.41    1.66
  -1  13  -9    6.19    1.56
   1 -13   9    5.20    1.62
  -2  13  -9    0.97    1.35
  -2  13  -9   -0.65    1.05
   2 -13   9   -0.26    1.31
  -3  13  -9    0.72    1.31
   3 -13   9   -0.68    1.39
  -4  13  -9    0.53    1.35
   4 -13   9   -2.41    1.23
  -5  13  -9    0.64    1.36
   5 -13   9    0.76    1.44
  -6  13  -9    0.55    1.35
   6 -13   9    1.20    1.46
   7 -13   9    3.92    1.52
   8 -13   9    0.66    1.62
   9 -13   9   -1.29    1.59
  10 -13   9    0.74    1.73
  11 -13   9    0.15    1.70
  12 -13   9    0.71    1.91
  11  12  -9    0.49    1.60
  10  12  -9   -2.20    1.44
   9  12  -9   -0.52    1.45
   9  12  -9    1.20    1.80
  -9 -12   9    1.93    1.79
   8  12  -9   -0.67    1.19
   8  12  -9    1.73    1.71
  -8 -12   9    2.23    1.73
   7  12  -9   -0.46    1.54
   7  12  -9    0.53    1.20
  -7 -12   9    0.57    1.63
   6  12  -9   -1.16    1.48
   6  12  -9    0.59    1.20
  -6 -12   9   -0.34    1.52
   5  12  -9    0.26    1.02
   5  12  -9    0.23    1.36
  -5 -12   9   -1.48    1.40
   4  12  -9    0.05    0.96
   4  12  -9   -0.64    1.32
  -4 -12   9    0.59    1.43
   3  12  -9   10.64    1.69
  -3 -12   9   13.32    2.18
   2  12  -9   -0.36    1.01
   2  12  -9    0.99    1.31
  -2 -12   9    1.74    1.38
   1  12  -9    0.75    1.22
   1  12  -9    0.25    0.93
  -1 -12   9    0.09    1.34
   0  12  -9    1.92    1.33
   0  12  -9    1.80    0.99
   0 -12   9    3.35    1.49
  -1  12  -9    0.12    0.94
  -1  12  -9   -0.40    1.30
   1 -12   9    0.93    1.41
  -2  12  -9    0.85    1.15
  -2  12  -9    3.65    1.40
   2 -12   9    2.26    1.44
  -3  12  -9    0.91    1.16
   3 -12   9    1.82    1.28
  -4  12  -9    1.87    1.23
   4 -12   9   -1.15    1.21
  -5  12  -9    0.21    1.20
   5 -12   9    0.94    1.36
   6 -12   9    0.18    1.26
   7 -12   9   10.07    1.87
   8 -12   9   -0.48    1.40
   9 -12   9    5.05    1.79
  10 -12   9    0.06    1.53
  11 -12   9   -0.05    1.57
  12 -12   9    1.42    1.90
  13 -12   9    0.69    2.02
  14 -12   9    0.66    2.25
  12  11  -9   -0.93    1.40
  11  11  -9   -1.13    1.32
  10  11  -9    1.08    1.39
 -10 -11   9    3.04    1.79
   9  11  -9   -0.69    1.30
   9  11  -9    0.36    1.84
  -9 -11   9    2.31    1.70
   8  11  -9   -1.27    1.01
   8  11  -9   -0.38    1.62
  -8 -11   9    0.81    1.53
   7  11  -9    1.48    1.12
   7  11  -9    2.46    1.63
  -7 -11   9    2.71    1.52
   6  11  -9    2.74    1.55
   6  11  -9    1.40    0.93
  -6 -11   9    2.17    1.39
   5  11  -9    4.12    1.47
   5  11  -9    2.36    1.07
  -5 -11   9    3.58    1.47
   4  11  -9    8.26    1.58
  -4 -11   9    8.75    1.61
   3  11  -9    0.39    0.99
  -3 -11   9    2.44    1.35
   2  11  -9   -0.20    0.96
  -2 -11   9    1.88    1.29
   1  11  -9    1.18    1.13
   1  11  -9    1.50    0.89
  -1 -11   9    1.73    1.34
   0  11  -9    0.72    0.88
   0  11  -9    1.18    1.16
   0 -11   9    2.21    1.51
  -1  11  -9    0.76    1.09
  -1  11  -9    0.52    1.01
   1 -11   9    0.59    1.38
  -2  11  -9    5.67    1.23
  -2  11  -9    7.16    1.40
   2 -11   9    7.61    1.52
  -3  11  -9   -0.13    1.16
   3 -11   9    1.27    1.23
  -4  11  -9    0.03    1.10
   4 -11   9   -0.54    1.16
  -5  11  -9    4.94    1.51
   5 -11   9    5.52    1.47
   6 -11   9    4.69    1.39
   7 -11   9    2.91    1.50
   8 -11   9    0.73    1.45
   9 -11   9    1.44    1.60
  10 -11   9    0.24    1.46
  11 -11   9    3.79    1.76
  12 -11   9    0.38    1.86
  13 -11   9   -0.69    1.90
  13  10  -9   -2.65    1.59
  12  10  -9   -1.35    1.31
 -12 -10   9    2.42    2.17
  11  10  -9   -1.57    1.32
 -11 -10   9   -0.61    1.85
  10  10  -9   -0.13    1.16
 -10 -10   9    0.98    1.76
   9  10  -9    1.79    1.61
   9  10  -9   -0.52    1.07
  -9 -10   9    0.37    1.53
   8  10  -9    0.63    1.12
   8  10  -9    2.03    1.49
  -8 -10   9    2.82    1.54
   7  10  -9    1.64    1.41
   7  10  -9    1.16    0.98
  -7 -10   9    2.41    1.48
   6  10  -9    0.57    0.83
   6  10  -9    4.15    1.30
   5  10  -9    4.35    1.30
   5  10  -9    2.01    0.90
   4  10  -9    4.95    1.06
   4  10  -9    8.31    1.45
   3  10  -9    0.75    1.24
   3  10  -9   -0.07    0.92
   2  10  -9   -0.54    0.85
   2  10  -9    0.11    1.08
   1  10  -9    0.51    0.91
   1  10  -9    1.06    1.16
   0  10  -9    1.55    0.96
   0 -10   9    1.88    1.28
  -1  10  -9   -0.05    0.89
  -1  10  -9   -0.13    1.07
   1 -10   9   -0.19    1.24
  -2  10  -9   -0.06    0.98
   2 -10   9    1.19    1.31
  -3  10  -9    1.78    1.19
   3 -10   9    0.43    1.24
  -4  10  -9    3.37    1.26
   4 -10   9    4.41    1.34
   5 -10   9    6.49    1.47
   6 -10   9    3.56    1.39
   7 -10   9    1.12    1.31
   8 -10   9    0.62    1.34
   9 -10   9   -1.33    1.31
  10 -10   9    1.63    1.56
  11 -10   9    4.26    1.76
  12 -10   9    2.42    1.70
  13 -10   9    0.18    1.81
  14 -10   9    0.29    1.86
  15 -10   9   -0.35    2.14
  14   9  -9   -2.83    1.59
  13   9  -9   -0.82    1.41
 -13  -9   9    2.83    2.22
  12   9  -9   -1.04    1.34
 -12  -9   9    4.83    1.95
  11   9  -9   -2.01    1.12
 -11  -9   9    0.23    1.71
  10   9  -9   -1.54    1.08
 -10  -9   9    1.41    1.66
   9   9  -9    1.57    1.08
  -9  -9   9    4.50    1.60
   8   9  -9    0.01    0.97
   8   9  -9    0.89    1.29
  -8  -9   9    1.49    1.39
   7   9  -9    0.02    0.91
   7   9  -9    2.39    1.20
   6   9  -9    0.01    1.09
   6   9  -9   -0.76    0.85
  -6  -9   9   -1.71    1.38
   5   9  -9    0.62    0.86
   5   9  -9   -0.20    1.06
  -5  -9   9   -0.46    1.25
   4   9  -9    1.67    1.19
   4   9  -9    1.18    0.87
  -4  -9   9    2.60    1.26
   3   9  -9    0.92    1.05
   3   9  -9    0.62    0.90
  -3  -9   9    1.30    1.19
   2   9  -9   22.34    2.15
   2   9  -9   24.72    1.93
  -2  -9   9   22.57    2.03
   1   9  -9   -0.85    0.93
   1   9  -9    1.06    0.88
  -1  -9   9    0.19    1.18
   0   9  -9   -0.64    0.85
   0   9  -9    0.36    0.82
  -1   9  -9    0.48    0.78
  -1   9  -9    1.07    0.99
   2  -9   9    0.58    1.13
  -3   9  -9    0.50    1.02
   3  -9   9   -1.07    1.09
   4  -9   9    9.77    1.51
   5  -9   9    2.82    1.28
   6  -9   9    1.85    1.23
   7  -9   9    1.27    1.30
   8  -9   9    8.47    1.68
   9  -9   9    1.83    1.45
  10  -9   9    6.72    1.83
  11  -9   9    0.18    1.51
  12  -9   9   -1.19    1.53
  13  -9   9   -0.08    1.80
  14  -9   9   -0.39    1.80
  14   8  -9   -1.20    1.40
 -14  -8   9   -0.16    2.09
  13   8  -9    0.63    1.49
 -13  -8   9    8.50    2.12
  12   8  -9   -0.61    1.27
 -12  -8   9    3.82    1.85
 -11  -8   9    1.64    1.50
  10   8  -9    0.65    1.10
 -10  -8   9    4.64    1.64
   9   8  -9    6.74    1.28
   8   8  -9    0.45    0.95
  -8  -8   9   -0.07    1.23
   7   8  -9    0.67    0.79
   6   8  -9    3.16    0.92
   6   8  -9    4.89    1.13
  -6  -8   9    4.13    1.52
   5   8  -9    0.91    0.88
   5   8  -9    1.35    1.01
  -5  -8   9   -0.29    1.12
   4   8  -9    0.58    0.93
   4   8  -9   -0.27    0.78
  -4  -8   9    0.37    1.09
   3   8  -9    3.71    0.92
   3   8  -9    6.57    1.14
  -3  -8   9    5.23    1.21
   2   8  -9    3.69    0.82
   2   8  -9    4.26    1.00
  -2  -8   9    3.45    1.12
   1   8  -9   10.80    1.41
   1   8  -9   10.69    1.64
  -1  -8   9   10.29    1.36
   0   8  -9    2.78    0.93
   0   8  -9    2.96    0.80
   0  -8   9    2.97    0.96
  -1   8  -9    5.39    1.04
   1  -8   9    4.80    1.00
   3  -8   9    7.58    1.33
   4  -8   9    6.41    1.36
   5  -8   9    2.83    1.17
   6  -8   9    1.45    1.26
   7  -8   9    1.09    1.16
   8  -8   9    0.19    1.20
   9  -8   9    2.79    1.35
  10  -8   9    1.26    1.40
  11  -8   9    1.23    1.59
  12  -8   9   -0.69    1.51
  13  -8   9    0.01    1.71
  14  -8   9   -0.73    1.93
  15  -8   9   -1.71    1.87
 -15  -7   9    1.78    2.24
  14   7  -9   -1.52    1.23
 -14  -7   9    1.35    2.01
  13   7  -9   -0.28    1.28
 -13  -7   9    5.90    2.08
  12   7  -9   -0.59    1.16
 -12  -7   9    2.27    1.68
  11   7  -9   -0.88    1.09
 -11  -7   9    2.22    1.57
  10   7  -9    3.23    1.20
 -10  -7   9    7.52    1.58
   9   7  -9    1.03    0.93
  -9  -7   9    1.58    1.34
   8   7  -9    0.51    0.95
   7   7  -9    0.72    0.89
  -7  -7   9   -0.61    1.21
   6   7  -9    0.96    0.83
  -6  -7   9   -0.34    1.23
   5   7  -9    1.39    0.87
   5   7  -9    1.45    0.82
  -5  -7   9   -0.59    1.15
  -5  -7   9   -0.08    0.99
   4   7  -9    0.43    0.77
   4   7  -9    2.36    0.85
  -4  -7   9    2.62    1.03
   3   7  -9    2.97    0.88
   3   7  -9    2.78    0.66
  -3  -7   9    0.99    0.88
   2   7  -9    1.74    0.81
   2   7  -9    1.60    0.58
  -2  -7   9    2.70    0.95
   1   7  -9    1.37    0.63
   1   7  -9    2.45    0.88
  -1  -7   9    3.16    0.82
   0   7  -9    0.68    0.61
   0   7  -9    0.07    0.70
   0  -7   9    0.39    0.70
   1  -7   9    5.00    0.92
   2  -7   9    9.04    1.36
   4  -7   9   -0.17    1.05
   5  -7   9    5.03    1.31
   6  -7   9    4.28    1.32
   7  -7   9    5.23    1.43
   8  -7   9   -1.39    1.18
   9  -7   9    0.78    1.32
  10  -7   9    3.81    1.58
  11  -7   9    1.90    1.55
  12  -7   9   -1.40    1.50
  13  -7   9    0.68    1.70
  14  -7   9   -0.62    1.73
  15  -7   9    1.62    2.14
  16   6  -9   -0.15    1.56
  15   6  -9   -0.79    1.30
 -15  -6   9    2.44    2.15
  14   6  -9   -1.90    1.24
 -14  -6   9    0.75    1.96
  13   6  -9    0.91    1.25
 -13  -6   9    0.89    1.82
  12   6  -9    0.08    1.16
 -12  -6   9    2.50    1.62
  11   6  -9   -0.04    0.97
 -11  -6   9    4.27    1.48
  10   6  -9    1.48    1.02
 -10  -6   9    2.44    1.39
   9   6  -9    0.52    0.96
  -9  -6   9    0.56    1.21
   8   6  -9    1.14    0.77
   7   6  -9    0.34    0.79
  -7  -6   9   -0.95    1.14
   6   6  -9    2.83    0.81
  -6  -6   9    3.07    1.11
   5   6  -9   16.04    1.88
  -5  -6   9   16.04    1.60
   4   6  -9    0.10    0.54
   4   6  -9   -0.10    0.66
  -4  -6   9    1.31    0.92
  -4  -6   9    0.38    0.83
   3   6  -9    8.15    1.24
   3   6  -9    6.98    1.08
  -3  -6   9    7.91    1.05
  -3  -6   9    6.55    1.09
   2   6  -9    2.73    0.60
  -2  -6   9    3.04    0.77
   1   6  -9    1.04    0.49
  -1  -6   9    0.81    0.66
   0   6  -9    0.87    0.50
   0  -6   9    0.19    0.70
   1  -6   9   10.26    1.31
   2  -6   9    1.49    0.80
   3  -6   9   12.36    1.38
   5  -6   9    3.65    1.13
   6  -6   9   -0.21    1.05
   7  -6   9    3.69    1.29
   8  -6   9    1.77    1.29
   9  -6   9    2.25    1.29
  10  -6   9    0.40    1.33
  11  -6   9    0.51    1.36
  12  -6   9    0.52    1.49
  13  -6   9    0.38    1.60
  14  -6   9    0.30    1.86
  15  -6   9   -0.34    2.10
  16   5  -9   -1.73    1.42
  15   5  -9   -0.58    1.24
 -15  -5   9    2.37    2.05
  14   5  -9   -2.11    1.26
 -14  -5   9    0.29    1.87
  13   5  -9   -0.70    1.06
 -13  -5   9   -0.22    1.64
 -12  -5   9    7.62    1.76
  11   5  -9    1.11    1.01
 -11  -5   9    0.73    1.38
  10   5  -9    0.49    0.90
 -10  -5   9    1.75    1.27
   9   5  -9    1.18    0.97
  -9  -5   9    1.54    1.26
   8   5  -9    1.12    0.86
   7   5  -9    1.16    0.82
  -7  -5   9    2.39    1.08
   6   5  -9   -0.06    0.70
  -6  -5   9   -0.53    0.88
   5   5  -9    1.04    0.62
  -5  -5   9    1.50    0.79
   4   5  -9    0.96    0.57
  -4  -5   9   -0.42    0.56
  -4  -5   9    1.80    0.74
   3   5  -9    1.50    0.50
  -3  -5   9    1.01    0.69
  -3  -5   9    0.86    0.54
   2   5  -9    7.85    1.14
  -2  -5   9    6.81    1.13
  -2  -5   9    6.81    1.02
   1   5  -9    1.06    0.48
  -1  -5   9   -0.12    0.72
   0  -5   9   12.26    1.35
   1  -5   9   10.92    1.36
   2  -5   9   13.99    1.39
   3  -5   9    2.49    0.84
   4  -5   9   -0.14    0.77
   6  -5   9    1.19    1.17
   7  -5   9    3.25    1.25
   8  -5   9    2.14    1.28
   9  -5   9    0.76    1.28
  10  -5   9   -0.66    1.25
  11  -5   9    4.04    1.65
  12  -5   9    0.39    1.50
  13  -5   9    1.11    1.71
  14  -5   9   -0.11    1.85
  15  -5   9   -1.22    2.17
  17   4  -9   -1.65    1.61
 -17  -4   9   -0.66    2.35
  16   4  -9   -1.14    1.39
 -16  -4   9   -0.01    2.15
  15   4  -9   -0.80    1.20
 -15  -4   9    2.87    2.03
  14   4  -9   -0.25    1.14
 -14  -4   9   -0.09    1.65
  13   4  -9   -0.61    1.00
 -13  -4   9   -0.41    1.66
  12   4  -9    0.58    1.10
 -12  -4   9    2.95    1.53
  11   4  -9   -0.73    0.87
 -11  -4   9    0.47    1.17
  10   4  -9    0.30    0.89
 -10  -4   9    0.80    1.17
   9   4  -9    0.39    0.75
  -9  -4   9   -1.17    1.12
   8   4  -9    0.42    0.71
  -8  -4   9    0.34    0.98
   7   4  -9    2.84    0.87
   6   4  -9   20.46    1.70
  -6  -4   9   19.40    1.45
   5   4  -9    3.49    0.71
  -5  -4   9    6.00    0.84
   4   4  -9    2.95    0.64
   3   4  -9   13.73    1.30
  -3  -4   9   12.37    1.06
  -3  -4   9   11.11    1.04
  -2  -4   9   23.79    1.48
  -2  -4   9   23.75    1.44
  -1  -4   9    1.05    0.77
  -1  -4   9    0.43    0.69
   0  -4   9   15.18    1.39
   1  -4   9    5.21    0.99
   2  -4   9    7.88    1.02
   3  -4   9    4.49    0.86
   4  -4   9    8.09    1.09
   5  -4   9   -0.77    0.65
   7  -4   9   10.19    1.52
   8  -4   9   11.66    1.93
   9  -4   9    3.06    1.25
  10  -4   9    0.70    1.23
  11  -4   9   -0.39    1.33
  12  -4   9   -0.24    1.50
  13  -4   9    0.14    1.70
  14  -4   9    0.49    2.00
  15  -4   9    0.63    2.25
  17   3  -9   -0.62    1.49
 -17  -3   9   -0.68    2.20
  16   3  -9    0.06    1.37
 -16  -3   9   -0.12    2.03
  15   3  -9    0.53    1.11
 -15  -3   9    1.18    1.80
  14   3  -9    0.39    1.11
 -14  -3   9   -0.35    1.62
  13   3  -9    0.58    0.93
 -13  -3   9    1.07    1.51
  12   3  -9   -0.41    0.83
 -12  -3   9    0.45    1.31
  11   3  -9    0.55    0.90
 -11  -3   9    0.08    1.16
  10   3  -9    0.97    0.80
 -10  -3   9    2.26    1.22
   9   3  -9    3.85    0.87
   8   3  -9    0.37    0.69
  -8  -3   9    0.10    0.80
   7   3  -9    7.27    1.23
  -7  -3   9    5.00    0.91
   6   3  -9    2.49    0.60
  -6  -3   9    3.72    0.86
   5   3  -9    0.15    0.46
  -5  -3   9   -0.11    0.59
   4   3  -9   41.50    1.99
  -4  -3   9   38.87    1.80
   3   3  -9    1.18    0.58
  -3  -3   9    1.26    0.66
  -3  -3   9    2.53    0.63
   2   3  -9    0.25    0.46
  -2  -3   9   -0.34    0.60
  -2  -3   9    0.17    0.63
  -1  -3   9   37.20    1.76
  -1  -3   9   37.41    1.86
   0  -3   9    4.39    0.88
   1  -3   9    7.52    1.17
   2  -3   9    2.78    0.73
   3  -3   9    0.20    0.51
   4  -3   9    8.05    1.06
   5  -3   9    4.63    0.89
   6  -3   9   11.16    1.43
   7  -3   9   16.25    1.96
   8  -3   9    0.74    1.21
   9  -3   9   -0.64    1.15
  10  -3   9    1.51    1.31
  11  -3   9    0.35    1.40
  12  -3   9    0.65    1.53
  13  -3   9   -0.44    1.71
  14  -3   9   -1.35    1.90
  15  -3   9   -0.37    2.13
  15  -3   9    8.06    2.55
  17   2  -9   -1.78    1.37
 -17  -2   9   -0.55    2.14
  16   2  -9   -0.48    1.18
 -16  -2   9   -1.00    1.89
  15   2  -9   -0.76    1.10
 -15  -2   9    0.18    1.77
  14   2  -9   -0.01    1.10
 -14  -2   9   -0.67    1.52
  13   2  -9   -0.16    0.84
 -13  -2   9    0.02    1.31
  12   2  -9    0.12    0.82
 -12  -2   9    1.58    1.26
  11   2  -9   15.55    2.11
 -11  -2   9   16.38    2.00
  10   2  -9    5.85    1.01
 -10  -2   9    9.29    1.42
   9   2  -9    0.31    0.78
  -9  -2   9   -0.43    0.98
   8   2  -9   11.15    1.39
  -8  -2   9   11.62    1.34
   7   2  -9    6.81    1.17
  -7  -2   9    8.92    1.09
   6   2  -9    0.25    0.43
  -6  -2   9    0.09    0.58
   5   2  -9   -0.12    0.42
  -5  -2   9   -0.55    0.65
   4   2  -9   10.59    1.24
  -4  -2   9   11.36    1.08
   3   2  -9   11.91    1.31
  -3  -2   9   10.90    1.14
  -2  -2   9   30.30    1.59
  -1  -2   9   33.86    1.70
   0  -2   9   -0.87    0.59
   1  -2   9    1.18    0.65
   2  -2   9    5.87    0.96
   3  -2   9    1.71    0.63
   4  -2   9    0.90    0.72
   5  -2   9    9.83    1.38
   6  -2   9    1.93    1.01
   7  -2   9    1.90    1.12
   8  -2   9    1.18    1.21
   9  -2   9    1.83    1.24
  10  -2   9    0.04    1.28
  11  -2   9    0.83    1.45
  12  -2   9    4.02    1.71
  13  -2   9    6.65    2.02
  13  -2   9    0.92    1.76
  14  -2   9    1.19    1.95
  14  -2   9    2.35    2.07
  15  -2   9   -0.33    2.25
  15  -2   9    1.52    2.31
  18   1  -9   -0.12    1.63
 -18  -1   9   -0.41    2.31
  17   1  -9    0.96    1.45
 -17  -1   9   -0.36    2.10
  16   1  -9   -0.57    1.14
 -16  -1   9   -1.31    1.76
  15   1  -9    0.93    1.18
 -15  -1   9    0.53    1.60
  14   1  -9    1.00    1.00
 -14  -1   9   -0.76    1.41
  13   1  -9    0.89    0.91
 -13  -1   9    2.15    1.37
  12   1  -9    0.42    0.87
 -12  -1   9    0.63    1.25
  11   1  -9   14.96    2.03
 -11  -1   9   12.11    1.85
  10   1  -9   -0.05    0.75
 -10  -1   9   -1.04    0.93
  -9  -1   9   10.87    1.59
   8   1  -9   17.03    1.51
  -8  -1   9   16.68    1.34
   7   1  -9   -0.07    0.40
  -7  -1   9    1.02    0.61
   6   1  -9    2.78    0.54
  -6  -1   9    4.21    0.80
   5   1  -9    0.97    0.42
  -5  -1   9    1.39    0.71
   4   1  -9    1.47    0.51
  -4  -1   9    2.33    0.69
  -3  -1   9    3.46    0.67
  -3  -1   9    2.24    0.68
  -2  -1   9    3.72    0.78
  -1  -1   9   44.13    1.87
   0  -1   9    1.74    0.59
   1  -1   9    9.88    1.01
   2  -1   9   -0.22    0.53
   3  -1   9    0.28    0.69
   4  -1   9    4.71    0.96
   5  -1   9    9.35    1.41
   6  -1   9    5.30    1.17
   7  -1   9    0.48    1.09
   9  -1   9    1.71    1.19
  10  -1   9    2.77    1.36
  11  -1   9    4.86    1.72
  11  -1   9    0.60    1.38
  12  -1   9    4.99    1.77
  12  -1   9    5.83    1.93
  13  -1   9    0.63    1.81
  13  -1   9    0.64    1.63
  14  -1   9    0.32    2.14
  14  -1   9    1.77    2.06
  15  -1   9    4.95    2.39
  15  -1   9   -0.56    2.23
  18   0  -9    0.08    1.49
 -18   0   9    2.41    2.31
  17   0  -9    0.82    1.38
 -17   0   9   -1.78    1.92
  16   0  -9   -0.27    1.22
 -16   0   9   -2.58    1.76
  15   0  -9    4.82    1.26
 -15   0   9    5.25    1.67
  14   0  -9    1.77    1.00
 -14   0   9    1.37    1.49
  13   0  -9    1.06    0.97
 -13   0   9    3.06    1.32
  12   0  -9   -0.19    0.82
 -12   0   9    0.15    1.09
  11   0  -9   -0.13    0.85
 -11   0   9    0.79    1.13
 -10   0   9    4.62    1.18
   9   0  -9   11.25    1.72
  -9   0   9    8.26    1.24
   8   0  -9   -0.23    0.51
  -8   0   9   -0.08    0.60
   7   0  -9   -0.46    0.43
  -7   0   9   -0.61    0.63
   6   0  -9    7.28    1.08
  -6   0   9    7.52    1.01
   5   0  -9   10.22    1.09
  -5   0   9   10.77    1.13
  -4   0   9   11.12    0.93
  -4   0   9    8.86    1.11
  -3   0   9   13.73    1.09
  -3   0   9   15.28    1.06
  -2   0   9   11.56    0.99
  -2   0   9   11.61    1.07
  -1   0   9    2.55    0.67
  -1   0   9    2.08    0.56
   0   0   9   11.44    0.99
   0   0   9   10.82    1.02
   1   0   9    5.18    0.79
   1   0   9    5.90    0.83
   2   0   9   27.00    1.54
   2   0   9   27.30    1.53
   3   0   9    3.27    0.87
   4   0   9    8.05    1.17
   5   0   9    0.91    0.94
   6   0   9    2.03    1.27
   6   0   9    3.10    1.06
   7   0   9    3.66    1.18
   7   0   9    4.17    1.40
   8   0   9    0.91    1.23
   8   0   9    1.11    1.38
   9   0   9    0.93    1.19
   9   0   9    0.98    1.30
  10   0   9    5.54    1.46
  10   0   9    3.56    1.62
  11   0   9    0.76    1.43
  11   0   9    3.48    1.52
  12   0   9    3.01    1.69
  12   0   9    3.81    1.62
  13   0   9    1.62    1.78
  13   0   9    3.10    1.83
  14   0   9    4.33    2.07
  14   0   9    1.37    2.23
  18  -1  -9   -2.35    1.40
 -18   1   9   -0.82    1.97
  17  -1  -9   -1.36    1.28
 -17   1   9    1.15    1.94
  16  -1  -9   -1.31    1.11
 -16   1   9   -1.78    1.61
  15  -1  -9   -0.14    1.12
 -15   1   9    2.88    1.67
  14  -1  -9   -1.11    0.93
 -14   1   9    1.53    1.43
  13  -1  -9    0.72    0.93
 -13   1   9    3.22    1.39
  12  -1  -9    2.15    0.90
 -12   1   9    3.68    1.33
 -11   1   9    1.22    1.14
  10  -1  -9    1.02    0.80
 -10   1   9   -0.52    0.92
   9  -1  -9    3.16    0.85
  -9   1   9    3.03    1.02
   8  -1  -9    0.50    0.57
  -8   1   9   -0.29    0.58
   7  -1  -9    0.49    0.52
  -7   1   9    1.01    0.68
   6  -1  -9    2.97    0.57
  -6   1   9    4.65    0.79
  -5   1   9    1.23    0.63
  -5   1   9    2.23    0.71
  -4   1   9   10.68    1.08
  -3   1   9   15.13    1.13
  -2   1   9    3.96    0.64
  -2   1   9    4.56    0.74
  -1   1   9   -0.01    0.59
  -1   1   9    0.32    0.49
   0   1   9    6.62    0.93
   0   1   9    5.49    0.87
   1   1   9    3.86    0.74
   1   1   9    4.51    0.79
   2   1   9    3.06    0.84
   2   1   9    3.49    0.83
   3   1   9    4.09    0.92
   3   1   9    4.60    0.96
   4   1   9    3.47    0.98
   5   1   9    0.41    0.94
   5   1   9    0.26    1.05
   6   1   9    1.13    1.00
   6   1   9    1.55    1.31
   7   1   9    0.08    1.23
   7   1   9    0.25    1.12
   8   1   9   -0.35    1.32
   8   1   9    2.11    1.26
   9   1   9    5.32    1.44
   9   1   9    6.76    1.67
  10   1   9    0.84    1.34
  10   1   9    2.64    1.51
  11   1   9    3.44    1.56
  11   1   9    4.19    1.76
  12   1   9    3.13    1.95
  12   1   9    3.56    1.75
  13   1   9   -0.21    1.84
  13   1   9    0.94    2.01
  14   1   9    0.08    2.26
  14   1   9   -0.67    2.13
  18  -2  -9   -2.11    1.39
 -18   2   9    0.13    1.90
  17  -2  -9    0.32    1.27
 -17   2   9    0.36    1.79
  16  -2  -9   -0.36    1.10
 -16   2   9   -1.47    1.52
  15  -2  -9   -0.58    1.00
 -15   2   9    0.75    1.53
  14  -2  -9    1.17    0.98
 -14   2   9    1.39    1.42
  13  -2  -9   -1.25    0.84
 -13   2   9    0.38    1.23
  12  -2  -9    1.21    0.86
 -12   2   9    3.22    1.22
  11  -2  -9    0.91    0.86
 -11   2   9    0.41    1.07
  10  -2  -9    5.56    0.95
 -10   2   9    8.33    1.29
   9  -2  -9    0.42    0.66
  -9   2   9   -0.14    0.86
   8  -2  -9    0.58    0.65
   7  -2  -9   14.90    1.52
  -7   2   9   14.76    1.27
   6  -2  -9   10.02    1.13
  -6   2   9   10.75    1.09
  -6   2   9   11.38    1.22
   5  -2  -9   -0.04    0.73
  -5   2   9    0.63    0.54
  -5   2   9   -0.90    0.68
   4  -2  -9    0.56    0.70
  -4   2   9    2.02    0.74
  -4   2   9   -0.31    0.48
  -3   2   9    2.49    0.81
  -3   2   9    1.23    0.67
  -2   2   9   19.29    1.19
  -2   2   9   19.74    1.31
  -1   2   9   32.32    1.60
  -1   2   9   32.77    1.51
   0   2   9    1.42    0.60
   0   2   9    2.14    0.70
   1   2   9   16.71    1.24
   1   2   9   16.45    1.25
   2   2   9   24.61    1.53
   2   2   9   26.52    1.57
   3   2   9    6.79    1.04
   3   2   9    7.70    1.22
   4   2   9    4.00    1.14
   4   2   9    3.49    1.00
   5   2   9    1.75    1.02
   5   2   9    1.97    1.12
   6   2   9   -0.10    1.16
   6   2   9    0.67    1.05
   7   2   9    0.60    1.12
   7   2   9   -0.38    1.31
   8   2   9    1.06    1.28
   8   2   9   -0.13    1.15
   9   2   9    2.87    1.54
   9   2   9    1.53    1.35
  10   2   9    1.56    1.63
  10   2   9    0.92    1.53
  11   2   9   -1.81    1.39
  11   2   9    0.99    1.72
  12   2   9    0.34    1.81
  12   2   9   -1.22    1.67
  13   2   9    2.04    2.13
  13   2   9   -3.02    1.86
  14   2   9    2.99    2.46
 -18   3   9    2.10    2.05
  17  -3  -9   -1.71    1.24
 -17   3   9    2.02    1.83
  16  -3  -9   -1.46    1.12
 -16   3   9    0.43    1.51
  15  -3  -9   -1.65    0.96
 -15   3   9   -1.18    1.51
  14  -3  -9    0.99    0.94
 -14   3   9    5.04    1.49
  13  -3  -9   -0.14    0.80
 -13   3   9    0.76    1.22
  12  -3  -9    3.55    1.02
 -12   3   9    3.86    1.27
  11  -3  -9    1.28    0.84
 -11   3   9   -0.26    0.96
  10  -3  -9    4.88    0.94
 -10   3   9    6.82    1.29
   9  -3  -9    0.25    0.70
  -9   3   9    0.20    0.91
  -8   3   9    9.50    1.23
   7  -3  -9    2.62    0.98
  -7   3   9    3.03    0.71
  -7   3   9    4.00    0.93
   6  -3  -9    6.70    0.99
  -6   3   9    8.30    1.29
  -6   3   9    5.21    0.80
   5  -3  -9   14.82    1.41
  -5   3   9   16.94    1.12
  -5   3   9   12.16    1.31
  -4   3   9    1.85    0.85
  -4   3   9    3.25    0.69
  -3   3   9   11.05    1.40
  -3   3   9   13.04    1.13
  -2   3   9    8.95    1.05
  -2   3   9    8.54    1.14
  -1   3   9   24.97    1.44
  -1   3   9   26.22    1.43
   0   3   9    4.12    0.79
   0   3   9    5.11    0.87
   1   3   9    3.30    0.77
   1   3   9    2.99    0.76
   2   3   9    5.58    0.87
   2   3   9    5.94    1.01
   3   3   9    0.61    0.82
   4   3   9   -0.23    1.02
   4   3   9    0.24    0.89
   5   3   9    7.29    1.46
   5   3   9    7.82    1.21
   6   3   9    1.22    1.12
   6   3   9    2.07    1.22
   7   3   9    0.58    1.16
   7   3   9    0.01    1.19
   8   3   9    0.69    1.27
   8   3   9    0.92    1.34
   9   3   9    0.43    1.43
   9   3   9    1.86    1.41
  10   3   9    2.54    1.68
  10   3   9    0.87    1.57
  11   3   9    1.81    1.84
  11   3   9    1.01    1.61
  12   3   9   -1.92    1.82
  13   3   9   -2.94    2.25
  18  -4  -9    0.26    1.47
 -18   4   9   -0.95    1.85
  17  -4  -9   -1.39    1.22
 -17   4   9   -0.41    1.64
  16  -4  -9   -1.36    1.05
 -16   4   9   -0.85    1.51
  15  -4  -9    1.38    1.03
 -15   4   9    1.83    1.39
  14  -4  -9    0.23    0.90
 -14   4   9    1.64    1.32
  13  -4  -9    0.10    0.93
 -13   4   9    0.07    1.27
  12  -4  -9    1.33    0.94
 -12   4   9   -0.04    1.17
  11  -4  -9    1.44    0.89
 -11   4   9    2.86    1.24
 -11   4   9    2.21    1.03
  10  -4  -9    0.77    0.85
 -10   4   9    2.23    1.09
 -10   4   9    1.37    1.05
  -9   4   9    4.87    1.18
  -9   4   9    4.44    1.01
  -8   4   9    9.45    1.44
  -8   4   9   10.58    1.46
  -7   4   9    4.17    1.05
  -7   4   9    0.96    0.59
  -6   4   9   15.94    1.15
  -6   4   9   13.99    1.52
  -5   4   9    5.08    0.96
  -5   4   9    7.53    0.97
  -4   4   9   -0.18    0.79
  -4   4   9   -0.27    0.58
  -3   4   9   14.81    1.43
  -3   4   9   15.20    1.22
  -2   4   9   11.02    1.18
  -2   4   9   10.65    1.41
  -1   4   9    7.75    1.14
  -1   4   9    6.36    1.00
   0   4   9   -0.75    0.75
   0   4   9    0.51    0.70
  -1  -4  -9    0.00    1.00
   1   4   9   -0.34    0.68
   1   4   9   -0.88    0.70
  -2  -4  -9    4.20    1.08
   2   4   9    2.51    0.82
  -3  -4  -9    0.29    1.05
   3   4   9   -0.36    0.82
   3   4   9   -0.04    1.20
   4   4   9    0.69    1.03
   4   4   9   -0.33    1.08
   4   4   9   -0.27    0.87
   5   4   9   -0.69    0.94
   5   4   9   -1.32    1.22
   5   4   9   -0.29    1.10
   6   4   9   -1.13    1.25
   6   4   9   -0.14    1.01
   7   4   9    5.41    1.60
   7   4   9    8.00    1.28
   8   4   9    0.30    1.44
   8   4   9    1.38    1.32
   9   4   9   -0.48    1.42
   9   4   9   -1.17    1.50
  10   4   9   -0.79    1.58
  10   4   9    1.16    1.70
  11   4   9   -0.16    1.91
  12   4   9   -0.33    2.15
  13   4   9   -2.19    2.51
  18  -5  -9   -1.73    1.37
 -18   5   9   -1.68    1.80
  17  -5  -9   -1.99    1.15
 -17   5   9   -0.48    1.53
  16  -5  -9   -1.77    1.05
 -16   5   9   -0.71    1.45
  15  -5  -9   -1.29    0.96
 -15   5   9   -0.61    1.32
  14  -5  -9   -0.54    1.04
 -14   5   9   -1.32    1.32
  13  -5  -9   -0.28    1.00
 -13   5   9    1.07    1.29
  12  -5  -9    0.46    0.95
 -12   5   9   -0.40    1.14
 -12   5   9    0.50    1.17
 -11   5   9    2.91    1.18
 -11   5   9    2.07    1.13
 -10   5   9    3.96    1.14
 -10   5   9    5.71    1.23
  -9   5   9   18.85    1.88
  -9   5   9   16.40    1.79
  -8   5   9    2.95    1.02
  -8   5   9    4.05    1.14
  -7   5   9    1.23    0.70
  -7   5   9    2.67    1.18
  -6   5   9    1.39    1.09
  -6   5   9    0.77    0.66
  -5   5   9    1.35    1.08
  -5   5   9    0.59    0.71
  -4   5   9   -0.71    0.87
  -4   5   9    0.31    0.70
  -3   5   9   -1.00    0.78
  -3   5   9    0.66    0.76
  -2   5   9    5.97    1.20
  -2   5   9    3.74    0.88
  -1   5   9    2.04    0.87
  -1   5   9    2.16    1.15
   0  -5  -9    3.93    1.17
   0   5   9    4.67    0.95
   0   5   9    5.96    1.23
  -1  -5  -9   16.74    1.75
   1   5   9   17.70    2.06
   1   5   9   18.00    1.39
  -2  -5  -9   -0.03    1.01
   2   5   9   -0.92    1.15
   2   5   9    0.18    0.90
  -3  -5  -9    2.21    1.04
   3   5   9    1.55    0.81
   3   5   9    1.27    1.24
   4   5   9    3.60    1.39
   5   5   9   -0.02    1.22
   6   5   9   -0.82    1.27
   7   5   9    1.57    1.52
   8   5   9   -0.77    1.58
   9   5   9   -1.98    1.62
  10   5   9   -3.34    1.62
  11   5   9   -2.79    1.98
  12   5   9    1.18    2.18
  17  -6  -9    2.23    1.32
 -17   6   9    0.44    1.64
 -16   6   9    0.01    1.54
  15  -6  -9    0.27    1.27
 -15   6   9   -0.11    1.33
 -14   6   9    0.00    1.28
 -13   6   9   -0.65    1.40
 -13   6   9   -0.54    1.18
 -12   6   9    5.27    1.49
 -12   6   9    5.43    1.41
 -11   6   9    0.61    1.14
 -11   6   9    0.03    1.32
 -10   6   9    0.90    1.16
 -10   6   9    1.20    1.24
  -9   6   9    3.74    1.34
  -9   6   9    2.92    1.12
  -8   6   9    0.33    1.23
  -8   6   9   -0.60    0.92
  -7   6   9    1.97    1.26
  -6   6   9    7.09    1.12
  -6   6   9   10.48    1.55
  -5   6   9    2.86    1.24
  -5   6   9    1.89    0.86
  -4   6   9    4.53    1.00
  -4   6   9    5.68    1.26
  -3   6   9    3.76    0.97
  -3   6   9    4.93    0.97
  -2   6   9   -0.17    0.80
  -2   6   9    0.58    0.86
  -1   6   9    0.94    0.86
   0  -6  -9    3.97    1.28
   0   6   9    5.61    1.02
  -1  -6  -9    7.08    1.29
   1   6   9    6.34    1.01
   1   6   9   10.55    2.10
   2   6   9    3.13    1.71
   3   6   9    3.31    1.54
   4   6   9    1.83    1.47
   5   6   9    5.42    1.64
   6   6   9    5.19    1.60
   7   6   9    0.44    1.51
   8   6   9    0.87    1.58
   9   6   9    1.14    1.87
  10   6   9   -2.94    1.89
  11   6   9   -4.06    2.48
 -18   7   9   -2.53    1.76
 -17   7   9   -1.06    1.58
 -16   7   9   -0.45    1.42
 -15   7   9    0.61    1.42
 -14   7   9    1.28    1.45
 -13   7   9    0.38    1.28
 -13   7   9    0.95    1.52
 -12   7   9   -0.55    1.45
 -12   7   9   -0.89    1.23
 -11   7   9    2.39    1.36
 -11   7   9    2.81    1.46
 -10   7   9    0.55    1.31
 -10   7   9    1.71    1.23
  -9   7   9    0.74    1.13
  -9   7   9   -0.98    1.36
  -8   7   9   -0.09    1.34
  -8   7   9    0.78    1.06
  -7   7   9    4.73    1.47
  -6   7   9   -0.34    1.35
  -6   7   9   -0.06    0.94
  -5   7   9    4.36    1.29
  -5   7   9    5.79    1.13
  -4   7   9    8.55    1.20
  -4   7   9    8.22    1.34
  -3   7   9    4.78    1.05
  -2   7   9    0.19    0.90
  -2   7   9    0.87    1.27
  -1   7   9    7.23    1.10
  -1   7   9    7.70    1.53
   0  -7  -9    1.70    1.28
   0   7   9   -0.90    1.66
   0   7   9    1.74    0.87
   1   7   9    4.21    1.98
   2   7   9    5.43    2.25
   3   7   9    1.80    2.24
   4   7   9    0.70    2.39
   5   7   9    6.41    2.11
   6   7   9    1.66    2.00
   7   7   9    0.49    1.72
   8   7   9    2.20    1.83
   9   7   9    3.12    2.13
  10   7   9   -0.09    2.58
  11   7   9   -0.15    2.65
 -18   8   9   -2.78    1.66
 -17   8   9   -2.49    1.51
 -16   8   9   -1.82    1.34
 -15   8   9    0.93    1.54
 -14   8   9    0.75    1.31
 -14   8   9   -0.47    1.54
 -13   8   9    1.18    1.54
 -13   8   9    1.01    1.36
 -12   8   9    2.54    1.57
 -12   8   9    0.76    1.36
 -11   8   9    2.24    1.26
 -11   8   9    2.14    1.52
 -10   8   9    1.61    1.19
  -9   8   9    0.23    1.21
  -8   8   9    8.46    1.48
  -7   8   9    9.03    1.45
  -7   8   9    6.42    1.63
  -6   8   9   -0.86    1.30
  -6   8   9    1.81    1.06
  -5   8   9   12.99    1.85
  -5   8   9   12.21    1.57
  -4   8   9   -0.14    1.60
  -4   8   9   -0.71    0.99
  -3   8   9   -0.13    0.91
  -2   8   9    1.13    1.64
  -2   8   9    0.18    0.94
   1  -8  -9    2.82    1.47
  -1   8   9    3.14    1.55
  -1   8   9    2.77    0.95
   0   8   9    0.15    1.37
   1   8   9   -2.93    1.89
   2   8   9    4.01    2.01
   3   8   9    3.25    2.14
   4   8   9    7.11    2.42
   5   8   9    5.11    2.82
   6   8   9    3.98    2.72
   7   8   9    4.91    3.01
   8   8   9    6.87    3.06
   9   8   9    4.48    3.18
  10   8   9    5.85    3.45
 -18   9   9    0.90    1.71
 -17   9   9   -1.92    1.71
 -16   9   9   -2.56    1.40
 -15   9   9    6.43    1.95
 -15   9   9    1.24    1.62
 -14   9   9   -0.55    1.35
 -14   9   9    2.07    1.64
 -13   9   9   -1.44    1.26
 -13   9   9    0.01    1.62
 -12   9   9    2.18    1.28
 -12   9   9    1.42    1.72
 -11   9   9    0.81    1.25
 -11   9   9    0.78    1.56
 -10   9   9    2.00    1.53
 -10   9   9   -0.52    1.21
  -9   9   9    0.57    1.43
  -9   9   9   -1.22    1.16
  -8   9   9    1.85    1.28
  -8   9   9    4.31    1.56
  -7   9   9    1.04    1.18
  -7   9   9    1.37    1.52
  -6   9   9    1.33    1.54
  -6   9   9    0.50    1.16
  -5   9   9    0.66    1.43
  -5   9   9    1.49    1.17
  -4   9   9    0.10    1.57
  -4   9   9    0.72    1.10
  -3   9   9    4.12    1.60
  -3   9   9    5.88    1.20
  -2   9   9    0.28    0.99
  -2   9   9    0.74    1.63
  -1   9   9   -1.66    1.75
   0   9   9   -0.31    1.60
   1   9   9    1.30    1.54
   2   9   9    0.91    1.75
   3   9   9   -0.73    1.97
   4   9   9    0.29    2.21
   5   9   9   -2.14    2.26
   6   9   9    1.01    2.50
   7   9   9    1.94    2.57
   8   9   9    2.86    3.02
   9   9   9   -1.96    2.90
 -16  10   9   -2.50    1.57
 -16  10   9    0.31    2.24
 -15  10   9    1.78    2.10
 -15  10   9   -1.24    1.61
 -14  10   9   -0.54    1.40
 -14  10   9    2.87    2.00
 -13  10   9    0.58    1.84
 -13  10   9   -1.28    1.41
 -12  10   9    0.69    1.69
 -12  10   9    0.63    1.44
 -11  10   9   -0.30    1.70
 -11  10   9    0.20    1.34
 -10  10   9    2.61    1.73
 -10  10   9   -0.52    1.20
  -9  10   9    3.31    1.60
  -9  10   9    1.11    1.27
  -8  10   9    0.41    1.29
  -8  10   9    1.59    1.56
  -7  10   9    1.24    1.28
  -7  10   9    3.21    1.62
  -6  10   9   -0.09    1.35
  -5  10   9    0.54    1.45
  -5  10   9    0.72    1.23
  -4  10   9    0.55    1.35
  -4  10   9    0.71    1.21
  -3  10   9    3.65    1.23
  -3  10   9    0.91    1.61
  -2  10   9    3.67    1.49
  -2  10   9    7.48    1.24
  -1  10   9   -0.18    1.67
   0  10   9   -0.39    1.78
   1  10   9    1.61    1.75
   2  10   9   -1.22    1.70
   3  10   9    1.27    1.79
   4  10   9    1.88    1.86
   5  10   9   -1.51    1.95
   6  10   9   -3.54    2.55
   7  10   9   -3.82    2.47
   8  10   9   -3.79    2.84
 -17  11   9   -0.94    1.82
 -16  11   9   -2.77    1.48
 -16  11   9    3.89    2.42
 -15  11   9    0.27    1.56
 -15  11   9    3.58    2.16
 -14  11   9    1.57    2.13
 -14  11   9   -2.98    1.59
 -13  11   9    3.20    2.19
 -13  11   9   -2.72    1.36
 -12  11   9   -1.77    1.78
 -12  11   9   -1.71    1.39
 -11  11   9   -2.41    1.36
 -11  11   9    0.98    1.81
 -10  11   9    4.15    1.79
 -10  11   9    0.27    1.44
  -9  11   9    4.92    1.74
  -9  11   9    1.43    1.40
  -8  11   9   -0.90    1.33
  -8  11   9   -1.13    1.55
  -7  11   9    2.91    1.55
  -7  11   9   -0.22    1.32
  -6  11   9   -1.34    1.45
  -6  11   9   -1.71    1.20
  -5  11   9    1.65    1.57
  -5  11   9    1.46    1.38
  -4  11   9    4.10    1.63
  -4  11   9    3.29    1.32
  -3  11   9    2.30    1.26
  -3  11   9    0.04    1.47
  -2  11   9   -1.48    1.62
  -1  11   9    0.55    1.47
   0  11   9    0.36    1.68
   1  11   9   -1.16    1.99
   2  11   9   -1.39    2.18
   3  11   9   -0.22    1.90
   4  11   9   -2.37    2.04
   5  11   9   -0.69    2.12
   6  11   9   -0.28    2.39
   7  11   9   -0.45    2.43
 -16  12   9    0.82    2.53
 -15  12   9    1.69    2.48
 -15  12   9    0.56    1.63
 -14  12   9    1.52    2.29
 -14  12   9   -0.80    1.56
 -13  12   9   -1.12    2.14
 -13  12   9   -1.51    1.50
 -12  12   9   -2.46    1.47
 -12  12   9   -2.19    1.96
 -11  12   9   -1.33    1.43
 -11  12   9    1.09    2.00
 -10  12   9   -2.31    1.46
 -10  12   9    2.74    2.05
  -9  12   9    2.18    1.86
  -8  12   9    1.28    1.71
  -8  12   9    1.74    1.60
  -7  12   9    3.97    1.66
  -7  12   9    0.81    1.47
  -6  12   9    1.85    1.68
  -6  12   9    0.88    1.45
  -5  12   9    0.64    1.55
  -5  12   9    0.41    1.41
  -4  12   9    1.01    1.73
  -4  12   9   -2.30    1.34
  -3  12   9    1.07    1.75
  -3  12   9   -0.28    1.26
  -2  12   9    0.78    1.67
  -1  12   9   -1.44    1.92
   0  12   9    0.15    1.97
   1  12   9   -1.39    1.51
   2  12   9   -0.17    1.95
   3  12   9   -0.30    2.23
   4  12   9    1.47    2.42
   5  12   9   -1.01    2.87
 -15  13   9   -1.37    1.78
 -15  13   9    2.22    2.74
 -14  13   9   -0.23    2.61
 -14  13   9    0.55    1.92
 -13  13   9   -4.07    2.31
 -13  13   9    0.19    1.81
 -12  13   9    0.66    1.82
 -12  13   9   -2.10    2.12
 -11  13   9    1.00    1.67
 -11  13   9    1.40    2.16
 -10  13   9    0.79    1.69
 -10  13   9    3.71    2.01
  -9  13   9    1.77    1.74
  -9  13   9    3.35    2.13
  -8  13   9    0.97    1.63
  -8  13   9   -0.87    1.82
  -7  13   9    2.18    1.87
  -7  13   9    0.25    1.50
  -6  13   9    0.00    1.42
  -6  13   9    2.89    1.89
  -5  13   9    0.21    1.71
  -4  13   9    0.38    1.53
  -4  13   9    1.38    1.72
  -3  13   9    0.75    1.36
  -3  13   9    1.93    1.68
  -2  13   9    4.01    1.79
  -1  13   9   -1.16    1.74
   0  13   9   -3.19    1.87
   1  13   9   -0.95    2.04
   2  13   9    3.56    2.05
   3  13   9    1.29    2.25
   4  13   9    0.49    2.49
   5  13   9   -2.52    2.50
 -14  14   9    2.85    2.20
 -14  14   9    1.42    2.84
 -13  14   9    3.33    2.16
 -13  14   9   -1.70    2.56
 -12  14   9   -0.97    2.47
 -12  14   9    3.36    1.96
 -11  14   9   -0.04    1.83
 -11  14   9   -0.54    2.21
 -10  14   9    5.70    2.32
 -10  14   9    1.49    1.88
  -9  14   9    0.50    1.86
  -9  14   9    0.67    1.80
  -8  14   9    0.81    1.96
  -8  14   9    3.32    1.79
  -7  14   9   -0.25    1.74
  -7  14   9    0.26    1.72
  -6  14   9    3.76    1.93
  -6  14   9    1.19    1.62
  -5  14   9    0.26    1.75
  -4  14   9    0.13    1.64
  -4  14   9    2.12    1.87
  -3  14   9    0.09    1.75
  -2  14   9    0.44    1.70
  -1  14   9    1.61    1.95
   0  14   9    0.46    1.89
   1  14   9    0.22    1.86
   2  14   9    1.64    2.76
   3  14   9   -4.21    2.62
 -13  15   9    1.25    2.27
 -13  15   9   -3.24    2.78
 -12  15   9   -3.94    2.68
 -12  15   9    2.41    2.32
 -11  15   9    0.20    2.39
 -11  15   9   -2.03    2.08
 -10  15   9    6.04    2.45
 -10  15   9   -0.06    2.03
  -9  15   9   -1.12    1.92
  -9  15   9    1.49    2.32
  -8  15   9    1.91    1.99
  -8  15   9   -1.71    1.85
  -7  15   9    2.54    2.18
  -7  15   9    4.48    1.87
  -6  15   9   -1.44    1.57
  -6  15   9    2.25    1.99
  -5  15   9    1.16    1.99
  -4  15   9    0.97    1.89
  -3  15   9    0.70    1.96
  -2  15   9    0.93    2.04
  -1  15   9    0.90    1.98
   1  15   9    4.74    2.36
 -11  16   9    3.74    2.48
 -11  16   9    0.96    2.55
 -10  16   9    3.41    2.45
 -10  16   9    3.71    2.42
  -9  16   9   -0.19    2.44
  -9  16   9    1.28    2.11
  -8  16   9   -3.46    1.98
  -8  16   9    3.46    2.11
  -7  16   9    2.05    2.11
  -7  16   9    1.69    1.98
  -6  16   9    1.87    2.08
  -5  16   9    3.21    2.07
  -2  16   9   -0.28    2.02
  -1  16   9    8.46    2.56
  -7  17   9    2.90    2.19
  -6  17   9    2.11    2.14
   1  18 -10    0.77    2.38
  -1 -18  10    2.05    2.59
   0  18 -10    2.20    2.36
   0 -18  10    6.92    2.62
  -1  18 -10    3.75    1.97
  -1  18 -10    0.84    2.25
   1 -18  10    2.05    2.44
  -2  18 -10    4.48    2.21
  -2  18 -10    2.46    1.98
   2 -18  10   -1.95    2.29
  -3  18 -10    2.75    2.30
   3 -18  10   -1.00    2.25
  -4  18 -10    0.21    2.03
   4 -18  10   -0.57    2.34
   5 -18  10   -0.38    2.35
  -6  18 -10    0.30    2.13
   6 -18  10    0.55    2.24
   4  17 -10    0.31    2.50
   3  17 -10   -0.31    2.37
   3  17 -10   -2.94    1.67
   2  17 -10   -0.62    1.65
   2  17 -10    1.55    2.22
  -2 -17  10    1.54    2.25
   1  17 -10   -0.98    1.55
   1  17 -10   -0.83    2.13
  -1 -17  10    0.60    2.31
   0  17 -10    2.84    2.27
   0 -17  10    0.04    2.21
  -1  17 -10    0.73    1.62
  -1  17 -10    0.49    2.03
   1 -17  10    1.63    2.19
  -2  17 -10    2.80    1.76
  -2  17 -10    5.60    2.12
   2 -17  10    0.73    2.24
  -3  17 -10    1.15    1.88
   3 -17  10    1.14    2.18
  -4  17 -10    1.27    1.98
   4 -17  10   -1.49    2.16
  -5  17 -10    1.29    1.84
   5 -17  10    1.24    2.25
  -6  17 -10    1.77    1.95
   6 -17  10   -0.67    1.93
  -7  17 -10   -0.51    2.02
   7 -17  10   -3.24    2.04
   8 -17  10   -0.75    2.15
   6  16 -10    3.38    2.49
   6  16 -10   -4.02    1.89
   5  16 -10   -2.08    1.86
   5  16 -10    2.68    2.41
   4  16 -10    0.02    2.27
   4  16 -10   -1.51    1.63
  -4 -16  10    3.50    2.17
   3  16 -10   -0.21    2.08
  -3 -16  10   -0.77    2.10
   2  16 -10    0.48    2.01
   2  16 -10   -0.83    1.50
  -2 -16  10    0.28    2.02
   1  16 -10   -1.20    1.46
   1  16 -10   -2.02    1.99
  -1 -16  10    3.27    2.14
   0  16 -10    2.66    1.93
   0 -16  10   -1.31    1.93
  -1  16 -10    1.34    1.49
  -1  16 -10   -0.18    1.79
   1 -16  10   -2.33    1.82
  -2  16 -10    2.72    1.73
  -2  16 -10    0.47    1.53
   2 -16  10   -0.21    1.85
  -3  16 -10   -0.53    1.64
   3 -16  10   -2.78    1.80
  -4  16 -10    1.26    1.62
   4 -16  10   -0.48    1.86
  -5  16 -10    2.00    1.59
   5 -16  10   -3.90    1.80
  -6  16 -10    2.28    2.07
   6 -16  10   -1.54    1.90
  -7  16 -10    0.36    1.69
   7 -16  10   -3.27    1.83
   8 -16  10   -0.29    1.89
   9 -16  10   -0.52    2.13
   7  15 -10    0.86    2.25
   7  15 -10    0.38    1.77
   6  15 -10    3.37    2.21
   6  15 -10   -1.43    1.48
   5  15 -10   -2.52    1.47
   5  15 -10    0.10    2.05
  -5 -15  10    2.38    1.96
   4  15 -10   -1.60    1.51
   4  15 -10   -0.72    2.01
  -4 -15  10    0.04    2.00
   3  15 -10   -1.88    1.32
   3  15 -10    0.57    1.90
  -3 -15  10    1.41    1.95
   2  15 -10    0.75    1.74
   2  15 -10   -0.69    1.29
  -2 -15  10    1.62    1.86
   1  15 -10   -1.01    1.26
   1  15 -10    0.01    1.67
  -1 -15  10    2.63    1.86
   0  15 -10    1.50    1.89
   0  15 -10   -1.41    1.19
   0 -15  10    1.41    1.85
  -1  15 -10    1.70    1.56
  -1  15 -10    1.08    1.29
   1 -15  10   -0.04    1.76
  -2  15 -10   -0.22    1.29
  -2  15 -10    0.88    1.48
   2 -15  10   -0.99    1.74
  -3  15 -10   -0.24    1.54
   3 -15  10   -1.26    1.77
  -4  15 -10    0.32    1.69
   4 -15  10   -1.17    1.71
  -5  15 -10    0.68    1.56
   5 -15  10   -0.52    1.69
  -6  15 -10    0.40    1.85
   6 -15  10   -3.48    1.64
   7 -15  10   -0.86    1.67
   8 -15  10    0.45    1.86
   9 -15  10    1.85    1.94
  10 -15  10    1.95    1.94
   9  14 -10    1.10    1.59
   8  14 -10   -0.03    1.43
   7  14 -10    1.98    1.38
   7  14 -10   -1.25    1.95
  -7 -14  10    0.93    2.07
   6  14 -10   -0.65    1.45
   6  14 -10    0.71    1.87
   5  14 -10    2.15    1.81
   5  14 -10   -1.10    1.34
  -5 -14  10    2.56    1.88
   4  14 -10    1.56    1.87
   4  14 -10    0.55    1.36
  -4 -14  10    3.16    1.83
   3  14 -10   -0.60    1.40
   3  14 -10    0.93    1.74
  -3 -14  10    1.28    1.69
   2  14 -10   -0.94    1.15
   2  14 -10   -0.48    1.57
  -2 -14  10    1.44    1.73
   1  14 -10    0.11    1.55
   1  14 -10   -0.12    1.16
  -1 -14  10    0.53    1.69
   0  14 -10    1.19    1.59
   0  14 -10   -1.30    1.09
   0 -14  10    4.33    1.73
  -1  14 -10    2.31    1.60
  -1  14 -10    0.24    1.16
   1 -14  10    0.06    1.60
  -2  14 -10    2.24    1.39
  -2  14 -10    0.52    1.29
   2 -14  10   -0.84    1.57
  -3  14 -10    1.53    1.46
   3 -14  10    1.11    1.77
  -4  14 -10    2.11    1.46
   4 -14  10   -1.32    1.59
  -5  14 -10    3.53    1.64
   5 -14  10    1.52    1.61
  -6  14 -10   -0.49    1.44
   6 -14  10    0.21    1.65
   7 -14  10   -0.84    1.65
   8 -14  10   -0.19    1.76
   9 -14  10   -0.37    1.64
  10 -14  10    2.35    1.91
  11 -14  10    1.56    2.04
  12 -14  10    2.27    2.29
  10  13 -10   -1.01    1.51
   9  13 -10    0.50    1.46
   8  13 -10   -0.96    1.90
   8  13 -10   -0.61    1.21
  -8 -13  10    0.79    1.84
   7  13 -10   -2.62    1.72
   7  13 -10    0.91    1.21
  -7 -13  10    2.13    1.87
   6  13 -10    0.28    1.27
   6  13 -10   -0.09    1.61
  -6 -13  10    0.63    1.73
   5  13 -10    5.53    1.41
   5  13 -10    9.44    1.88
  -5 -13  10   10.14    1.87
   4  13 -10    1.86    1.69
   4  13 -10   -0.49    1.17
  -4 -13  10    3.74    1.75
   3  13 -10    1.48    1.53
   3  13 -10   -1.96    1.16
  -3 -13  10   -1.56    1.53
   2  13 -10   -0.06    1.42
   2  13 -10   -1.20    1.04
  -2 -13  10    1.47    1.54
   1  13 -10    2.58    1.54
   1  13 -10    0.79    1.13
  -1 -13  10    2.12    1.60
   0  13 -10   -0.80    0.97
   0  13 -10    0.68    1.40
   0 -13  10   -0.56    1.46
  -1  13 -10    7.64    1.57
  -1  13 -10    5.91    1.25
   1 -13  10    4.94    1.64
  -2  13 -10    4.00    1.60
   2 -13  10    3.47    1.64
  -3  13 -10    2.10    1.29
   3 -13  10    0.86    1.45
  -4  13 -10    0.34    1.37
   4 -13  10   -0.10    1.34
  -5  13 -10    0.75    1.63
   5 -13  10   -0.30    1.41
   6 -13  10    0.88    1.48
   7 -13  10    0.23    1.52
   8 -13  10    2.09    1.63
   9 -13  10    1.12    1.63
  10 -13  10   -1.24    1.70
  11 -13  10    0.34    1.82
  12 -13  10   -0.61    1.96
  13 -13  10    0.26    2.11
  11  12 -10   -0.35    1.58
  10  12 -10   -1.16    1.28
   9  12 -10   -0.36    1.30
  -9 -12  10    2.52    1.94
   8  12 -10    0.90    1.14
  -8 -12  10    4.06    1.89
   7  12 -10   -0.01    1.11
  -7 -12  10    3.89    1.70
   6  12 -10    0.30    1.50
   6  12 -10    0.65    1.07
  -6 -12  10    2.19    1.58
   5  12 -10   -1.50    1.08
   5  12 -10   -0.64    1.47
  -5 -12  10    1.25    1.48
   4  12 -10    0.92    1.45
   4  12 -10   -0.83    1.10
  -4 -12  10    0.79    1.51
   3  12 -10   14.26    2.21
   3  12 -10    9.75    1.58
  -3 -12  10   15.09    2.28
   2  12 -10    5.57    1.51
  -2 -12  10    6.86    1.68
   1  12 -10    0.67    1.29
   1  12 -10    0.81    1.05
  -1 -12  10   -0.05    1.49
   0  12 -10    5.43    1.42
   0  12 -10    0.84    1.04
   0 -12  10    2.62    1.40
  -1  12 -10    0.64    1.13
  -1  12 -10    3.45    1.10
   1 -12  10    1.97    1.48
  -2  12 -10    0.48    1.27
   2 -12  10    0.06    1.33
  -3  12 -10    0.41    1.37
   3 -12  10    0.16    1.45
  -4  12 -10    0.28    1.30
   4 -12  10    0.87    1.28
   5 -12  10    0.67    1.36
   6 -12  10   -1.00    1.37
   7 -12  10    0.99    1.55
   8 -12  10    2.26    1.59
   9 -12  10    0.29    1.70
  10 -12  10    5.23    1.84
  11 -12  10    2.37    1.87
  12 -12  10    0.91    1.77
  12  11 -10    0.03    1.57
  11  11 -10   -1.03    1.39
 -11 -11  10    1.81    2.03
  10  11 -10   -0.13    1.32
 -10 -11  10    2.05    1.95
   9  11 -10   -0.65    1.16
  -9 -11  10    2.57    1.83
   8  11 -10    3.45    1.81
   8  11 -10    1.14    1.21
  -8 -11  10    0.53    1.57
   7  11 -10    1.34    1.06
   7  11 -10    1.04    1.64
  -7 -11  10    0.88    1.50
   6  11 -10   16.91    2.54
   6  11 -10   20.56    2.49
  -6 -11  10   18.88    2.32
   5  11 -10    1.07    1.50
   5  11 -10   -1.29    0.96
  -5 -11  10   -0.54    1.33
   4  11 -10    0.67    1.05
   4  11 -10    1.51    1.38
  -4 -11  10    2.12    1.42
   3  11 -10   -0.37    1.00
  -3 -11  10   -0.39    1.26
   2  11 -10    0.41    0.88
   2  11 -10    0.54    1.24
  -2 -11  10    3.91    1.37
   1  11 -10    0.30    0.88
   1  11 -10    2.12    1.18
  -1 -11  10    0.78    1.34
   0  11 -10    1.76    1.18
   0  11 -10   -0.30    0.87
   0 -11  10    0.22    1.34
  -1  11 -10    2.11    1.17
  -1  11 -10    0.78    0.98
   1 -11  10    2.09    1.39
  -2  11 -10    0.76    1.11
   2 -11  10    0.52    1.29
  -3  11 -10    0.12    1.17
   3 -11  10   -0.97    1.35
   4 -11  10    0.17    1.29
   5 -11  10    0.47    1.30
   6 -11  10    4.78    1.50
   7 -11  10    2.53    1.43
   8 -11  10    1.14    1.49
   9 -11  10    2.30    1.62
  10 -11  10    1.24    1.59
  11 -11  10    1.90    1.68
  12 -11  10   -1.60    1.71
  13 -11  10   -1.97    1.85
  14 -11  10   -1.25    2.02
  13  10 -10   -1.20    1.53
  12  10 -10   -0.61    1.33
 -12 -10  10    3.78    2.18
  11  10 -10   -0.45    1.20
 -11 -10  10    0.48    1.81
  10  10 -10    0.26    1.04
 -10 -10  10   -0.50    1.75
   9  10 -10   -0.69    1.10
  -9 -10  10    2.35    1.60
   8  10 -10    0.48    1.48
   8  10 -10    0.19    1.07
  -8 -10  10    0.88    1.54
   7  10 -10    1.20    0.95
   7  10 -10    1.82    1.49
  -7 -10  10    0.13    1.44
   6  10 -10    5.60    1.51
   6  10 -10    4.32    1.11
  -6 -10  10    6.61    1.54
   5  10 -10    1.45    1.35
   5  10 -10   -0.08    0.97
  -5 -10  10    1.10    1.39
   4  10 -10   33.18    2.31
   4  10 -10   29.35    2.57
  -4 -10  10   33.46    2.39
   3  10 -10   -0.46    1.21
   3  10 -10   -0.88    0.86
  -3 -10  10    0.35    1.22
   2  10 -10   -0.17    1.11
   2  10 -10    0.65    0.87
  -2 -10  10    2.30    1.39
   1  10 -10    2.90    1.20
  -1 -10  10    4.06    1.50
   0  10 -10    2.83    0.97
   0 -10  10    1.44    1.35
  -1  10 -10    0.72    1.10
   1 -10  10    1.00    1.36
  -2  10 -10    4.16    1.29
   2 -10  10    5.69    1.48
   3 -10  10    1.63    1.30
   4 -10  10   -1.14    1.29
   5 -10  10    6.21    1.57
   6 -10  10   16.26    2.14
   7 -10  10    4.96    1.56
   8 -10  10    0.82    1.43
   9 -10  10    0.66    1.46
  10 -10  10    1.54    1.59
  11 -10  10    0.72    1.60
  12 -10  10   -2.04    1.56
  13 -10  10   -0.85    1.86
  14 -10  10   -0.02    1.90
  14   9 -10    0.44    1.64
  13   9 -10   -0.10    1.45
 -13  -9  10   -1.33    2.22
  12   9 -10   -0.33    1.40
 -12  -9  10    2.26    2.02
  11   9 -10   -0.53    1.10
 -11  -9  10    0.67    1.83
  10   9 -10    0.83    0.99
 -10  -9  10    2.95    1.72
   9   9 -10    0.25    1.06
  -9  -9  10    2.54    1.52
   8   9 -10    0.97    0.98
  -8  -9  10    1.05    1.38
   7   9 -10    0.93    0.98
  -7  -9  10    1.25    1.36
   6   9 -10    0.59    1.10
   6   9 -10    0.15    0.85
  -6  -9  10    2.70    1.26
   5   9 -10   -0.82    0.87
   5   9 -10   -0.45    1.07
  -5  -9  10   -0.42    1.23
   4   9 -10    1.98    1.03
   4   9 -10    3.36    1.16
  -4  -9  10    2.62    1.27
   3   9 -10   -0.67    1.03
   3   9 -10    0.62    0.87
  -3  -9  10    1.67    1.30
   2   9 -10    9.33    1.33
   2   9 -10    5.67    1.00
  -2  -9  10    9.48    1.54
   1   9 -10   -0.44    0.80
   1   9 -10    0.17    1.00
  -1  -9  10    0.78    1.21
   0   9 -10   -0.69    0.87
   0   9 -10    1.00    1.04
   0  -9  10    0.39    1.25
   1  -9  10    0.33    1.24
   2  -9  10    0.44    1.22
   3  -9  10    8.77    1.50
   4  -9  10    1.83    1.32
   5  -9  10   12.62    1.86
   6  -9  10    1.67    1.33
   7  -9  10    2.06    1.40
   8  -9  10    2.12    1.38
   9  -9  10    3.35    1.55
  10  -9  10   -1.00    1.35
  11  -9  10    1.11    1.64
  12  -9  10    2.26    1.75
  13  -9  10   -0.40    1.88
  14  -9  10   -2.27    1.99
  15  -9  10   -0.06    2.12
 -14  -8  10    1.67    2.31
  13   8 -10   -0.33    1.35
 -13  -8  10    3.93    2.04
  12   8 -10   -0.46    1.24
 -12  -8  10    0.53    1.85
  11   8 -10    0.12    1.05
 -11  -8  10    1.38    1.70
  10   8 -10    0.56    1.07
 -10  -8  10    3.43    1.55
   9   8 -10    1.37    0.95
  -9  -8  10    7.02    1.60
   8   8 -10    1.57    0.97
  -8  -8  10    3.51    1.40
   7   8 -10    0.37    0.84
  -7  -8  10   -2.04    1.23
   6   8 -10    0.58    0.85
   6   8 -10    0.61    1.00
  -6  -8  10    1.17    1.17
   5   8 -10    2.60    0.98
   5   8 -10    5.21    1.09
   4   8 -10    0.98    0.88
   4   8 -10    0.44    0.94
   3   8 -10    1.21    0.79
   3   8 -10    2.71    1.01
   2   8 -10    2.31    0.93
   2   8 -10    3.89    1.02
   1   8 -10    9.98    1.51
   1   8 -10    6.10    0.95
   0   8 -10   -0.65    0.80
   1  -8  10    5.64    1.36
   2  -8  10    2.65    1.39
   3  -8  10    0.68    1.18
   4  -8  10    8.19    1.48
   5  -8  10    5.30    1.42
   6  -8  10    4.76    1.35
   7  -8  10    2.31    1.31
   8  -8  10   10.04    1.70
   9  -8  10    4.27    1.56
  10  -8  10    0.78    1.53
  11  -8  10    0.15    1.51
  12  -8  10   -0.06    1.61
  13  -8  10   -0.77    1.77
  14  -8  10    1.47    2.13
 -15  -7  10    3.12    2.40
  14   7 -10    0.56    1.41
 -14  -7  10    4.66    2.08
  13   7 -10   -0.17    1.24
 -13  -7  10    4.67    1.94
  12   7 -10   -1.32    1.01
 -12  -7  10    0.34    1.67
  11   7 -10    1.25    1.08
 -11  -7  10    2.12    1.67
  10   7 -10    0.82    0.99
 -10  -7  10    2.40    1.44
   9   7 -10    6.09    1.20
  -9  -7  10    9.84    1.62
   8   7 -10    0.33    0.82
  -8  -7  10    1.04    1.26
   7   7 -10    2.40    0.97
  -7  -7  10    1.53    1.30
   6   7 -10   -1.02    0.79
   5   7 -10    4.27    0.90
   5   7 -10    2.66    0.96
  -5  -7  10    4.22    1.28
  -5  -7  10    3.67    1.19
   4   7 -10    0.39    0.76
   4   7 -10    0.75    0.82
  -4  -7  10    0.80    1.00
   3   7 -10    8.98    1.12
  -3  -7  10    8.40    1.25
   2   7 -10    4.19    0.74
  -2  -7  10    5.67    1.06
   1   7 -10    0.74    0.62
  -1  -7  10    0.51    0.90
   0  -7  10   14.74    1.46
   2  -7  10    0.39    1.12
   3  -7  10    4.92    1.25
   4  -7  10    1.65    1.13
   5  -7  10    0.76    1.17
   6  -7  10    0.92    1.23
   7  -7  10   15.43    2.16
   8  -7  10    5.14    1.49
   9  -7  10    2.08    1.49
  10  -7  10   -0.93    1.39
  11  -7  10    1.57    1.54
  12  -7  10   -1.41    1.63
  13  -7  10    0.22    1.63
  14  -7  10   -1.63    1.89
  15  -7  10   -0.26    2.23
  16   6 -10   -2.13    1.54
 -16  -6  10    3.10    2.44
  15   6 -10   -0.47    1.31
 -15  -6  10    0.95    2.30
  14   6 -10   -1.05    1.27
 -14  -6  10    3.09    1.96
  13   6 -10    1.00    1.28
 -13  -6  10    3.83    1.81
  12   6 -10    0.43    0.94
 -12  -6  10    0.75    1.64
  11   6 -10    0.05    0.86
 -11  -6  10    0.32    1.50
  10   6 -10    4.08    1.06
   9   6 -10    2.15    0.85
  -9  -6  10    3.73    1.30
   8   6 -10    0.94    0.84
  -8  -6  10   -0.11    1.17
   7   6 -10    2.08    0.92
  -7  -6  10    3.15    1.34
   6   6 -10   -0.08    0.79
  -6  -6  10    0.30    1.07
   5   6 -10   -0.34    0.73
  -5  -6  10   -0.24    0.91
  -4  -6  10    1.97    0.86
  -4  -6  10    3.04    1.01
   3   6 -10    4.00    0.81
  -3  -6  10    5.50    0.93
   2   6 -10    1.93    0.61
  -2  -6  10    2.88    0.84
   1   6 -10    3.46    0.74
  -1  -6  10    4.51    0.92
   0  -6  10    1.52    0.82
   1  -6  10    7.05    1.17
   2  -6  10    1.18    1.07
   4  -6  10    1.69    1.22
   5  -6  10    0.36    1.18
   6  -6  10    3.16    1.35
   7  -6  10    7.13    1.57
   8  -6  10    1.30    1.38
   9  -6  10    1.70    1.38
  10  -6  10    1.95    1.42
  11  -6  10   -0.06    1.56
  12  -6  10   -1.51    1.54
  13  -6  10   -0.34    1.82
  14  -6  10   -1.74    1.87
  15  -6  10   -0.14    2.32
  16   5 -10   -0.01    1.53
 -16  -5  10    2.52    2.28
  15   5 -10   -0.78    1.18
 -15  -5  10   -1.04    1.98
  14   5 -10    0.08    1.19
 -14  -5  10    3.09    1.94
  13   5 -10    0.73    1.02
 -13  -5  10    2.68    1.66
  12   5 -10   -0.26    1.02
 -12  -5  10    0.68    1.52
  11   5 -10    0.33    0.83
 -11  -5  10    1.08    1.39
  10   5 -10    1.65    0.89
 -10  -5  10    3.51    1.32
   9   5 -10    0.81    0.89
  -9  -5  10    1.32    1.16
   8   5 -10    2.31    0.91
  -8  -5  10    1.65    1.24
   7   5 -10   -0.38    0.72
   6   5 -10    2.12    0.83
  -6  -5  10    4.50    1.18
  -5  -5  10    0.63    0.74
   4   5 -10    0.16    0.55
  -4  -5  10   -0.14    0.76
  -4  -5  10    0.37    0.66
   3   5 -10    1.37    0.56
  -3  -5  10    1.57    0.70
  -3  -5  10    0.27    0.80
   2   5 -10    2.26    0.56
  -2  -5  10    3.44    0.80
  -1  -5  10    8.27    1.07
   0  -5  10   12.00    1.38
   1  -5  10    1.68    0.85
   2  -5  10    3.25    0.94
   3  -5  10   11.65    1.44
   5  -5  10    0.77    1.05
   6  -5  10    7.60    1.48
   7  -5  10    2.19    1.32
   8  -5  10    4.05    1.44
   9  -5  10    1.27    1.40
  10  -5  10    1.47    1.37
  11  -5  10    4.82    1.64
  12  -5  10    1.55    1.71
  13  -5  10    0.48    1.83
  14  -5  10    1.92    2.19
  15  -5  10    1.95    2.41
 -17  -4  10   -3.50    2.33
  16   4 -10   -1.96    1.29
 -16  -4  10   -0.01    2.12
  15   4 -10   -1.19    1.19
 -15  -4  10   -1.51    1.87
  14   4 -10   -0.38    1.04
 -14  -4  10    2.81    1.81
  13   4 -10    0.26    0.97
 -13  -4  10    3.04    1.59
  12   4 -10    1.00    0.93
 -12  -4  10   -0.42    1.44
  11   4 -10    0.83    0.83
 -11  -4  10    0.12    1.27
  10   4 -10    1.19    0.91
 -10  -4  10   -0.91    1.15
   9   4 -10    0.29    0.84
  -9  -4  10    0.62    1.15
   8   4 -10   -0.02    0.82
  -8  -4  10    0.48    1.07
   7   4 -10    0.28    0.78
  -6  -4  10    0.89    0.77
   5   4 -10    9.91    1.44
  -5  -4  10    9.34    1.11
   4   4 -10    3.40    0.70
  -4  -4  10    2.38    0.66
   3   4 -10    0.98    0.51
  -3  -4  10    2.59    0.80
  -3  -4  10    1.00    0.68
   2   4 -10   26.99    1.68
  -2  -4  10   25.08    1.57
  -2  -4  10   25.85    1.57
  -1  -4  10    0.27    0.73
   0  -4  10   -0.33    0.74
   1  -4  10    0.28    0.74
   2  -4  10    4.94    0.92
   3  -4  10   -0.55    0.68
   4  -4  10   -0.40    0.72
   6  -4  10    3.12    1.28
   7  -4  10    0.91    1.19
   8  -4  10    5.40    1.36
   9  -4  10    0.60    1.32
  10  -4  10    0.73    1.38
  11  -4  10    3.19    1.69
  12  -4  10    0.55    1.64
  13  -4  10   -0.50    1.68
  14  -4  10   -0.44    2.08
  15  -4  10    0.45    2.28
  17   3 -10   -0.33    1.52
 -17  -3  10   -4.24    2.14
  16   3 -10   -0.26    1.25
 -16  -3  10    1.58    2.10
  15   3 -10    4.57    1.40
 -15  -3  10    6.63    2.08
  14   3 -10    0.60    1.08
 -14  -3  10    1.76    1.71
  13   3 -10    0.74    0.93
 -13  -3  10    1.63    1.52
  12   3 -10    0.47    0.92
 -12  -3  10    0.80    1.36
  11   3 -10    0.57    0.91
 -11  -3  10   -0.27    1.18
  10   3 -10    0.73    0.84
 -10  -3  10   -0.16    1.13
   9   3 -10    1.20    0.92
  -9  -3  10    2.58    1.15
   8   3 -10    0.09    0.73
  -8  -3  10    0.42    1.10
   7   3 -10   -0.26    0.79
  -7  -3  10    0.06    0.81
   6   3 -10    8.84    1.39
  -6  -3  10   12.73    1.23
   5   3 -10    5.45    0.80
  -5  -3  10    6.46    1.00
   4   3 -10    0.94    0.59
  -4  -3  10    0.75    0.67
   3   3 -10   28.25    1.75
  -3  -3  10   23.87    1.40
  -3  -3  10   22.99    1.52
  -2  -3  10    2.24    0.78
  -2  -3  10    1.98    0.79
  -1  -3  10    8.43    1.18
   0  -3  10    1.74    0.80
   1  -3  10    0.89    0.73
   2  -3  10    6.21    0.93
   3  -3  10    3.64    0.94
   4  -3  10   12.18    1.26
   5  -3  10    0.16    0.83
   6  -3  10    1.48    1.17
   7  -3  10    1.14    1.15
   8  -3  10    5.30    1.41
   9  -3  10    0.45    1.18
  10  -3  10    1.50    1.36
  11  -3  10    0.09    1.48
  12  -3  10    1.52    1.74
  13  -3  10   -0.26    1.84
  14  -3  10    1.85    2.03
  15  -3  10    1.11    2.29
  17   2 -10    0.12    1.43
  16   2 -10    2.24    1.30
 -16  -2  10    1.62    1.95
  15   2 -10    1.13    1.11
 -15  -2  10   -0.91    1.75
  14   2 -10    0.57    1.06
 -14  -2  10    1.49    1.53
  13   2 -10    1.98    1.11
 -13  -2  10    2.18    1.51
  12   2 -10   -0.07    0.81
 -12  -2  10    1.09    1.30
  11   2 -10    0.56    0.90
 -11  -2  10    2.37    1.16
  10   2 -10    4.08    1.05
   9   2 -10    5.41    1.06
  -9  -2  10    7.61    1.37
   8   2 -10    0.05    0.79
  -8  -2  10    0.24    0.90
   7   2 -10    3.92    0.69
  -7  -2  10    5.58    0.90
   6   2 -10    0.66    0.51
  -6  -2  10    1.37    0.77
   5   2 -10    0.40    0.44
  -5  -2  10    0.22    0.67
   4   2 -10    4.19    0.72
  -4  -2  10    4.56    0.83
  -3  -2  10    3.55    0.82
  -2  -2  10    7.95    1.06
  -1  -2  10    4.00    0.88
   0  -2  10    2.46    0.69
   1  -2  10   25.64    1.44
   2  -2  10    0.23    0.56
   3  -2  10    1.12    0.68
   4  -2  10    6.36    1.04
   5  -2  10   -0.11    0.98
   6  -2  10    1.50    1.06
   7  -2  10    2.10    1.27
   8  -2  10    3.66    1.32
   9  -2  10    0.85    1.18
  10  -2  10    2.04    1.37
  11  -2  10    3.33    1.57
  12  -2  10    1.95    1.64
  13  -2  10    6.65    2.11
  13  -2  10    5.72    1.96
  14  -2  10    0.55    1.99
  14  -2  10    4.76    2.19
  18   1 -10   -2.36    1.60
 -18  -1  10   -0.80    2.34
  17   1 -10    0.04    1.36
 -17  -1  10   -0.25    2.11
  16   1 -10    0.78    1.26
 -16  -1  10    2.46    1.97
  15   1 -10    0.02    1.16
 -15  -1  10    0.06    1.55
  14   1 -10    0.76    1.05
 -14  -1  10    1.57    1.52
  13   1 -10    0.74    0.99
 -13  -1  10    2.28    1.41
  12   1 -10   -0.06    0.91
 -12  -1  10    2.07    1.30
  11   1 -10    5.98    1.15
 -11  -1  10   10.02    1.49
  10   1 -10   14.83    2.02
 -10  -1  10   14.53    1.92
   9   1 -10   -0.22    0.78
  -9  -1  10    1.60    1.05
   8   1 -10   14.57    1.55
  -8  -1  10   13.33    1.60
   7   1 -10   13.46    1.36
  -7  -1  10   11.24    1.25
   6   1 -10    7.21    1.07
  -6  -1  10    6.82    1.01
   5   1 -10    5.09    0.71
  -5  -1  10    6.19    1.04
  -4  -1  10    1.96    0.61
  -4  -1  10    1.95    0.74
  -3  -1  10    0.59    0.65
  -3  -1  10    1.38    0.65
  -2  -1  10    0.04    0.69
  -2  -1  10    0.48    0.53
  -1  -1  10    3.39    0.68
   0  -1  10    6.21    0.94
   1  -1  10    0.42    0.60
   2  -1  10    0.63    0.70
   3  -1  10    0.46    0.80
   4  -1  10    2.86    1.04
   5  -1  10    6.00    1.25
   6  -1  10    0.61    1.16
   8  -1  10    3.61    1.29
   9  -1  10    5.20    1.46
  10  -1  10    1.47    1.42
  10  -1  10    4.81    1.60
  11  -1  10    0.07    1.48
  11  -1  10    1.64    1.65
  12  -1  10    1.33    1.72
  12  -1  10    0.18    1.65
  13  -1  10    0.58    1.85
  13  -1  10    1.22    1.89
  14  -1  10    0.00    2.11
  14  -1  10    0.56    2.10
  18   0 -10   -2.61    1.41
 -18   0  10    1.84    2.42
  17   0 -10   -0.62    1.40
 -17   0  10    0.78    2.01
 -16   0  10    0.92    1.80
  15   0 -10   -1.82    1.01
 -15   0  10    0.90    1.58
  14   0 -10    0.03    1.03
 -14   0  10    3.83    1.52
  13   0 -10   -0.42    0.98
 -13   0  10   -0.86    1.29
  12   0 -10    0.37    0.83
 -12   0  10    1.97    1.27
  11   0 -10    3.43    1.06
 -11   0  10    3.71    1.31
  10   0 -10    1.37    0.88
 -10   0  10    1.19    1.11
   9   0 -10    2.19    0.79
  -9   0  10    2.90    1.06
   8   0 -10   23.13    1.81
  -8   0  10   19.95    1.84
   7   0 -10   -0.24    0.53
  -7   0  10   -0.70    0.73
   6   0 -10   -0.14    0.47
  -6   0  10   -0.37    0.62
  -5   0  10    5.26    0.94
  -4   0  10   14.03    1.23
  -4   0  10   13.24    1.09
  -3   0  10   16.57    1.22
  -3   0  10   16.59    1.15
  -2   0  10   14.34    1.21
  -2   0  10   15.23    1.09
  -1   0  10    0.00    0.48
  -1   0  10   -0.86    0.61
   0   0  10    3.38    0.80
   0   0  10    3.58    0.73
   1   0  10    1.49    0.72
   1   0  10    1.01    0.70
   2   0  10    7.66    1.05
   2   0  10    6.78    1.02
   3   0  10    0.69    0.87
   3   0  10    1.84    0.92
   4   0  10    6.37    1.17
   4   0  10    6.49    1.33
   5   0  10    1.61    1.22
   5   0  10    0.61    1.11
   6   0  10   -0.91    1.21
   6   0  10    0.78    1.12
   7   0  10   -0.14    1.41
   7   0  10    1.28    1.19
   8   0  10   10.68    1.82
   9   0  10    1.79    1.28
   9   0  10    2.32    1.48
  10   0  10   -0.07    1.57
  10   0  10    1.51    1.43
  11   0  10    1.11    1.52
  11   0  10    2.13    1.52
  12   0  10    2.41    1.76
  12   0  10    3.72    1.66
  13   0  10    0.49    2.00
  13   0  10    1.44    1.75
  14   0  10    1.18    2.29
  14   0  10    3.02    2.24
  18  -1 -10   -1.71    1.39
 -18   1  10   -2.03    2.08
  17  -1 -10   -0.55    1.31
 -17   1  10   -1.31    1.88
  16  -1 -10   -0.28    1.11
 -16   1  10    1.02    1.62
  15  -1 -10    1.07    1.11
 -15   1  10    3.03    1.63
  14  -1 -10   -0.06    1.02
 -14   1  10    1.92    1.50
  13  -1 -10   -0.66    0.87
 -13   1  10   -0.50    1.32
  12  -1 -10   -0.65    0.83
 -12   1  10   -0.18    1.16
  11  -1 -10    0.18    0.83
 -11   1  10    0.42    1.12
 -10   1  10    2.48    1.10
   9  -1 -10   12.47    1.79
  -9   1  10    9.11    1.40
   8  -1 -10    1.99    0.74
  -8   1  10    2.49    1.00
   7  -1 -10    3.18    0.68
  -6   1  10    2.80    0.81
  -5   1  10    3.22    0.76
  -5   1  10    3.52    0.77
  -4   1  10   12.15    1.04
  -4   1  10    8.60    1.12
  -3   1  10    9.59    1.15
  -2   1  10   13.45    1.05
  -2   1  10   14.06    1.20
  -1   1  10    3.57    0.67
  -1   1  10    3.15    0.76
   0   1  10   13.02    1.14
   0   1  10   13.70    1.15
   1   1  10   18.64    1.31
   1   1  10   18.83    1.41
   2   1  10   19.95    1.39
   2   1  10   17.20    1.48
   3   1  10   13.72    1.53
   4   1  10    8.48    1.21
   4   1  10    7.77    1.46
   5   1  10    2.06    1.13
   5   1  10    3.96    1.17
   6   1  10   12.93    1.85
   6   1  10   10.43    1.75
   7   1  10    2.72    1.40
   7   1  10    3.28    1.32
   8   1  10    2.47    1.32
   8   1  10    4.02    1.51
   9   1  10    2.76    1.42
  10   1  10    2.72    1.58
  11   1  10   -0.37    1.54
  11   1  10    2.13    1.83
  12   1  10   -3.44    1.60
  12   1  10   -0.42    1.65
  13   1  10   -0.94    1.89
  13   1  10   -2.80    1.92
  18  -2 -10   -1.60    1.42
 -18   2  10    0.36    1.97
 -17   2  10   -2.06    1.76
  16  -2 -10   -0.77    1.13
 -16   2  10   -1.46    1.61
 -15   2  10    4.61    1.71
  14  -2 -10   -0.75    0.95
 -14   2  10   -0.45    1.38
 -13   2  10    4.63    1.44
  12  -2 -10    3.81    0.98
 -11   2  10    0.37    1.04
  10  -2 -10    1.42    0.85
 -10   2  10    0.44    1.01
   9  -2 -10    2.15    0.82
  -9   2  10    2.12    0.99
   8  -2 -10   -0.43    0.69
  -8   2  10   -0.26    0.81
  -7   2  10   -0.30    0.65
   6  -2 -10   16.84    1.37
  -6   2  10   18.50    1.43
  -6   2  10   16.25    1.25
   5  -2 -10    7.89    1.33
  -5   2  10    8.12    0.96
  -5   2  10    7.03    0.96
  -4   2  10   -1.21    0.84
  -4   2  10    0.15    0.53
  -3   2  10    1.16    0.61
  -3   2  10    1.25    0.80
  -2   2  10   20.68    1.28
  -2   2  10   18.34    1.40
  -1   2  10   16.34    1.25
  -1   2  10   13.61    1.23
   0   2  10   23.89    1.47
   0   2  10   22.84    1.46
   1   2  10    1.28    0.70
   1   2  10    2.19    0.84
   2   2  10   -0.73    0.63
   2   2  10   -0.39    0.81
   3   2  10    0.71    0.86
   3   2  10    0.18    1.04
   4   2  10    0.29    1.03
   4   2  10    0.95    1.11
   5   2  10    3.31    1.31
   5   2  10    4.01    1.18
   6   2  10    6.83    1.63
   6   2  10    8.97    1.41
   7   2  10    6.40    1.51
   7   2  10    8.29    1.45
   8   2  10   -0.08    1.34
   8   2  10   -0.05    1.27
   9   2  10    1.82    1.47
   9   2  10    2.33    1.46
  10   2  10   -1.39    1.44
  10   2  10    0.00    1.52
  11   2  10    2.14    1.79
  11   2  10    1.14    1.65
  12   2  10    2.23    1.86
  12   2  10    0.95    1.80
  13   2  10    3.31    2.19
 -18   3  10    1.39    1.91
  17  -3 -10   -0.86    1.29
 -17   3  10   -1.23    1.73
  16  -3 -10   -1.11    1.10
 -16   3  10   -2.04    1.56
  15  -3 -10   -0.93    1.00
 -15   3  10    2.28    1.51
  14  -3 -10    0.94    0.99
 -14   3  10    2.48    1.47
  13  -3 -10    5.45    1.03
 -13   3  10    8.01    1.59
 -12   3  10    2.54    1.35
  11  -3 -10    0.94    0.92
 -11   3  10    1.63    1.11
  10  -3 -10    4.39    1.01
 -10   3  10    6.15    1.28
  -9   3  10    0.07    0.90
   8  -3 -10    1.84    1.04
  -8   3  10    0.26    0.87
  -8   3  10   -0.61    0.84
   7  -3 -10    3.82    1.06
  -7   3  10    1.94    0.66
  -7   3  10    2.68    1.01
  -6   3  10    4.56    0.79
  -6   3  10    5.60    1.11
  -5   3  10    1.46    0.62
  -5   3  10    0.52    0.83
  -4   3  10    3.93    0.78
  -4   3  10    3.88    0.96
  -3   3  10    2.75    1.13
  -3   3  10    2.02    0.71
  -2   3  10    0.84    0.80
  -2   3  10    2.02    0.87
  -1   3  10   23.06    1.43
  -1   3  10   23.11    1.52
   0   3  10    2.38    0.71
   0   3  10    3.65    0.86
   1   3  10   -0.32    0.77
   1   3  10   -0.67    0.57
   2   3  10    1.45    0.86
   2   3  10    0.14    1.05
   3   3  10    5.55    1.11
   3   3  10    6.36    1.46
   4   3  10   -0.13    1.14
   4   3  10   -0.42    0.97
   5   3  10   -1.01    1.06
   5   3  10    0.56    1.20
   6   3  10    2.76    1.23
   6   3  10    2.74    1.31
   7   3  10    6.91    1.44
   7   3  10    6.42    1.61
   8   3  10   -0.03    1.43
   8   3  10    1.61    1.34
   9   3  10    1.41    1.55
   9   3  10    2.32    1.51
  10   3  10    2.13    1.72
  10   3  10    2.57    1.86
  11   3  10   -2.23    1.69
  12   3  10   -3.63    1.84
  13   3  10   -2.74    2.60
  18  -4 -10    0.00    1.44
 -18   4  10   -0.10    1.90
  17  -4 -10    0.15    1.19
 -17   4  10   -0.59    1.66
  16  -4 -10   -0.19    1.11
 -16   4  10   -0.01    1.46
  15  -4 -10   -1.55    0.95
 -15   4  10    0.07    1.42
  14  -4 -10    5.28    1.16
 -14   4  10    9.50    1.79
 -13   4  10    1.79    1.28
  12  -4 -10   -0.53    0.95
 -12   4  10    0.68    1.16
  11  -4 -10    0.19    0.97
 -11   4  10   -0.07    1.16
 -10   4  10    2.67    1.13
 -10   4  10    2.01    1.08
  -9   4  10    0.53    0.96
  -9   4  10    0.20    1.02
  -8   4  10    5.10    1.15
  -8   4  10    7.17    1.25
  -7   4  10   14.57    1.75
  -6   4  10    1.89    0.64
  -6   4  10    2.08    1.10
  -5   4  10    8.42    1.23
  -5   4  10    8.95    1.12
  -4   4  10    9.19    1.16
  -4   4  10    8.25    1.40
  -3   4  10   18.88    1.65
  -3   4  10   18.59    1.43
  -2   4  10   -0.28    1.07
  -2   4  10    0.32    0.85
  -1   4  10    8.04    1.07
  -1   4  10    5.80    1.04
   0   4  10   -0.96    0.75
   0   4  10    0.75    0.74
   1   4  10   -0.95    1.07
   1   4  10    0.80    0.82
   2   4  10    4.69    1.39
   2   4  10    4.52    0.97
   3   4  10    2.21    1.36
   3   4  10    1.64    0.99
   4   4  10    1.80    0.99
   4   4  10    0.53    1.31
   5   4  10    2.44    1.31
   5   4  10    5.07    1.16
   6   4  10    2.19    1.17
   6   4  10    0.24    1.31
   7   4  10   -2.24    1.31
   7   4  10    0.58    1.27
   8   4  10    0.02    1.37
   8   4  10   -0.55    1.49
   9   4  10    0.67    1.60
   9   4  10   -0.67    1.67
  10   4  10   -2.20    1.72
  11   4  10    0.22    1.79
  12   4  10   -0.36    2.03
  18  -5 -10    0.14    1.40
  17  -5 -10    0.85    1.29
 -17   5  10    0.53    1.72
  16  -5 -10    0.89    1.19
 -16   5  10   -0.86    1.50
  15  -5 -10    2.26    1.10
 -15   5  10    0.06    1.47
 -14   5  10    4.97    1.54
 -13   5  10    0.78    1.24
 -12   5  10   -0.24    1.17
 -12   5  10   -0.40    1.09
 -11   5  10   -0.21    1.20
 -11   5  10    0.52    1.09
 -10   5  10   -1.07    1.10
 -10   5  10   -0.24    1.14
  -9   5  10    3.75    1.16
  -9   5  10    4.41    1.29
  -8   5  10   12.47    1.67
  -8   5  10   13.35    1.59
  -7   5  10    0.72    1.24
  -6   5  10    5.43    1.00
  -6   5  10    5.36    1.30
  -5   5  10    2.41    1.10
  -5   5  10    2.66    0.85
  -4   5  10    2.63    0.87
  -4   5  10    1.77    1.06
  -3   5  10    4.44    1.26
  -3   5  10    3.86    1.00
  -2   5  10    7.16    1.12
  -2   5  10    8.81    1.44
  -1   5  10    7.17    1.14
  -1   5  10    8.85    1.50
   0   5  10    0.06    0.96
   0   5  10    1.63    1.14
   1   5  10    1.49    1.27
   1   5  10    1.52    0.99
  -2  -5 -10    1.10    1.26
   2   5  10    2.68    0.94
   2   5  10    1.52    1.23
  -3  -5 -10    0.02    1.23
   3   5  10    1.18    0.90
   3   5  10    1.15    1.27
   4   5  10   -0.57    1.30
   4   5  10   -0.24    1.19
   5   5  10    2.32    1.34
   6   5  10    2.17    1.48
   7   5  10   -0.54    1.38
   8   5  10   -0.84    1.59
   9   5  10   -2.46    1.76
  10   5  10   -0.52    1.89
  11   5  10    1.26    2.00
  17  -6 -10    1.35    1.38
 -17   6  10   -0.81    1.69
 -16   6  10    0.38    1.44
 -15   6  10   -2.08    1.25
 -14   6  10   -1.31    1.35
 -13   6  10   -0.29    1.41
 -13   6  10    2.14    1.32
 -12   6  10    3.19    1.47
 -12   6  10    1.53    1.27
 -11   6  10    5.72    1.46
 -11   6  10    2.48    1.32
 -10   6  10    3.36    1.38
 -10   6  10    3.33    1.20
  -9   6  10    9.92    1.61
  -9   6  10    6.87    1.32
  -8   6  10    5.81    1.57
  -8   6  10    6.00    1.31
  -7   6  10    0.20    1.09
  -7   6  10    0.03    1.35
  -6   6  10    1.41    0.94
  -6   6  10    0.40    1.31
  -5   6  10    1.05    0.92
  -5   6  10    1.02    1.12
  -4   6  10    0.17    0.90
  -4   6  10    1.92    1.14
  -3   6  10    2.60    1.12
  -3   6  10    1.04    0.93
  -2   6  10    9.10    1.19
  -1   6  10    1.43    1.01
  -1   6  10   -0.07    1.55
   0   6  10    4.36    2.05
  -1  -6 -10    6.10    1.45
   1   6  10   10.11    2.46
   1   6  10    7.87    1.21
   2   6  10    1.06    1.39
   3   6  10    4.13    1.58
   4   6  10    2.99    1.71
   5   6  10    1.03    1.47
   6   6  10    1.35    1.59
   7   6  10    3.59    1.74
   8   6  10   -0.36    1.64
   9   6  10    0.07    1.91
  10   6  10   -1.68    2.05
  11   6  10   -0.32    2.48
 -18   7  10   -2.12    1.76
 -17   7  10   -0.25    1.68
 -16   7  10    1.72    1.54
 -15   7  10    0.23    1.41
 -14   7  10   -0.90    1.71
 -14   7  10   -1.69    1.39
 -13   7  10   -0.04    1.28
 -13   7  10    0.13    1.61
 -12   7  10    9.19    1.86
 -12   7  10    7.71    1.56
 -11   7  10    2.69    1.33
 -11   7  10    2.72    1.56
 -10   7  10    4.20    1.36
 -10   7  10    4.66    1.61
  -9   7  10    2.75    1.53
  -9   7  10    3.05    1.21
  -8   7  10   -0.79    1.46
  -8   7  10    1.55    1.05
  -7   7  10    0.22    1.13
  -7   7  10    2.44    1.52
  -6   7  10    1.76    1.55
  -6   7  10    1.71    1.07
  -5   7  10    0.96    1.05
  -4   7  10    2.42    1.41
  -4   7  10    2.18    1.08
  -3   7  10    5.58    1.48
  -3   7  10    2.24    1.08
  -2   7  10    1.18    1.30
  -2   7  10   -0.16    0.99
  -1   7  10   -0.13    1.66
  -1   7  10    0.42    1.03
   0   7  10    8.88    1.49
   0   7  10   10.14    2.14
   1   7  10    3.40    2.11
   2   7  10    5.95    2.37
   3   7  10    6.80    2.41
   4   7  10    0.41    1.92
   5   7  10    0.46    1.92
   6   7  10    3.41    1.73
   7   7  10    5.03    1.94
   8   7  10    1.13    1.80
   9   7  10    2.98    2.30
  10   7  10    2.88    2.62
 -18   8  10   -3.04    1.71
 -17   8  10   -2.50    1.55
 -16   8  10   -0.68    1.56
 -15   8  10    1.87    1.79
 -15   8  10   -0.07    1.51
 -14   8  10    1.17    1.48
 -14   8  10    2.63    1.65
 -13   8  10   -0.17    1.26
 -13   8  10    1.34    1.60
 -12   8  10   -0.58    1.59
 -12   8  10   -2.04    1.27
 -11   8  10    3.45    1.38
 -11   8  10    4.00    1.58
 -10   8  10    2.71    1.49
 -10   8  10    0.05    1.21
  -9   8  10   -0.06    1.18
  -9   8  10    1.50    1.45
  -8   8  10    0.39    1.21
  -8   8  10    3.54    1.60
  -7   8  10    3.69    1.57
  -7   8  10    4.17    1.33
  -6   8  10    1.75    1.58
  -5   8  10   -1.35    1.47
  -5   8  10   -0.87    1.06
  -4   8  10    1.05    1.17
  -4   8  10    1.21    1.33
  -3   8  10    9.75    1.92
  -3   8  10   13.40    1.53
  -2   8  10   -0.37    1.13
  -2   8  10   -0.48    1.43
  -1   8  10    2.01    1.08
  -1   8  10    2.24    1.51
   0   8  10    0.94    0.99
   0   8  10   -0.89    2.00
   1   8  10   -1.06    1.81
   2   8  10    4.09    2.23
   3   8  10    2.61    2.27
   4   8  10    6.48    2.61
   5   8  10    2.84    2.73
   6   8  10    4.15    3.01
   7   8  10    6.40    3.05
   8   8  10    3.99    3.36
   9   8  10    8.13    3.66
 -16   9  10   -0.70    1.58
 -15   9  10    2.90    1.92
 -15   9  10    0.96    1.48
 -14   9  10    3.46    1.59
 -14   9  10    4.23    2.01
 -13   9  10   -0.06    1.38
 -13   9  10    0.67    1.79
 -12   9  10   -0.12    1.31
 -12   9  10   -1.27    1.76
 -11   9  10    6.74    1.84
 -11   9  10    4.81    1.51
 -10   9  10   -0.62    1.27
 -10   9  10    0.01    1.57
  -9   9  10   -0.93    1.52
  -9   9  10    1.30    1.30
  -8   9  10    2.31    1.55
  -8   9  10    2.02    1.28
  -7   9  10    4.30    1.65
  -7   9  10    6.00    1.47
  -6   9  10   -0.66    1.16
  -6   9  10   -0.31    1.49
  -5   9  10    1.06    1.19
  -5   9  10   -1.03    1.49
  -4   9  10    5.24    1.88
  -4   9  10    6.84    1.35
  -3   9  10   -0.69    1.31
  -3   9  10    0.64    1.14
  -2   9  10   -0.92    1.63
  -2   9  10   -0.12    1.08
  -1   9  10    3.43    1.79
   0   9  10    0.78    1.57
   1   9  10    1.51    1.54
   2   9  10    4.79    2.29
   3   9  10   -0.92    2.13
   4   9  10    3.61    2.44
   5   9  10   -0.69    2.47
   6   9  10   -0.33    2.38
   7   9  10    1.07    2.71
   8   9  10    1.86    2.95
 -17  10  10   -3.49    1.73
 -16  10  10   -1.54    1.54
 -16  10  10    3.76    2.39
 -15  10  10   -0.27    1.52
 -15  10  10    4.59    2.14
 -14  10  10    0.44    2.10
 -14  10  10   -0.49    1.48
 -13  10  10    1.25    1.59
 -13  10  10    0.60    2.01
 -12  10  10    0.57    1.45
 -12  10  10   -0.60    1.89
 -11  10  10    5.70    1.94
 -11  10  10    2.82    1.50
 -10  10  10    6.92    1.95
 -10  10  10    4.40    1.63
  -9  10  10    1.82    1.76
  -9  10  10   -0.49    1.39
  -8  10  10   -0.85    1.29
  -8  10  10    2.68    1.71
  -7  10  10   -1.02    1.49
  -7  10  10   -2.13    1.28
  -6  10  10    3.31    1.69
  -6  10  10    0.83    1.35
  -5  10  10    0.59    1.32
  -5  10  10    0.24    1.48
  -4  10  10    3.20    1.34
  -4  10  10    0.34    1.52
  -3  10  10   -2.02    1.52
  -3  10  10    1.27    1.23
  -2  10  10    2.71    1.26
  -2  10  10    0.41    1.56
  -1  10  10   -1.60    1.65
   0  10  10    1.53    1.85
   1  10  10    1.65    1.82
   2  10  10    1.56    1.89
   3  10  10   -1.51    1.71
   4  10  10   -0.31    2.01
   5  10  10   -3.25    2.32
   7  10  10   -5.88    2.71
   8  10  10   -3.93    2.95
 -16  11  10    1.39    2.47
 -15  11  10   -1.95    1.68
 -15  11  10    4.03    2.38
 -14  11  10   -1.01    2.30
 -14  11  10   -1.07    1.61
 -13  11  10   -1.18    1.53
 -13  11  10   -1.94    2.16
 -12  11  10   -0.68    2.02
 -12  11  10   -0.35    1.57
 -11  11  10    2.41    1.61
 -11  11  10    1.65    2.09
 -10  11  10    1.19    1.90
 -10  11  10   -0.68    1.50
  -9  11  10   -1.30    1.45
  -9  11  10    0.44    1.72
  -8  11  10    0.86    1.49
  -8  11  10    2.12    1.65
  -7  11  10    1.07    1.69
  -7  11  10   -1.29    1.44
  -6  11  10    0.29    1.38
  -6  11  10   -0.55    1.62
  -5  11  10    1.16    1.59
  -5  11  10    0.54    1.54
  -4  11  10    4.14    1.51
  -4  11  10    3.17    1.72
  -3  11  10    1.44    1.42
  -3  11  10   -1.24    1.81
  -2  11  10    1.25    1.76
  -1  11  10   -0.53    1.53
   0  11  10    3.20    1.97
   1  11  10    2.59    2.15
   2  11  10    2.07    2.13
   3  11  10   -0.57    1.96
   4  11  10   -3.22    2.21
   5  11  10   -0.68    2.22
   6  11  10   -1.42    2.41
   7  11  10    0.91    2.53
 -16  12  10    3.07    2.68
 -16  12  10   -0.43    1.82
 -15  12  10   -0.31    1.90
 -15  12  10    3.46    2.77
 -14  12  10   -0.57    1.65
 -14  12  10   -2.26    2.42
 -13  12  10   -1.09    2.34
 -12  12  10   -3.74    1.68
 -12  12  10   -0.67    2.15
 -11  12  10   -2.92    1.55
 -11  12  10    1.21    2.05
 -10  12  10    2.03    2.15
 -10  12  10   -1.23    1.50
  -9  12  10    3.41    1.91
  -9  12  10   -1.13    1.64
  -8  12  10    0.57    1.93
  -7  12  10    0.15    1.79
  -7  12  10   -3.13    1.46
  -6  12  10   -1.74    1.43
  -6  12  10   -0.64    1.84
  -5  12  10   -0.74    1.69
  -4  12  10    0.13    1.75
  -4  12  10    0.58    1.59
  -3  12  10    1.14    1.64
  -3  12  10    0.84    1.45
  -2  12  10   -1.16    1.91
  -1  12  10   -2.86    1.81
   0  12  10   -0.19    1.79
   1  12  10   -1.55    1.82
   2  12  10   -2.49    2.16
   3  12  10    2.67    2.58
   4  12  10   -2.55    2.63
 -15  13  10    0.65    2.69
 -14  13  10    0.63    2.61
 -14  13  10    2.01    1.95
 -13  13  10   -0.29    1.84
 -13  13  10    0.46    2.43
 -12  13  10   -0.12    2.38
 -12  13  10    1.17    1.73
 -11  13  10   -0.54    1.70
 -11  13  10    2.33    2.28
 -10  13  10    3.12    2.26
 -10  13  10    0.96    1.89
  -9  13  10    0.08    1.79
  -9  13  10    2.03    2.07
  -8  13  10    0.81    1.96
  -8  13  10    3.20    1.77
  -7  13  10    0.76    1.62
  -7  13  10    4.65    1.96
  -6  13  10    0.48    1.56
  -6  13  10    2.04    1.93
  -5  13  10    1.00    1.86
  -4  13  10   -0.16    1.72
  -4  13  10   -1.17    1.63
  -3  13  10    2.00    1.94
  -2  13  10    1.01    1.79
  -1  13  10    0.35    2.14
   0  13  10   -0.16    2.10
   1  13  10   -0.58    2.10
   2  13  10    0.10    1.97
   4  13  10   -3.38    2.29
 -14  14  10   -1.44    2.28
 -14  14  10    2.24    3.00
 -13  14  10   -1.78    2.58
 -13  14  10   -2.06    2.02
 -12  14  10    0.38    2.54
 -12  14  10    0.37    2.13
 -11  14  10   -0.90    2.02
 -11  14  10    0.60    2.37
 -10  14  10    2.16    2.32
 -10  14  10   -0.33    1.93
  -9  14  10   -0.27    1.87
  -9  14  10    1.92    1.97
  -8  14  10    0.02    2.04
  -8  14  10    0.32    1.78
  -7  14  10    3.63    1.98
  -7  14  10    0.40    1.75
  -6  14  10    1.84    1.99
  -6  14  10    0.90    1.71
  -5  14  10   -0.73    1.79
  -4  14  10    2.47    1.88
  -3  14  10    0.19    1.77
  -2  14  10    2.45    1.97
  -1  14  10    1.10    1.90
   0  14  10   -1.16    1.92
   2  14  10   -4.30    2.58
 -12  15  10    0.16    2.30
 -12  15  10    2.53    2.90
 -11  15  10   -0.67    2.55
 -11  15  10    1.00    2.18
 -10  15  10    1.17    2.30
 -10  15  10    4.61    2.55
  -9  15  10    2.04    2.40
  -9  15  10   -0.08    2.18
  -8  15  10   -0.15    2.07
  -8  15  10    1.92    2.13
  -7  15  10   -1.84    1.94
  -7  15  10    1.19    2.07
  -6  15  10    3.83    1.98
  -6  15  10    0.73    1.86
  -5  15  10    3.77    2.13
  -4  15  10    0.35    2.04
  -3  15  10    5.34    2.19
  -2  15  10    0.93    2.22
   0  15  10    3.39    2.41
 -10  16  10    0.63    2.42
  -9  16  10    3.49    2.43
  -8  16  10   -0.87    2.13
  -4  16  10    2.89    2.20
  -3  16  10   -0.52    2.22
   0 -18  11    4.45    2.65
  -1  18 -11    5.22    2.32
  -1  18 -11    1.41    2.03
   1 -18  11   -0.51    2.48
  -2  18 -11   -0.42    2.15
   2 -18  11    1.40    2.38
  -3  18 -11   -0.27    2.29
   3 -18  11   -0.81    2.41
   4 -18  11   -0.94    2.48
   5 -18  11   -3.24    2.38
   3  17 -11    3.91    2.60
   3  17 -11   -0.60    1.77
  -3 -17  11    2.58    2.57
   2  17 -11   -0.14    1.67
   2  17 -11   -0.74    2.26
  -2 -17  11    0.18    2.37
   1  17 -11   -2.54    1.57
   1  17 -11    1.83    2.23
  -1 -17  11   -0.79    2.42
   0  17 -11    1.74    1.78
   0  17 -11    3.08    2.12
   0 -17  11    4.76    2.49
  -1  17 -11   -0.22    1.72
  -1  17 -11    3.44    2.13
   1 -17  11    2.10    2.28
  -2  17 -11   -0.73    2.00
   2 -17  11    0.96    2.18
  -3  17 -11    1.52    1.91
   3 -17  11   -1.94    2.13
  -4  17 -11   -0.37    1.97
   4 -17  11   -2.08    2.07
  -5  17 -11    2.10    2.01
   5 -17  11   -0.53    2.10
  -6  17 -11    2.63    2.18
   6 -17  11   -1.42    2.25
   7 -17  11   -0.24    2.03
   5  16 -11   -2.85    1.69
   5  16 -11   -0.03    2.40
   4  16 -11    1.69    2.27
   4  16 -11   -1.05    1.52
  -4 -16  11    0.64    2.25
   3  16 -11   -0.37    1.62
   3  16 -11    0.49    2.11
  -3 -16  11   -0.50    2.21
   2  16 -11    1.59    2.17
   2  16 -11    0.67    1.47
  -2 -16  11    2.00    2.20
   1  16 -11    3.56    2.05
  -1 -16  11    3.37    2.25
   0  16 -11    0.61    1.60
   0  16 -11    3.61    1.89
   0 -16  11    1.13    2.03
  -1  16 -11    0.55    1.74
  -1  16 -11    0.23    1.57
   1 -16  11    0.26    2.02
  -2  16 -11   -1.49    1.72
   2 -16  11    0.44    1.93
  -3  16 -11    4.22    1.93
   3 -16  11   -2.34    1.85
  -4  16 -11    0.42    1.84
   4 -16  11   -0.52    1.93
  -5  16 -11    0.53    1.78
   5 -16  11    0.38    2.09
   6 -16  11   -2.69    1.90
   7 -16  11   -1.62    1.91
   8 -16  11   -1.84    1.97
  10 -16  11   -0.88    2.22
   7  15 -11   -2.34    1.57
   6  15 -11    1.00    2.21
   6  15 -11   -2.20    1.64
   5  15 -11   -0.74    1.57
   5  15 -11   -0.90    2.05
  -5 -15  11    0.14    2.06
   4  15 -11   -2.24    1.36
   4  15 -11   -1.52    2.00
  -4 -15  11   -0.09    2.02
   3  15 -11    2.42    2.03
   3  15 -11   -0.99    1.44
  -3 -15  11    0.37    1.98
   2  15 -11   -0.17    1.32
   2  15 -11    1.11    1.88
  -2 -15  11    1.40    1.88
   1  15 -11    2.24    1.69
  -1 -15  11    3.86    1.95
   0  15 -11    2.27    1.64
   0  15 -11   -0.57    1.36
   0 -15  11   -1.12    1.79
  -1  15 -11    1.04    1.46
  -1  15 -11    1.07    1.80
   1 -15  11   -1.52    1.70
  -2  15 -11    0.26    1.54
   2 -15  11   -0.10    1.71
  -3  15 -11    2.13    1.55
   3 -15  11   -0.77    1.71
  -4  15 -11    2.52    1.62
   4 -15  11    0.78    1.74
  -5  15 -11    0.90    1.69
   5 -15  11   -2.81    1.76
   6 -15  11   -1.08    1.69
   7 -15  11   -2.34    1.67
   8 -15  11   -1.55    1.94
   9 -15  11   -0.28    2.03
  11 -15  11   -1.18    2.23
   8  14 -11   -2.01    1.51
   7  14 -11    1.85    2.18
   7  14 -11   -1.81    1.42
  -7 -14  11    1.44    2.13
   6  14 -11   -0.14    1.92
   6  14 -11   -0.58    1.54
  -6 -14  11   -1.22    1.96
   5  14 -11    0.59    1.85
   5  14 -11   -0.31    1.33
  -5 -14  11   -0.43    1.87
   4  14 -11   -0.36    1.75
   4  14 -11   -2.48    1.25
  -4 -14  11    1.74    1.92
   3  14 -11    0.44    1.71
   3  14 -11   -0.17    1.24
  -3 -14  11    0.69    1.78
   2  14 -11    0.06    1.20
   2  14 -11    0.89    1.61
  -2 -14  11   -0.11    1.71
   1  14 -11    1.97    1.60
  -1 -14  11    2.39    1.82
   0  14 -11    1.65    1.24
   0  14 -11    1.47    1.48
   0 -14  11    1.90    1.74
  -1  14 -11    1.60    1.59
  -1  14 -11    1.56    1.29
   1 -14  11    2.47    1.73
  -2  14 -11    1.76    1.57
   2 -14  11    0.82    1.68
  -3  14 -11    0.71    1.59
   3 -14  11   -1.27    1.58
  -4  14 -11    0.07    1.71
   4 -14  11    0.63    1.79
   5 -14  11    0.78    1.62
   6 -14  11   -2.13    1.52
   7 -14  11    0.90    1.78
   8 -14  11    0.91    1.70
   9 -14  11    0.19    1.78
  10 -14  11    1.03    2.01
  12 -14  11    4.56    2.23
  10  13 -11    0.98    1.50
   9  13 -11    0.32    1.39
   8  13 -11    0.09    1.33
  -8 -13  11    1.93    2.04
   7  13 -11   -1.93    1.22
   7  13 -11    0.22    1.81
  -7 -13  11    2.19    1.83
   6  13 -11    3.81    1.79
  -6 -13  11    5.48    1.90
   5  13 -11    1.13    1.40
   5  13 -11    3.20    1.75
  -5 -13  11    2.42    1.72
   4  13 -11   -1.96    1.09
   4  13 -11    0.73    1.58
  -4 -13  11    1.09    1.69
   3  13 -11    0.75    1.54
   3  13 -11    0.24    1.07
  -3 -13  11   -0.63    1.55
   2  13 -11    0.98    1.37
   2  13 -11    0.29    1.15
  -2 -13  11   -0.06    1.61
   1  13 -11   -1.15    1.09
   1  13 -11    3.24    1.48
  -1 -13  11   -0.68    1.49
   0  13 -11    1.76    1.12
   0  13 -11    1.58    1.41
   0 -13  11    3.68    1.71
  -1  13 -11    1.69    1.34
  -1  13 -11    1.06    1.21
   1 -13  11    0.99    1.53
  -2  13 -11    1.94    1.37
   2 -13  11   -0.03    1.49
  -3  13 -11    3.64    1.60
   3 -13  11    1.47    1.61
   4 -13  11    0.49    1.52
   5 -13  11    0.71    1.61
   6 -13  11   -3.20    1.44
   7 -13  11    1.48    1.65
   8 -13  11   -2.32    1.52
   9 -13  11    0.51    1.59
  10 -13  11    2.68    1.91
  11 -13  11    1.33    2.01
  12 -13  11    1.81    2.23
  11  12 -11   -0.12    1.36
  10  12 -11    0.38    1.40
 -10 -12  11    0.96    2.18
   9  12 -11   -0.66    1.09
  -9 -12  11    2.92    2.00
   8  12 -11    0.91    2.07
   8  12 -11    0.44    1.19
  -8 -12  11    1.92    1.84
   7  12 -11   -1.75    1.18
  -7 -12  11    0.88    1.74
   6  12 -11   -1.67    1.20
  -6 -12  11    1.53    1.66
   5  12 -11    2.92    1.59
   5  12 -11    1.43    1.34
  -5 -12  11    1.40    1.67
   4  12 -11    4.42    1.56
  -4 -12  11    4.07    1.67
   3  12 -11    2.02    1.29
   3  12 -11   -0.09    1.04
  -3 -12  11    0.46    1.47
   2  12 -11    1.84    1.31
   2  12 -11    0.48    1.06
  -2 -12  11    2.16    1.55
   1  12 -11    1.17    1.31
   1  12 -11   -0.72    0.94
  -1 -12  11    0.71    1.45
   0  12 -11    1.09    1.00
   0  12 -11    0.64    1.32
   0 -12  11    1.13    1.48
  -1  12 -11    6.68    1.58
  -1  12 -11    5.06    1.27
   1 -12  11    6.91    1.63
  -2  12 -11    7.68    1.66
   2 -12  11    7.42    1.71
  -3  12 -11    2.37    1.39
   3 -12  11    2.58    1.62
   4 -12  11   -1.19    1.26
   5 -12  11   -0.66    1.49
   6 -12  11   -0.40    1.45
   7 -12  11    0.79    1.65
   8 -12  11    1.51    1.60
   9 -12  11    0.86    1.56
  10 -12  11    1.53    1.74
  11 -12  11    2.10    1.91
  12 -12  11    0.19    1.99
  13 -12  11   -1.75    2.08
  12  11 -11   -0.12    1.42
  11  11 -11    0.99    1.26
 -11 -11  11    3.07    2.22
  10  11 -11    0.27    1.22
 -10 -11  11    3.63    1.94
   9  11 -11    1.88    1.24
  -9 -11  11    2.15    1.79
   8  11 -11   -0.07    1.78
   8  11 -11    0.98    1.14
  -8 -11  11   -0.65    1.67
   7  11 -11   -2.01    1.13
   7  11 -11   -0.20    1.68
  -7 -11  11   -1.46    1.54
   6  11 -11    5.78    1.67
  -6 -11  11    7.20    1.67
   5  11 -11   -0.16    1.51
   5  11 -11   -0.75    1.01
  -5 -11  11   -1.36    1.44
   4  11 -11    2.12    1.46
   4  11 -11   -0.51    1.00
  -4 -11  11    0.67    1.44
   3  11 -11   -0.01    0.95
  -3 -11  11   -0.16    1.34
   2  11 -11    2.99    1.30
   2  11 -11    0.85    0.94
  -2 -11  11    3.65    1.48
   1  11 -11    3.44    1.28
  -1 -11  11    2.38    1.46
   0  11 -11    0.95    0.93
   0  11 -11    0.77    1.16
   0 -11  11   -0.44    1.35
  -1  11 -11    1.79    1.18
   1 -11  11    0.60    1.33
   2 -11  11   -0.33    1.31
   3 -11  11   -0.88    1.28
   4 -11  11    0.75    1.38
   5 -11  11   -2.13    1.23
   6 -11  11    0.89    1.35
   7 -11  11    2.17    1.55
   8 -11  11    3.84    1.66
   9 -11  11    1.71    1.56
  10 -11  11    0.56    1.64
  11 -11  11    1.80    1.88
  12 -11  11   -0.50    1.88
  13  10 -11   -0.67    1.34
  12  10 -11    1.12    1.47
 -12 -10  11    2.75    2.20
  11  10 -11    0.80    1.18
 -11 -10  11    0.06    2.01
  10  10 -11    1.66    1.11
 -10 -10  11    1.50    1.89
   9  10 -11    0.39    1.08
  -9 -10  11   -0.05    1.57
   8  10 -11    0.48    1.01
  -8 -10  11    1.05    1.56
   7  10 -11   -0.40    1.36
   7  10 -11   -0.78    1.00
   6  10 -11   14.52    1.70
  -6 -10  11   11.94    1.77
   5  10 -11    2.20    1.28
   5  10 -11    1.41    0.98
  -5 -10  11    0.46    1.32
   4  10 -11    8.62    1.47
   4  10 -11    5.34    1.14
  -4 -10  11    8.50    1.58
   3  10 -11    0.09    0.93
   3  10 -11   -0.70    1.22
  -3 -10  11    0.30    1.23
   2  10 -11   -0.04    1.13
   2  10 -11    0.64    0.86
  -2 -10  11    2.57    1.33
   1  10 -11    2.28    1.07
  -1 -10  11    2.97    1.44
   0  10 -11    0.11    1.08
   0  10 -11    0.08    0.94
   0 -10  11    0.76    1.35
   1 -10  11    3.22    1.45
   2 -10  11   -0.59    1.29
   3 -10  11    1.03    1.34
   4 -10  11    4.27    1.48
   5 -10  11   -2.12    1.17
   6 -10  11    3.43    1.46
   7 -10  11    1.21    1.38
   8 -10  11    0.27    1.47
   9 -10  11    2.92    1.59
  10 -10  11    2.17    1.67
  11 -10  11    0.15    1.70
  12 -10  11    0.03    1.89
  13 -10  11    1.63    1.95
  14 -10  11    0.24    2.29
 -14  -9  11    3.81    2.57
 -13  -9  11    4.32    2.33
 -12  -9  11    4.08    1.99
 -11  -9  11    3.21    1.88
  10   9 -11    0.79    1.07
 -10  -9  11    2.50    1.74
   9   9 -11    2.18    1.05
  -9  -9  11    3.54    1.67
   8   9 -11    1.09    1.04
  -8  -9  11    0.23    1.48
   7   9 -11   -0.65    0.88
  -7  -9  11   -1.14    1.34
   6   9 -11    0.86    0.97
   6   9 -11    3.68    1.21
  -6  -9  11    2.52    1.46
   5   9 -11   -1.14    0.97
   5   9 -11   -0.30    1.05
  -5  -9  11   -1.58    1.22
   4   9 -11    3.59    1.00
   4   9 -11    6.05    1.25
  -4  -9  11    4.41    1.45
   3   9 -11    5.88    1.24
   3   9 -11    3.37    0.93
  -3  -9  11    4.52    1.39
   2   9 -11    0.80    1.06
   2   9 -11   -0.34    0.81
  -2  -9  11    2.50    1.32
   1   9 -11    2.76    1.17
   1   9 -11    2.92    0.91
  -1  -9  11    3.33    1.41
   0   9 -11    0.43    0.90
   0  -9  11   -0.61    1.27
   1  -9  11    4.05    1.45
   2  -9  11   -0.20    1.25
   3  -9  11    4.76    1.42
   4  -9  11    6.09    1.52
   5  -9  11   11.56    1.74
   6  -9  11    8.32    1.69
   7  -9  11    1.94    1.37
   8  -9  11    1.33    1.41
   9  -9  11    3.41    1.58
  10  -9  11    0.48    1.64
  11  -9  11   -1.21    1.55
  12  -9  11   -0.92    1.67
  13  -9  11    2.05    2.05
 -14  -8  11    3.13    2.40
  13   8 -11    1.28    1.21
 -13  -8  11    6.99    2.18
  12   8 -11   -0.51    1.17
 -12  -8  11    2.67    1.84
  11   8 -11   -0.13    1.10
 -11  -8  11    2.79    1.71
  10   8 -11    0.76    0.94
 -10  -8  11   -0.24    1.50
   9   8 -11    0.10    0.88
  -9  -8  11    0.37    1.49
   8   8 -11    0.79    0.96
  -8  -8  11    2.89    1.53
   7   8 -11   -0.79    0.86
  -7  -8  11   -2.02    1.28
   6   8 -11    0.94    0.98
  -6  -8  11    1.35    1.30
   5   8 -11   -0.18    0.89
   5   8 -11    0.67    0.95
  -5  -8  11   -0.96    1.19
   4   8 -11    1.57    1.00
   4   8 -11    1.24    0.86
  -4  -8  11    1.21    1.23
   3   8 -11    1.77    0.82
  -3  -8  11    1.67    1.21
   2   8 -11    1.29    0.94
  -2  -8  11    3.81    1.29
   1   8 -11   17.37    2.07
  -1  -8  11   17.07    2.05
   0  -8  11    6.15    1.54
   1  -8  11    0.35    1.24
   2  -8  11    1.77    1.27
   3  -8  11    4.04    1.37
   4  -8  11    0.56    1.23
   5  -8  11    4.27    1.41
   6  -8  11    0.28    1.32
   7  -8  11    0.83    1.31
   8  -8  11   -0.26    1.26
   9  -8  11    5.33    1.60
  10  -8  11   -0.48    1.52
  11  -8  11    0.72    1.67
  12  -8  11    0.22    1.71
  13  -8  11    0.58    1.94
  14  -8  11   -0.48    2.15
  15   7 -11    0.22    1.41
 -15  -7  11    0.20    2.39
  14   7 -11    3.02    1.58
 -14  -7  11    1.57    2.25
  13   7 -11    0.08    1.18
 -13  -7  11    3.40    1.99
  12   7 -11    0.54    1.04
 -12  -7  11    2.32    1.73
  11   7 -11    0.91    1.11
 -11  -7  11    3.16    1.72
  10   7 -11    1.01    0.90
 -10  -7  11    0.96    1.49
   9   7 -11    2.37    1.11
  -9  -7  11    5.04    1.50
  -8  -7  11    4.95    1.47
   7   7 -11    1.74    0.95
  -7  -7  11    0.45    1.26
   6   7 -11   -0.44    0.79
  -6  -7  11    0.14    1.19
  -5  -7  11    6.16    1.51
   4   7 -11    5.89    1.05
  -4  -7  11    8.43    1.46
   3   7 -11   -0.45    0.73
  -3  -7  11    0.48    1.13
   2   7 -11    0.24    0.73
  -2  -7  11    0.95    1.16
  -1  -7  11    2.95    1.24
   0  -7  11    2.70    1.23
   1  -7  11    5.77    1.36
   2  -7  11    6.69    1.42
   3  -7  11    0.29    1.13
   4  -7  11   11.11    1.85
   5  -7  11    7.76    1.55
   6  -7  11    6.90    1.55
   7  -7  11    2.71    1.36
   8  -7  11    3.09    1.40
   9  -7  11    5.05    1.71
  10  -7  11    2.07    1.61
  11  -7  11    0.57    1.63
  12  -7  11    0.95    1.81
  13  -7  11    0.42    1.95
  14  -7  11    1.25    2.24
  15   6 -11    2.37    1.46
 -15  -6  11    6.28    2.37
  14   6 -11    1.23    1.28
 -14  -6  11    2.02    2.10
  13   6 -11    0.95    1.12
 -13  -6  11    2.91    1.87
  12   6 -11    1.34    1.18
 -12  -6  11    3.79    1.64
 -11  -6  11    4.36    1.66
  10   6 -11    1.05    0.91
 -10  -6  11   -0.14    1.32
  -9  -6  11    7.67    1.61
   8   6 -11   -0.21    0.90
  -8  -6  11    0.93    1.28
   7   6 -11    3.27    0.96
  -7  -6  11    3.05    1.37
   6   6 -11    0.72    0.82
  -6  -6  11    0.60    1.12
   5   6 -11   19.57    2.05
  -5  -6  11   16.91    1.97
   4   6 -11    1.86    0.89
  -4  -6  11    0.90    1.05
   3   6 -11    0.09    0.74
   2   6 -11    6.34    1.00
   1  -6  11    6.36    1.41
   2  -6  11    5.00    1.22
   3  -6  11    2.08    1.17
   4  -6  11    3.28    1.32
   5  -6  11    5.20    1.37
   6  -6  11    4.94    1.43
   7  -6  11    3.74    1.37
   8  -6  11    2.42    1.32
   9  -6  11    1.41    1.38
  10  -6  11    0.95    1.49
  11  -6  11    4.30    1.79
  12  -6  11    1.25    1.75
  13  -6  11   -0.41    1.90
  14  -6  11   -1.94    2.10
  16   5 -11   -0.22    1.37
 -16  -5  11    1.56    2.31
  15   5 -11   -1.63    1.20
 -15  -5  11    2.51    2.04
  14   5 -11    0.80    1.14
 -14  -5  11    2.78    1.91
  13   5 -11    1.05    1.11
 -13  -5  11    1.91    1.76
  12   5 -11    3.51    1.16
 -12  -5  11    2.99    1.55
  11   5 -11    0.33    0.91
 -11  -5  11    1.79    1.49
  10   5 -11   -0.19    0.89
 -10  -5  11    2.24    1.37
   9   5 -11    0.23    0.88
  -9  -5  11    2.17    1.29
   8   5 -11    0.61    0.87
  -8  -5  11    0.08    1.14
   7   5 -11   -0.55    0.84
  -7  -5  11   -0.40    1.15
   6   5 -11    1.67    0.79
  -6  -5  11    2.85    1.27
   5   5 -11    2.32    0.75
  -4  -5  11    7.38    1.09
  -4  -5  11    5.32    0.95
   3   5 -11    8.71    1.43
  -3  -5  11    7.25    1.15
  -3  -5  11    8.81    1.11
   2   5 -11    3.20    0.73
  -2  -5  11    3.26    0.96
  -1  -5  11   -0.23    0.78
   0  -5  11   17.03    1.62
   1  -5  11    6.70    1.23
   3  -5  11   -0.02    1.04
   4  -5  11    1.72    1.10
   5  -5  11    2.50    1.26
   6  -5  11    1.09    1.31
   7  -5  11    0.61    1.30
   8  -5  11    1.53    1.29
   9  -5  11   -0.17    1.30
  10  -5  11    3.48    1.48
  11  -5  11    2.76    1.67
  12  -5  11    0.97    1.68
  13  -5  11    2.67    1.91
  14  -5  11    3.07    2.12
  16   4 -11    0.14    1.38
 -16  -4  11    0.84    2.30
  15   4 -11    0.36    1.31
 -15  -4  11    0.30    1.98
  14   4 -11    0.75    1.09
 -14  -4  11    1.10    1.76
  13   4 -11    1.21    1.18
 -13  -4  11    2.97    1.58
  12   4 -11    0.11    0.95
 -12  -4  11    1.78    1.41
  11   4 -11   -0.77    0.93
 -11  -4  11    0.86    1.29
  10   4 -11    0.51    0.87
 -10  -4  11    1.80    1.27
   9   4 -11    0.65    0.92
  -9  -4  11    1.21    1.16
   8   4 -11    1.06    0.87
  -8  -4  11   -0.70    1.07
   7   4 -11   -0.16    0.72
  -7  -4  11    0.90    1.12
   6   4 -11    4.08    0.86
   5   4 -11    3.29    0.95
  -5  -4  11    4.57    0.87
   4   4 -11   -0.04    0.59
  -4  -4  11    0.48    0.76
  -4  -4  11    0.22    0.72
   3   4 -11    5.30    0.87
  -3  -4  11    7.73    1.17
  -3  -4  11    7.39    1.04
  -2  -4  11    8.01    1.12
  -1  -4  11   33.19    1.97
   0  -4  11    7.88    1.33
   1  -4  11   -0.64    0.81
   2  -4  11    1.76    0.90
   4  -4  11   11.61    1.67
   5  -4  11    0.37    1.19
   6  -4  11    3.44    1.40
   7  -4  11   -0.12    1.26
   8  -4  11    4.32    1.43
   9  -4  11    1.27    1.44
  10  -4  11    0.59    1.39
  11  -4  11    3.72    1.67
  12  -4  11    4.89    1.80
  13  -4  11    2.84    1.93
  14  -4  11    4.84    2.18
  17   3 -11   -1.02    1.44
 -17  -3  11    3.90    2.38
  16   3 -11   -0.87    1.24
 -16  -3  11    1.94    2.16
 -15  -3  11    3.74    2.03
  14   3 -11    0.13    1.09
 -14  -3  11    0.77    1.72
  13   3 -11   -0.01    1.07
 -13  -3  11    0.86    1.60
  12   3 -11   -1.34    0.88
 -12  -3  11   -1.05    1.27
  11   3 -11    0.55    0.89
 -11  -3  11    2.25    1.37
  10   3 -11   -0.45    0.82
 -10  -3  11    0.90    1.10
   9   3 -11    0.17    0.84
  -9  -3  11    1.18    1.13
   8   3 -11    0.48    0.82
  -8  -3  11   -0.50    1.07
   7   3 -11    2.33    0.85
  -7  -3  11    2.47    1.18
   5   3 -11    5.42    0.81
  -5  -3  11    7.96    1.21
   4   3 -11   13.41    1.53
  -4  -3  11   11.12    1.22
  -4  -3  11   11.89    1.26
  -3  -3  11    1.42    0.81
  -3  -3  11   -0.11    0.71
  -2  -3  11    0.94    0.76
  -1  -3  11    6.11    1.00
   0  -3  11    0.07    0.76
   1  -3  11    1.25    0.72
   2  -3  11   -0.66    0.61
   3  -3  11    3.77    0.89
   5  -3  11    5.26    1.38
   6  -3  11    4.60    1.41
   7  -3  11    2.70    1.33
   8  -3  11    2.12    1.22
   9  -3  11    1.02    1.38
  10  -3  11   -0.44    1.49
  11  -3  11    2.51    1.63
  12  -3  11    2.47    1.76
  13  -3  11    0.82    1.83
  14  -3  11    0.95    2.07
  14  -3  11    8.19    2.61
  17   2 -11   -2.21    1.36
 -17  -2  11    2.78    2.30
  16   2 -11   -1.01    1.32
 -16  -2  11    1.05    2.07
  15   2 -11    0.81    1.19
 -15  -2  11    3.12    1.88
  14   2 -11   -0.08    1.11
 -14  -2  11    1.84    1.76
  13   2 -11   -0.62    0.98
 -13  -2  11    0.96    1.37
  12   2 -11   -0.62    0.93
 -12  -2  11   -0.40    1.23
  11   2 -11    1.20    0.97
 -11  -2  11    2.14    1.23
  10   2 -11   -0.08    0.87
 -10  -2  11    0.34    1.11
   9   2 -11    1.91    0.83
  -9  -2  11    2.74    1.21
   8   2 -11    2.23    0.92
  -8  -2  11    3.01    1.18
   7   2 -11    1.86    0.79
  -7  -2  11    2.30    1.09
   6   2 -11    1.96    0.60
   5   2 -11   14.34    1.46
  -5  -2  11   13.39    1.41
  -4  -2  11    2.63    0.74
  -4  -2  11    1.31    0.74
  -3  -2  11   11.81    1.29
  -2  -2  11    5.83    0.91
  -1  -2  11    1.42    0.72
   0  -2  11   -0.27    0.58
   1  -2  11    4.64    0.86
   2  -2  11    7.96    1.16
   3  -2  11   -0.63    0.78
   4  -2  11    0.74    0.94
   6  -2  11    2.47    1.22
   7  -2  11    0.75    1.21
   8  -2  11    5.20    1.47
   9  -2  11    1.31    1.32
  10  -2  11    0.15    1.43
  11  -2  11    2.97    1.74
  12  -2  11    4.21    2.05
  12  -2  11    2.16    1.84
  13  -2  11    1.36    1.99
  13  -2  11    1.99    1.94
  14  -2  11    1.01    2.30
  17   1 -11   -2.07    1.31
 -17  -1  11    1.27    2.11
  16   1 -11   -1.29    1.17
 -16  -1  11   -0.15    1.94
  15   1 -11   -0.37    1.23
 -15  -1  11    0.98    1.75
  14   1 -11    0.28    1.13
 -14  -1  11   -0.04    1.55
  13   1 -11   -0.10    0.92
 -13  -1  11    1.01    1.44
  12   1 -11    4.47    1.19
 -12  -1  11    6.32    1.48
  11   1 -11   -0.15    0.94
 -11  -1  11    0.47    1.11
  10   1 -11    6.33    1.15
 -10  -1  11    5.60    1.27
   9   1 -11    4.57    1.02
  -9  -1  11    7.17    1.32
   8   1 -11    1.33    0.79
  -8  -1  11    1.31    1.00
   7   1 -11    1.51    0.62
  -7  -1  11    0.46    0.95
   6   1 -11   -0.34    0.53
  -6  -1  11   -0.77    0.78
  -5  -1  11    3.75    0.91
  -4  -1  11    0.38    0.65
  -4  -1  11   -0.57    0.68
  -3  -1  11    9.93    1.19
  -3  -1  11    9.14    1.08
  -2  -1  11    5.37    0.87
  -2  -1  11    5.20    0.93
  -1  -1  11    1.98    0.85
  -1  -1  11    3.72    0.70
   0  -1  11    1.35    0.61
   1  -1  11    2.43    0.76
   2  -1  11    1.00    0.81
   3  -1  11   -0.02    0.94
   4  -1  11    5.08    1.21
   5  -1  11    1.22    1.20
   7  -1  11   -0.54    1.09
   8  -1  11   -0.47    1.22
   9  -1  11    2.69    1.43
   9  -1  11   -1.46    1.24
  10  -1  11    4.21    1.71
  10  -1  11    2.70    1.52
  11  -1  11    1.56    1.67
  11  -1  11    1.70    1.73
  12  -1  11    1.04    1.77
  12  -1  11   -0.21    1.90
  13  -1  11    0.98    2.01
  13  -1  11    0.72    2.04
  14  -1  11    1.20    2.30
  18   0 -11   -1.66    1.47
 -18   0  11   -2.05    2.18
  17   0 -11   -1.46    1.29
 -17   0  11    1.29    2.14
  16   0 -11    0.19    1.21
 -16   0  11    3.69    2.01
  15   0 -11   -0.76    1.05
 -15   0  11   -1.69    1.62
  14   0 -11    1.12    1.12
 -14   0  11    3.44    1.59
  13   0 -11   -0.55    0.94
 -13   0  11    1.95    1.39
  12   0 -11   -0.43    0.86
 -12   0  11    2.69    1.30
  11   0 -11    0.33    0.86
 -11   0  11    0.67    1.05
  10   0 -11    4.36    1.02
 -10   0  11    7.05    1.37
   9   0 -11    2.12    0.84
  -9   0  11    4.41    1.13
   8   0 -11    5.44    1.00
  -8   0  11    6.47    1.24
   7   0 -11    4.01    0.73
  -7   0  11    6.10    1.23
  -6   0  11    4.36    1.02
  -5   0  11    1.07    0.73
  -5   0  11    2.21    0.79
  -4   0  11    1.98    0.76
  -4   0  11    0.29    0.68
  -3   0  11    3.07    0.82
  -3   0  11    3.28    0.63
  -2   0  11    5.62    0.95
  -2   0  11    4.47    0.81
  -1   0  11    4.58    0.72
  -1   0  11    5.31    0.95
   0   0  11    4.56    0.93
   0   0  11    4.62    0.84
   1   0  11    4.38    0.93
   1   0  11    3.58    0.83
   2   0  11    3.87    0.93
   2   0  11    4.21    1.04
   3   0  11    1.18    1.01
   3   0  11    0.71    1.19
   4   0  11    5.81    1.27
   4   0  11    5.04    1.35
   5   0  11    6.06    1.31
   5   0  11    6.59    1.47
   6   0  11    0.34    1.21
   6   0  11    2.18    1.32
   7   0  11    1.76    1.32
   8   0  11    0.50    1.34
   8   0  11   -0.13    1.23
   9   0  11    2.02    1.35
   9   0  11    0.95    1.59
  10   0  11    1.30    1.49
  10   0  11    1.57    1.56
  11   0  11   -1.68    1.58
  11   0  11    0.96    1.64
  12   0  11    3.35    1.71
  12   0  11   -1.62    1.73
  13   0  11   -0.29    1.90
  13   0  11   -3.17    1.94
  18  -1 -11   -2.59    1.41
 -18   1  11   -2.20    2.04
  17  -1 -11   -0.46    1.34
 -17   1  11    0.36    1.90
  16  -1 -11   -0.72    1.12
 -16   1  11    1.83    1.89
  15  -1 -11   -1.00    1.04
 -15   1  11    1.96    1.69
  14  -1 -11    1.52    1.04
 -14   1  11    2.95    1.38
  13  -1 -11    1.35    0.98
 -13   1  11    3.47    1.47
  12  -1 -11    0.38    0.85
 -12   1  11    0.77    1.17
  11  -1 -11    0.89    0.84
 -11   1  11    1.27    1.12
  10  -1 -11   -0.97    0.79
 -10   1  11   -1.09    0.99
  -9   1  11   -0.78    0.96
   8  -1 -11   11.56    1.84
  -8   1  11    9.36    1.35
  -7   1  11    2.37    1.01
  -6   1  11    1.54    0.79
  -6   1  11    0.48    0.75
  -5   1  11    3.32    0.90
  -5   1  11    5.53    0.91
  -4   1  11    1.98    0.69
  -4   1  11   -0.57    0.79
  -3   1  11    1.21    0.78
  -3   1  11    0.18    0.53
  -2   1  11    9.49    1.20
  -2   1  11    8.64    0.99
  -1   1  11   -0.35    0.76
  -1   1  11    0.54    0.63
   0   1  11    3.88    0.85
   0   1  11    4.07    0.86
   1   1  11   17.19    1.35
   1   1  11   17.04    1.50
   2   1  11   14.10    1.60
   3   1  11    6.82    1.25
   3   1  11    6.00    1.32
   4   1  11   -0.44    1.03
   4   1  11    1.26    1.20
   5   1  11    0.86    1.27
   5   1  11   -0.62    1.11
   6   1  11    6.56    1.45
   6   1  11    6.39    1.56
   7   1  11    1.48    1.31
   7   1  11    1.97    1.26
   8   1  11    5.99    1.60
   9   1  11    4.61    1.56
   9   1  11    4.26    1.45
  10   1  11   -1.17    1.47
  10   1  11    0.51    1.53
  11   1  11    1.14    1.74
  11   1  11   -0.94    1.64
  12   1  11    3.37    1.96
  12   1  11    1.45    1.95
  13   1  11   -1.13    2.11
  13   1  11   -3.05    2.02
  18  -2 -11    0.64    1.52
 -18   2  11   -0.47    2.10
  17  -2 -11   -0.41    1.34
 -17   2  11   -1.21    1.90
  16  -2 -11    0.39    1.21
 -16   2  11    2.74    1.83
  15  -2 -11   -0.26    1.07
 -15   2  11    0.91    1.64
  14  -2 -11    0.09    0.99
 -14   2  11    1.56    1.49
  13  -2 -11   -0.25    0.89
 -13   2  11    1.02    1.26
  12  -2 -11   -0.20    0.82
 -12   2  11    1.40    1.26
  11  -2 -11    3.00    0.96
 -11   2  11    3.77    1.27
 -10   2  11    3.73    1.17
   9  -2 -11    5.83    1.05
  -9   2  11    5.65    1.24
  -8   2  11    0.96    0.95
   7  -2 -11    4.54    1.10
  -7   2  11    3.14    1.00
  -7   2  11    3.29    1.05
   6  -2 -11    5.43    1.18
  -6   2  11    5.59    0.83
  -6   2  11    5.10    0.98
  -5   2  11    9.27    1.11
  -5   2  11   10.43    1.04
  -4   2  11   11.56    1.08
  -4   2  11   12.35    1.43
  -3   2  11    1.09    0.65
  -3   2  11    1.33    0.85
  -2   2  11    7.24    1.12
  -2   2  11    8.02    1.31
  -1   2  11    1.95    0.82
  -1   2  11    1.00    0.80
   0   2  11    8.03    1.12
   0   2  11    7.79    1.16
   1   2  11   14.23    1.45
   1   2  11   16.03    1.38
   2   2  11    8.78    1.42
   2   2  11    9.52    1.27
   3   2  11   14.06    1.69
   3   2  11   13.44    1.87
   4   2  11   -0.78    1.05
   4   2  11    0.32    1.17
   5   2  11    1.38    1.18
   5   2  11    1.04    1.22
   6   2  11   -0.85    1.15
   6   2  11    0.81    1.22
   7   2  11    2.52    1.38
   7   2  11    1.63    1.37
   8   2  11    0.69    1.44
   8   2  11    0.50    1.44
   9   2  11   -1.07    1.61
  10   2  11   -2.35    1.61
  10   2  11    0.32    1.66
  11   2  11    3.33    1.84
  11   2  11    1.45    1.75
  12   2  11   -0.74    2.07
  12   2  11    3.08    2.04
  18  -3 -11    1.10    1.47
 -18   3  11    2.52    2.21
  17  -3 -11   -1.46    1.26
 -17   3  11   -1.92    1.60
  16  -3 -11    0.15    1.12
 -16   3  11    0.34    1.68
  15  -3 -11    0.50    1.02
 -15   3  11    2.76    1.59
 -14   3  11   -0.55    1.33
  13  -3 -11    0.60    0.94
 -13   3  11    3.50    1.37
  12  -3 -11    4.71    1.03
 -12   3  11    5.59    1.43
 -11   3  11    1.40    1.21
 -10   3  11    1.56    1.11
  -9   3  11    5.14    1.19
   8  -3 -11    2.47    1.12
  -8   3  11    2.55    1.09
  -8   3  11    2.56    1.12
  -7   3  11    0.12    1.06
  -7   3  11    0.90    0.93
  -6   3  11    8.68    1.09
  -6   3  11    5.37    1.10
  -5   3  11    7.52    1.09
  -5   3  11    6.86    1.10
  -4   3  11    6.51    1.09
  -4   3  11    7.21    1.23
  -3   3  11    5.73    1.02
  -3   3  11    3.45    1.12
  -2   3  11   16.01    1.66
  -2   3  11   16.76    1.50
  -1   3  11    2.60    0.95
  -1   3  11    2.48    0.92
   0   3  11   12.47    1.46
   0   3  11   14.74    1.46
   1   3  11    2.66    1.18
   1   3  11    3.90    1.03
   2   3  11    1.99    1.00
   2   3  11    1.07    1.15
   3   3  11    2.56    1.27
   3   3  11    2.89    1.10
   4   3  11    5.76    1.48
   4   3  11    4.84    1.25
   5   3  11    4.59    1.46
   5   3  11    4.76    1.25
   6   3  11    1.22    1.24
   6   3  11    0.56    1.32
   7   3  11    4.06    1.57
   7   3  11    3.91    1.44
   8   3  11    2.37    1.57
   8   3  11    3.06    1.40
   9   3  11   -0.18    1.65
   9   3  11    0.12    1.43
  10   3  11   -1.00    1.73
  11   3  11    0.06    2.07
  12   3  11   -4.24    2.10
  18  -4 -11   -2.77    1.43
  17  -4 -11   -2.05    1.22
 -17   4  11   -2.65    1.76
  16  -4 -11    0.71    1.20
 -16   4  11    0.74    1.59
  15  -4 -11    2.52    1.17
 -15   4  11    3.38    1.60
  14  -4 -11    1.44    1.06
 -14   4  11    0.87    1.42
  13  -4 -11    6.10    1.17
 -13   4  11    8.63    1.60
 -12   4  11    2.30    1.24
 -11   4  11   -0.34    1.11
 -10   4  11    1.88    1.10
 -10   4  11    1.07    1.17
  -9   4  11   -0.11    1.17
  -9   4  11    0.13    1.08
  -8   4  11   -0.19    0.87
  -8   4  11   -0.91    1.21
  -7   4  11    5.75    1.36
  -7   4  11    3.91    1.13
  -5   4  11    1.26    0.80
  -5   4  11    0.26    1.06
  -4   4  11   -1.21    0.79
  -4   4  11   -0.01    1.09
  -3   4  11    1.41    0.92
  -3   4  11    0.74    1.26
  -2   4  11    9.95    1.69
  -2   4  11   10.45    1.58
  -1   4  11    7.59    1.21
  -1   4  11    7.11    1.29
   0   4  11    5.12    1.35
   0   4  11    4.36    1.05
   1   4  11   -0.21    0.89
   1   4  11    1.08    1.13
   2   4  11    0.58    0.98
   2   4  11    1.48    1.31
   3   4  11    0.58    1.03
   3   4  11    0.70    1.25
   4   4  11    3.18    1.34
   4   4  11    6.18    1.21
   5   4  11    0.42    1.08
   5   4  11   -1.89    1.21
   6   4  11    3.16    1.45
   6   4  11    3.91    1.36
   7   4  11    2.53    1.45
   7   4  11    3.86    1.44
   8   4  11   -1.02    1.48
   8   4  11   -0.95    1.64
   9   4  11   -0.15    1.72
   9   4  11   -1.94    1.61
  10   4  11    1.23    2.01
  11   4  11   -0.57    2.00
  18  -5 -11    0.96    1.51
  17  -5 -11   -0.48    1.36
 -17   5  11   -1.80    1.60
  16  -5 -11    1.89    1.27
 -16   5  11   -0.24    1.60
  15  -5 -11   -0.42    1.13
 -15   5  11    0.39    1.37
 -14   5  11    2.08    1.43
 -13   5  11    4.89    1.46
 -12   5  11    1.32    1.20
 -12   5  11    0.00    1.33
 -11   5  11    0.24    1.12
 -11   5  11    1.51    1.32
 -10   5  11    4.11    1.35
 -10   5  11    4.01    1.26
  -9   5  11    3.12    1.37
  -9   5  11    3.11    1.25
  -8   5  11   -0.48    1.02
  -8   5  11   -0.45    1.38
  -7   5  11    6.55    1.50
  -7   5  11    4.57    1.14
  -6   5  11    7.45    1.50
  -5   5  11    8.51    1.42
  -5   5  11    8.05    1.41
  -4   5  11    9.04    1.33
  -4   5  11    8.56    1.40
  -3   5  11    5.88    1.44
  -3   5  11    4.51    1.09
  -2   5  11    2.68    1.11
  -1   5  11    2.61    1.09
  -1   5  11    5.35    1.88
   0   5  11    3.25    1.19
   0   5  11    2.84    1.35
   1   5  11    6.06    1.24
   1   5  11    4.14    1.47
   2   5  11    0.81    1.40
   2   5  11    1.56    1.05
   3   5  11    8.01    1.19
   3   5  11    6.41    1.49
   4   5  11    5.50    1.22
   4   5  11    2.70    1.45
   5   5  11   -0.34    1.15
   5   5  11   -1.27    1.34
   6   5  11    1.35    1.55
   7   5  11    0.10    1.74
   8   5  11   -2.00    1.65
   9   5  11   -2.13    1.81
  10   5  11   -0.70    1.93
  11   5  11   -1.65    2.37
 -18   6  11   -2.29    1.81
 -17   6  11    0.58    1.67
 -16   6  11    0.50    1.50
 -15   6  11   -1.19    1.42
 -14   6  11    0.44    1.44
 -13   6  11    1.20    1.38
 -13   6  11    0.43    1.50
 -12   6  11    0.75    1.57
 -12   6  11   -0.14    1.23
 -11   6  11    1.88    1.49
 -11   6  11    0.13    1.23
 -10   6  11    0.10    1.08
 -10   6  11    0.41    1.43
  -9   6  11   -0.27    1.44
  -9   6  11    0.74    1.10
  -8   6  11   12.58    1.80
  -8   6  11    9.56    1.48
  -7   6  11    1.21    1.45
  -7   6  11    0.64    1.09
  -6   6  11    3.36    1.60
  -5   6  11    9.48    1.44
  -5   6  11    8.61    1.31
  -4   6  11    5.80    1.26
  -3   6  11    2.60    1.31
  -3   6  11    1.68    1.07
  -2   6  11    1.12    1.53
  -2   6  11    0.32    1.12
  -1   6  11    4.34    1.93
  -1   6  11    1.19    1.17
   0   6  11    4.92    2.09
   1   6  11   -0.82    1.16
   1   6  11   -0.61    1.73
   2   6  11    7.76    1.66
   2   6  11    9.75    1.40
   3   6  11    1.07    1.46
   4   6  11   -0.32    1.50
   5   6  11    0.17    1.56
   6   6  11    2.26    1.62
   7   6  11    0.77    1.83
   8   6  11    1.64    1.96
   9   6  11   -1.09    1.85
  10   6  11   -1.05    2.15
 -18   7  11   -0.47    1.76
 -17   7  11   -1.00    1.72
 -16   7  11   -0.26    1.57
 -15   7  11    0.54    1.39
 -14   7  11   -0.45    1.80
 -14   7  11   -1.05    1.42
 -13   7  11    2.26    1.49
 -13   7  11    0.36    1.79
 -12   7  11    2.44    1.76
 -12   7  11    1.09    1.38
 -11   7  11    4.74    1.46
 -11   7  11    8.24    1.77
 -10   7  11   -0.29    1.58
 -10   7  11    1.28    1.17
  -9   7  11    0.40    1.55
  -9   7  11    1.02    1.16
  -8   7  11    2.10    1.69
  -8   7  11    2.55    1.33
  -7   7  11    2.62    1.26
  -6   7  11   -0.67    1.11
  -6   7  11   -1.65    1.45
  -5   7  11    1.50    1.46
  -5   7  11    2.02    1.14
  -4   7  11    2.46    1.46
  -4   7  11    2.73    1.19
  -3   7  11    0.39    1.42
  -3   7  11    1.13    1.13
  -2   7  11    5.79    1.57
  -2   7  11    4.62    1.30
  -1   7  11    8.83    2.02
  -1   7  11    5.39    1.36
   0   7  11    3.30    1.19
   0   7  11    3.68    1.92
   1   7  11    2.77    1.18
   1   7  11    6.01    2.42
   2   7  11    3.82    2.29
   3   7  11    2.04    2.44
   4   7  11    2.29    2.00
   5   7  11    3.34    2.27
   6   7  11    0.65    1.77
   7   7  11    2.13    1.78
   8   7  11    4.34    1.98
   9   7  11    1.69    2.22
  10   7  11    3.02    3.05
 -18   8  11   -0.99    1.70
 -16   8  11    0.59    1.64
 -15   8  11    1.51    1.52
 -15   8  11    3.58    1.85
 -14   8  11   -0.52    1.41
 -14   8  11    2.27    1.69
 -13   8  11   -0.01    1.44
 -13   8  11   -0.57    1.70
 -12   8  11    4.90    1.66
 -12   8  11    2.80    1.66
 -11   8  11    1.10    1.32
 -11   8  11   -0.25    1.55
 -10   8  11    0.09    1.25
 -10   8  11   -0.76    1.56
  -9   8  11    0.50    1.29
  -9   8  11    0.00    1.52
  -8   8  11    1.97    1.25
  -8   8  11    4.26    1.65
  -7   8  11    3.26    1.21
  -7   8  11    2.31    1.63
  -6   8  11   -0.22    1.18
  -6   8  11    3.01    1.65
  -5   8  11   -0.48    1.62
  -5   8  11    1.73    1.28
  -4   8  11    0.26    1.26
  -4   8  11   -1.07    1.37
  -3   8  11    3.12    1.62
  -3   8  11    5.58    1.40
  -2   8  11    5.01    1.37
  -2   8  11    4.16    1.75
  -1   8  11    1.11    1.20
  -1   8  11    0.51    1.45
   0   8  11    0.57    1.80
   0   8  11    2.34    1.22
   1   8  11    1.85    1.99
   2   8  11    2.04    2.37
   3   8  11    6.86    2.56
   4   8  11    5.24    2.73
   5   8  11    4.03    2.95
   6   8  11    4.42    3.05
   7   8  11    5.88    3.37
   8   8  11    6.10    3.70
 -17   9  11   -2.27    1.78
 -16   9  11    0.50    2.31
 -16   9  11   -1.33    1.62
 -15   9  11    1.74    2.06
 -15   9  11   -0.82    1.65
 -14   9  11    0.48    1.96
 -14   9  11    0.25    1.54
 -13   9  11    1.53    1.91
 -13   9  11    1.62    1.58
 -12   9  11    1.88    1.86
 -12   9  11   -0.05    1.44
 -11   9  11   -0.59    1.35
 -11   9  11    2.37    1.73
 -10   9  11    2.01    1.76
 -10   9  11    2.76    1.45
  -9   9  11    1.32    1.38
  -9   9  11    0.43    1.68
  -8   9  11    0.45    1.35
  -8   9  11    0.98    1.63
  -7   9  11    3.19    1.56
  -7   9  11    2.28    1.32
  -6   9  11    1.84    1.74
  -6   9  11    1.87    1.37
  -5   9  11    1.03    1.50
  -4   9  11    0.80    1.27
  -4   9  11   -1.44    1.68
  -3   9  11    2.03    1.65
  -2   9  11    0.77    1.20
  -2   9  11    0.20    1.79
  -1   9  11    0.69    1.19
  -1   9  11   -1.51    1.49
   0   9  11    0.37    1.61
   1   9  11    0.74    1.69
   2   9  11   -0.60    2.32
   3   9  11    0.84    2.33
   4   9  11    0.79    2.45
   5   9  11   -0.79    2.73
   6   9  11    0.46    2.99
   7   9  11    2.01    2.89
 -17  10  11   -2.95    1.71
 -16  10  11    6.57    2.50
 -16  10  11   -1.70    1.62
 -15  10  11    3.54    2.14
 -15  10  11   -0.94    1.70
 -14  10  11   -0.10    1.67
 -14  10  11    0.62    2.18
 -13  10  11   -0.03    2.07
 -13  10  11   -0.92    1.58
 -12  10  11   -0.50    1.93
 -12  10  11   -0.16    1.53
 -11  10  11    4.99    2.09
 -11  10  11    1.26    1.56
 -10  10  11    3.26    2.00
 -10  10  11    0.74    1.52
  -9  10  11   -0.18    1.78
  -9  10  11   -1.81    1.41
  -8  10  11    3.77    1.97
  -8  10  11    1.66    1.50
  -7  10  11    0.71    1.43
  -7  10  11   -3.36    1.61
  -6  10  11    1.29    1.55
  -6  10  11    2.39    1.44
  -5  10  11    1.85    1.58
  -4  10  11   -0.29    1.95
  -4  10  11    5.52    1.58
  -3  10  11    0.00    1.33
  -3  10  11    1.99    1.44
  -2  10  11   -2.56    1.51
  -2  10  11    0.76    1.29
  -1  10  11    3.00    1.91
   0  10  11   -0.23    1.75
   1  10  11   -1.11    1.88
   2  10  11    4.74    2.00
   3  10  11   -0.35    1.90
   4  10  11   -3.30    2.46
   6  10  11   -3.79    2.93
 -16  11  11    1.04    2.62
 -15  11  11    2.51    2.62
 -15  11  11   -2.41    1.82
 -14  11  11   -2.06    1.68
 -14  11  11    2.62    2.35
 -13  11  11   -2.10    2.11
 -13  11  11    1.67    1.65
 -12  11  11   -0.36    1.60
 -12  11  11    0.22    2.08
 -11  11  11    6.81    2.19
 -11  11  11    1.23    1.69
 -10  11  11    1.85    1.62
 -10  11  11    4.09    2.14
  -9  11  11    2.44    1.73
  -9  11  11    2.96    2.02
  -8  11  11   -1.74    1.57
  -8  11  11    3.79    1.88
  -7  11  11   -1.27    1.49
  -7  11  11   -0.67    1.70
  -6  11  11    1.06    1.75
  -6  11  11   -1.34    1.47
  -5  11  11    0.90    1.67
  -4  11  11    0.71    1.50
  -4  11  11    0.53    1.77
  -3  11  11    1.60    1.56
  -3  11  11   -1.45    1.75
  -2  11  11    2.01    1.64
  -1  11  11    2.10    1.78
   0  11  11   -1.92    1.81
   1  11  11    0.30    2.24
   2  11  11    0.78    1.99
   3  11  11   -1.58    2.17
   4  11  11   -3.55    2.30
   5  11  11    1.40    2.35
   6  11  11    0.76    2.42
 -15  12  11   -2.23    1.98
 -15  12  11    0.41    2.65
 -14  12  11   -3.22    1.82
 -14  12  11    1.51    2.72
 -13  12  11   -4.13    2.33
 -13  12  11   -1.98    1.75
 -12  12  11   -1.04    2.14
 -11  12  11    4.49    2.35
 -11  12  11   -2.91    1.80
 -10  12  11   -2.99    1.72
 -10  12  11    1.15    2.10
  -9  12  11   -1.85    1.65
  -9  12  11    1.32    2.17
  -8  12  11    2.08    1.75
  -8  12  11    7.06    2.22
  -7  12  11   -0.17    1.91
  -7  12  11   -1.10    1.56
  -6  12  11    0.87    1.85
  -5  12  11   -0.97    1.60
  -4  12  11    1.78    1.72
  -4  12  11    4.61    1.75
  -3  12  11    1.33    1.64
  -3  12  11    0.30    1.80
  -2  12  11   -1.13    1.90
  -1  12  11    0.08    1.97
   0  12  11    0.03    1.66
   1  12  11   -3.22    2.10
   2  12  11   -2.31    2.41
   3  12  11    0.46    2.68
   5  12  11   -2.67    2.88
 -14  13  11   -2.24    2.11
 -14  13  11   -0.64    2.72
 -13  13  11   -0.16    2.02
 -13  13  11   -2.93    2.67
 -12  13  11   -2.29    2.47
 -12  13  11   -1.71    2.00
 -11  13  11   -3.20    1.97
 -11  13  11    4.60    2.50
 -10  13  11   -2.52    1.78
 -10  13  11   -0.35    2.22
  -9  13  11    0.99    2.11
  -9  13  11   -3.15    1.85
  -8  13  11    2.19    2.20
  -7  13  11   -1.72    1.72
  -7  13  11    3.55    2.18
  -6  13  11    0.04    1.89
  -6  13  11    1.61    1.74
  -5  13  11    3.48    1.84
  -5  13  11    1.65    1.64
  -4  13  11    0.73    1.79
  -4  13  11    1.89    2.00
  -3  13  11    3.40    1.98
  -2  13  11    2.08    2.01
  -1  13  11   -3.02    2.02
   0  13  11   -0.77    2.24
   1  13  11    0.36    2.14
   3  13  11   -0.61    2.35
 -13  14  11    1.97    2.21
 -13  14  11   -5.05    2.76
 -12  14  11    1.15    2.27
 -12  14  11    2.08    2.72
 -11  14  11   -0.15    2.07
 -11  14  11    2.57    2.61
 -10  14  11    2.61    2.14
 -10  14  11    1.50    2.43
  -9  14  11    0.41    2.18
  -9  14  11    1.68    2.04
  -8  14  11    2.74    2.21
  -8  14  11   -0.03    1.87
  -7  14  11    0.86    1.95
  -7  14  11    4.83    2.09
  -6  14  11    1.37    1.95
  -6  14  11    2.63    1.86
  -5  14  11   -0.27    1.88
  -5  14  11   -0.24    1.81
  -4  14  11    3.33    2.13
  -3  14  11    1.47    2.09
  -2  14  11    2.57    2.20
  -1  14  11   -0.68    1.94
   1  14  11   -0.79    2.48
 -12  15  11    3.29    2.57
 -11  15  11    1.74    2.39
 -11  15  11    4.62    2.78
 -10  15  11    3.12    2.37
 -10  15  11    3.33    2.77
  -9  15  11    3.30    2.30
  -9  15  11    4.00    2.28
  -8  15  11    0.88    2.21
  -8  15  11    0.77    2.49
  -7  15  11    0.56    2.21
  -7  15  11    1.98    2.29
  -6  15  11    4.58    2.54
  -5  15  11    0.68    2.30
  -4  15  11    0.82    2.15
  -2  15  11    3.87    2.45
  -1  15  11    0.29    2.06
  -8  16  11    0.48    2.42
  -8  16  11    4.92    2.62
  -7  16  11    0.54    2.49
  -6  16  11    5.95    2.31
  -5  16  11    2.50    2.46
   2  17 -12   -2.65    1.69
   2  17 -12    3.61    2.40
  -2 -17  12   -0.33    2.43
   1  17 -12    0.70    1.79
   1  17 -12    2.12    2.26
  -1 -17  12    0.47    2.44
   0  17 -12   -0.26    2.09
   0  17 -12    1.59    1.89
   0 -17  12    7.73    2.55
  -1  17 -12    2.96    2.10
   1 -17  12   -0.62    2.35
  -2  17 -12    1.72    1.98
   2 -17  12   -1.31    2.12
  -3  17 -12    3.02    2.25
   3 -17  12    0.40    2.11
  -4  17 -12   -0.42    1.98
   4 -17  12    0.30    2.16
   5 -17  12   -2.73    2.16
   6 -17  12   -1.65    2.20
   5  16 -12    2.97    2.48
   5  16 -12   -1.09    1.62
  -5 -16  12    3.59    2.39
   4  16 -12    2.28    2.28
   4  16 -12   -2.63    1.51
  -4 -16  12   -0.54    2.42
   3  16 -12    0.77    1.69
   3  16 -12    4.81    2.21
  -3 -16  12   -0.80    2.32
   2  16 -12   -3.00    1.46
   2  16 -12    1.32    2.05
  -2 -16  12    0.33    2.23
   1  16 -12    0.86    2.02
   1  16 -12    0.76    1.58
  -1 -16  12    1.07    2.14
   0  16 -12    1.54    1.62
   0  16 -12    0.99    1.94
   0 -16  12   -1.46    2.03
  -1  16 -12    2.63    1.89
   1 -16  12    1.29    2.23
  -2  16 -12    1.73    1.98
   2 -16  12   -0.36    2.01
  -3  16 -12    1.93    1.76
   3 -16  12    0.21    1.99
  -4  16 -12    1.19    2.05
   4 -16  12    0.47    2.06
   5 -16  12   -1.59    2.03
   6 -16  12    2.46    2.05
   7 -16  12   -0.22    2.04
   9 -16  12   -3.76    2.01
   6  15 -12   -2.16    1.68
   6  15 -12    0.12    2.20
  -6 -15  12   -1.66    2.18
   5  15 -12    4.60    2.21
  -5 -15  12   -0.51    2.21
   4  15 -12   -0.42    1.38
   4  15 -12    3.40    2.05
  -4 -15  12    2.10    2.12
   3  15 -12    2.48    1.95
   3  15 -12   -0.69    1.33
  -3 -15  12    0.05    2.07
   2  15 -12    0.54    1.82
   2  15 -12   -2.13    1.37
  -2 -15  12    1.99    2.01
   1  15 -12    2.18    1.79
   1  15 -12    1.35    1.43
  -1 -15  12    5.92    2.08
   0  15 -12    0.34    1.72
   0  15 -12    1.98    1.47
   0 -15  12   -0.67    1.85
  -1  15 -12    0.62    1.68
   1 -15  12   -1.37    1.85
  -2  15 -12    2.38    1.73
   2 -15  12    1.01    1.85
  -3  15 -12    0.47    1.69
   3 -15  12    1.41    1.82
   4 -15  12   -1.91    1.73
   5 -15  12   -2.30    1.79
   6 -15  12   -2.91    1.86
   7 -15  12    0.19    1.79
   9 -15  12    1.95    2.37
  10 -15  12    1.58    2.16
  -8 -14  12    1.13    2.37
   7  14 -12   -2.99    1.56
  -7 -14  12    1.53    2.11
   6  14 -12    3.92    2.06
  -6 -14  12    2.88    2.01
   5  14 -12    3.69    1.87
   5  14 -12   -1.75    1.22
  -5 -14  12    0.35    1.98
   4  14 -12    4.71    1.82
   4  14 -12   -0.32    1.35
  -4 -14  12    1.64    1.93
   3  14 -12   -0.13    1.30
   3  14 -12    1.77    1.78
  -3 -14  12    1.95    1.87
   2  14 -12    1.44    1.65
   2  14 -12    0.01    1.31
  -2 -14  12    1.36    1.90
   1  14 -12    0.96    1.67
   1  14 -12    0.19    1.33
  -1 -14  12    4.30    1.89
   0  14 -12    0.21    1.36
   0  14 -12    1.53    1.60
   0 -14  12   -0.44    1.76
  -1  14 -12    1.23    1.55
   1 -14  12    1.71    1.65
  -2  14 -12    0.83    1.52
   2 -14  12   -0.04    1.66
   3 -14  12   -0.62    1.73
   4 -14  12    0.05    1.75
   5 -14  12    0.54    1.64
   6 -14  12    1.08    1.65
   7 -14  12   -1.53    1.75
   8 -14  12    0.14    1.91
   9 -14  12    1.09    1.99
  11 -14  12    0.65    2.14
  -9 -13  12    3.94    2.29
   8  13 -12   -2.32    1.55
  -8 -13  12    0.29    2.03
   7  13 -12    2.41    1.83
   7  13 -12   -0.43    1.30
  -7 -13  12   -1.04    1.89
   6  13 -12    3.84    1.75
  -6 -13  12    4.61    1.87
   5  13 -12    6.97    1.82
  -5 -13  12    4.96    1.98
   4  13 -12    1.83    1.58
   4  13 -12    0.06    1.26
  -4 -13  12    0.44    1.72
   3  13 -12    0.41    1.52
   3  13 -12    0.08    1.08
  -3 -13  12    0.45    1.70
   2  13 -12    1.63    1.51
   2  13 -12   -0.19    1.15
  -2 -13  12    2.43    1.76
   1  13 -12    0.07    1.17
   1  13 -12    3.65    1.59
  -1 -13  12    2.11    1.63
   0  13 -12    4.10    1.60
   0  13 -12    2.86    1.29
   0 -13  12    3.62    1.66
  -1  13 -12    0.94    1.41
   1 -13  12    2.45    1.69
  -2  13 -12    1.05    1.46
   2 -13  12    0.50    1.54
   3 -13  12    0.17    1.57
   4 -13  12    2.66    1.70
   5 -13  12   -0.87    1.54
   6 -13  12   -0.34    1.52
   7 -13  12   -1.58    1.59
   8 -13  12    0.18    1.76
   9 -13  12   -1.52    1.77
  10 -13  12    2.19    2.03
  12 -13  12   -2.19    2.12
  11  12 -12   -0.73    1.49
 -10 -12  12    1.59    2.17
   9  12 -12   -1.67    1.30
  -9 -12  12    1.39    2.06
   8  12 -12   -2.29    1.23
  -8 -12  12    0.18    1.90
   7  12 -12   -1.58    1.22
   7  12 -12   -2.42    1.85
   6  12 -12   -0.62    1.15
  -6 -12  12    1.87    1.66
   5  12 -12   -0.06    1.08
   5  12 -12    0.51    1.51
  -5 -12  12   -0.87    1.62
   4  12 -12    1.86    1.51
   4  12 -12   -0.22    1.01
  -4 -12  12    0.83    1.58
   3  12 -12    8.46    1.58
   3  12 -12    4.60    1.28
  -3 -12  12    8.16    1.71
   2  12 -12    1.13    1.37
  -2 -12  12    1.98    1.61
   1  12 -12   -0.08    1.30
   1  12 -12   -0.15    1.06
  -1 -12  12   -0.79    1.50
   0  12 -12    4.48    1.50
   0  12 -12    2.20    1.19
   0 -12  12    4.99    1.63
  -1  12 -12    1.44    1.36
   1 -12  12    0.32    1.41
   2 -12  12    0.37    1.48
   3 -12  12    4.60    1.67
   4 -12  12    0.83    1.53
   5 -12  12   -1.24    1.43
   6 -12  12   -0.48    1.54
   7 -12  12   -0.72    1.58
   8 -12  12    1.45    1.74
   9 -12  12    0.49    1.75
  10 -12  12    2.78    1.91
  11 -12  12   -0.44    1.76
  12  11 -12   -0.56    1.37
 -12 -11  12    2.96    2.44
 -11 -11  12    2.49    2.33
  10  11 -12   -1.56    1.23
 -10 -11  12    0.72    2.11
   9  11 -12   -1.20    1.19
  -9 -11  12    2.55    1.99
   8  11 -12   -1.77    1.11
  -8 -11  12    0.54    1.80
   7  11 -12    0.14    1.17
   7  11 -12    2.10    1.63
  -7 -11  12   -0.60    1.67
   6  11 -12    0.37    1.56
   6  11 -12   -0.32    1.17
  -6 -11  12    1.73    1.59
   5  11 -12   -0.82    1.00
   5  11 -12   -0.28    1.38
  -5 -11  12   -0.73    1.45
   4  11 -12    1.59    1.48
   4  11 -12    1.46    1.01
  -4 -11  12    0.93    1.51
   3  11 -12    1.10    1.00
  -3 -11  12    1.23    1.43
   2  11 -12   -1.23    0.87
   2  11 -12    0.75    1.25
  -2 -11  12    2.07    1.57
   1  11 -12    0.99    0.94
   1  11 -12   -0.24    1.20
  -1 -11  12    0.19    1.38
   0  11 -12    1.13    1.04
   0 -11  12    2.30    1.43
   1 -11  12    2.24    1.54
   2 -11  12    2.15    1.43
   3 -11  12    0.49    1.38
   4 -11  12    1.59    1.40
   5 -11  12   -0.41    1.30
   6 -11  12   -0.80    1.36
   7 -11  12    2.86    1.66
   8 -11  12   -1.13    1.49
   9 -11  12    1.29    1.66
  10 -11  12    0.92    1.71
  11 -11  12   -1.06    1.86
  12 -11  12    1.30    1.99
  13 -11  12    3.02    2.12
 -13 -10  12    3.75    2.53
 -12 -10  12    4.45    2.23
  11  10 -12   -0.72    1.22
 -11 -10  12   -0.37    1.98
  10  10 -12    0.02    1.17
 -10 -10  12    2.19    1.90
   9  10 -12   -1.68    1.08
  -9 -10  12    1.98    1.78
   8  10 -12   -2.03    1.08
  -8 -10  12    0.52    1.60
   7  10 -12    1.03    1.12
  -7 -10  12   -0.24    1.53
   6  10 -12    3.73    1.39
   6  10 -12    1.30    1.21
  -6 -10  12    2.65    1.63
   5  10 -12    1.89    1.05
   5  10 -12    3.25    1.37
  -5 -10  12    2.65    1.50
   4  10 -12    2.59    1.12
   4  10 -12    7.14    1.46
  -4 -10  12    4.81    1.48
   3  10 -12    0.00    1.26
   3  10 -12    0.22    0.84
  -3 -10  12   -0.43    1.25
   2  10 -12   -0.01    0.98
  -2 -10  12    1.17    1.37
   1  10 -12    2.35    1.02
  -1 -10  12    1.93    1.38
   0 -10  12    1.00    1.39
   1 -10  12    1.25    1.40
   2 -10  12   -0.26    1.38
   3 -10  12   -0.45    1.27
   4 -10  12   -0.59    1.26
   5 -10  12    1.38    1.31
   6 -10  12   -0.33    1.34
   7 -10  12    1.22    1.47
   8 -10  12   -0.55    1.60
   9 -10  12    0.99    1.65
  10 -10  12    0.56    1.67
  11 -10  12    1.81    1.77
  12 -10  12    0.39    2.05
 -13  -9  12    2.39    2.27
  12   9 -12    0.52    1.16
 -12  -9  12    0.99    2.04
  11   9 -12    0.01    1.15
 -11  -9  12    0.82    1.87
  10   9 -12   -1.45    1.14
 -10  -9  12    2.66    1.80
   9   9 -12   -1.87    0.99
  -9  -9  12    2.69    1.66
   8   9 -12   -0.28    1.09
  -8  -9  12    1.97    1.62
   7   9 -12   -0.18    0.97
  -7  -9  12   -1.28    1.40
   6   9 -12   -0.33    0.91
  -6  -9  12    0.07    1.35
   5   9 -12   -0.01    0.84
  -5  -9  12   -0.76    1.29
   4   9 -12    0.35    0.87
  -4  -9  12    0.85    1.37
   3   9 -12    0.75    0.96
  -3  -9  12    3.05    1.36
   2   9 -12   -0.40    0.90
  -2  -9  12    1.05    1.45
   1   9 -12    1.10    0.95
  -1  -9  12    0.69    1.37
   0  -9  12    3.57    1.50
   1  -9  12    2.32    1.43
   2  -9  12    2.32    1.42
   3  -9  12   -0.64    1.28
   4  -9  12    7.75    1.72
   5  -9  12    0.99    1.27
   6  -9  12   -1.13    1.25
   7  -9  12    0.52    1.43
   8  -9  12    1.94    1.61
   9  -9  12    1.34    1.58
  10  -9  12    0.25    1.62
  11  -9  12    2.18    1.79
  12  -9  12    1.80    1.98
  13  -9  12    1.98    2.06
  14   8 -12    0.34    1.47
 -14  -8  12    3.99    2.28
  13   8 -12    1.38    1.33
 -13  -8  12    0.09    2.15
  12   8 -12    0.45    1.24
 -12  -8  12    1.80    1.97
  11   8 -12   -0.54    1.11
 -11  -8  12    0.06    1.76
  10   8 -12    0.19    1.11
 -10  -8  12    4.14    1.71
   9   8 -12    1.80    1.15
  -9  -8  12    4.97    1.65
   8   8 -12    0.14    1.00
  -8  -8  12    3.01    1.54
   7   8 -12   -0.09    0.98
  -7  -8  12   -0.52    1.34
   6   8 -12   -1.03    0.82
  -6  -8  12   -0.07    1.23
   5   8 -12   -0.15    0.86
  -5  -8  12    0.38    1.21
   4   8 -12    1.37    0.98
  -4  -8  12    2.29    1.30
   3   8 -12    3.33    0.99
  -3  -8  12    5.46    1.40
   2   8 -12   14.21    2.15
  -2  -8  12   14.06    2.14
   1   8 -12    3.60    1.08
  -1  -8  12    2.77    1.38
   0  -8  12    5.51    1.47
   1  -8  12    0.82    1.35
   2  -8  12    1.41    1.34
   3  -8  12    0.58    1.29
   4  -8  12   13.10    1.96
   5  -8  12    0.55    1.27
   6  -8  12   -1.26    1.20
   7  -8  12    3.34    1.46
   8  -8  12   -1.96    1.39
   9  -8  12    1.01    1.51
  10  -8  12    3.70    1.73
  11  -8  12    0.24    1.66
  12  -8  12    1.85    1.74
  13  -8  12    3.82    2.10
  15   7 -12   -0.53    1.33
 -15  -7  12    5.99    2.46
  14   7 -12    1.39    1.35
 -14  -7  12    3.26    2.16
  13   7 -12    0.71    1.30
 -13  -7  12    3.55    2.15
  12   7 -12   -0.81    1.13
 -12  -7  12    2.40    1.83
  11   7 -12   -1.78    1.02
 -11  -7  12    1.53    1.55
 -10  -7  12    4.64    1.62
   9   7 -12   -0.27    1.03
  -9  -7  12    0.71    1.47
   8   7 -12   -0.44    0.93
  -8  -7  12    1.13    1.36
   7   7 -12   -0.28    0.91
  -7  -7  12    0.66    1.34
   6   7 -12   -0.10    0.90
  -6  -7  12    0.34    1.28
   5   7 -12    0.53    0.95
  -5  -7  12   -0.36    1.35
  -5  -7  12    0.12    1.24
   4   7 -12    3.77    0.96
  -4  -7  12    7.18    1.45
   3   7 -12   13.51    2.07
  -3  -7  12   11.63    1.60
   2   7 -12    6.01    1.10
  -1  -7  12    1.57    1.23
   0  -7  12   10.12    1.66
   1  -7  12    1.15    1.23
   2  -7  12    5.17    1.40
   3  -7  12    1.50    1.25
   4  -7  12    0.52    1.28
   5  -7  12    2.59    1.30
   6  -7  12   -0.44    1.21
   7  -7  12    1.64    1.42
   8  -7  12    0.45    1.42
   9  -7  12    0.91    1.46
  10  -7  12    1.36    1.61
  11  -7  12    2.12    1.69
  12  -7  12   -0.18    1.80
  13  -7  12    0.07    1.89
  14  -7  12    0.45    2.20
  15   6 -12   -0.17    1.30
 -15  -6  12    1.72    2.40
  14   6 -12    1.12    1.34
 -14  -6  12    6.06    2.17
  13   6 -12    0.85    1.14
 -13  -6  12    1.76    1.86
  12   6 -12    0.12    1.08
 -12  -6  12    0.89    1.70
  11   6 -12   -1.40    1.03
 -11  -6  12    0.91    1.45
 -10  -6  12    7.04    1.72
   9   6 -12    0.39    0.97
  -9  -6  12    1.40    1.31
   8   6 -12    1.71    1.05
  -8  -6  12    4.03    1.51
   7   6 -12    1.23    0.91
  -7  -6  12    2.51    1.38
   6   6 -12    0.72    0.80
  -6  -6  12   -0.17    1.14
   5   6 -12    5.24    1.05
  -5  -6  12    6.19    1.36
   4   6 -12    1.24    0.94
  -4  -6  12    0.79    1.30
   3   6 -12    5.84    0.98
  -3  -6  12    8.21    1.43
   2   6 -12    0.06    0.78
  -2  -6  12   -0.70    1.17
  -1  -6  12   -0.15    1.19
   0  -6  12    1.00    1.19
   1  -6  12   -0.81    1.17
   2  -6  12   10.72    1.63
   3  -6  12   13.42    1.74
   4  -6  12   18.76    2.20
   5  -6  12    1.45    1.23
   6  -6  12    1.31    1.29
   7  -6  12    1.23    1.37
   8  -6  12    0.91    1.41
   9  -6  12    2.57    1.57
  10  -6  12    1.61    1.52
  11  -6  12    0.78    1.78
  12  -6  12   -0.81    1.73
  13  -6  12    1.15    2.04
  14  -6  12   -0.73    2.29
 -16  -5  12   -2.89    2.42
  15   5 -12   -0.64    1.38
 -15  -5  12    1.32    2.23
  14   5 -12   -1.13    1.18
 -14  -5  12    2.67    1.98
 -13  -5  12    1.02    1.73
 -12  -5  12    5.39    1.72
  11   5 -12   -0.39    0.98
 -11  -5  12    1.05    1.47
  10   5 -12    0.85    1.04
 -10  -5  12    2.98    1.35
   9   5 -12    1.28    0.97
  -9  -5  12    3.13    1.42
   8   5 -12    1.89    0.96
  -8  -5  12    2.45    1.29
   7   5 -12    1.53    0.97
  -7  -5  12    0.42    1.32
   6   5 -12    3.12    0.95
   5   5 -12    2.75    0.84
  -5  -5  12    5.08    1.29
   4   5 -12    0.37    0.74
  -4  -5  12   -0.63    1.10
  -4  -5  12   -0.87    0.91
   3   5 -12    0.40    0.83
  -3  -5  12   -0.86    0.99
  -2  -5  12    2.88    1.27
  -1  -5  12    8.43    1.51
   0  -5  12    0.50    1.08
   1  -5  12    9.14    1.59
   2  -5  12    2.26    1.26
   3  -5  12    2.98    1.31
   4  -5  12    0.39    1.22
   5  -5  12   14.56    2.03
   6  -5  12    5.22    1.41
   7  -5  12    3.39    1.40
   8  -5  12   -0.03    1.24
   9  -5  12    0.65    1.48
  10  -5  12    0.13    1.60
  11  -5  12    4.26    1.80
  12  -5  12    0.85    1.85
  13  -5  12    0.96    2.07
  14  -5  12    2.76    2.42
  16   4 -12   -2.65    1.36
 -16  -4  12   -1.35    2.17
  15   4 -12   -2.57    1.32
 -15  -4  12    2.22    2.07
  14   4 -12   -0.56    1.10
 -14  -4  12    4.39    1.98
  13   4 -12   -1.03    1.04
 -13  -4  12    1.73    1.63
  12   4 -12    2.08    1.13
 -12  -4  12    3.25    1.59
  11   4 -12    1.44    1.03
 -11  -4  12    0.64    1.37
  10   4 -12   -0.65    0.85
 -10  -4  12   -0.20    1.22
   9   4 -12   -0.38    0.90
  -9  -4  12   -0.35    1.15
   8   4 -12    0.99    0.87
  -8  -4  12    1.02    1.17
   7   4 -12    0.96    0.80
  -7  -4  12   -0.62    1.17
   6   4 -12    3.55    0.95
  -6  -4  12    6.47    1.47
   5   4 -12    1.43    0.87
  -5  -4  12    2.69    1.05
   4   4 -12    1.49    0.79
  -4  -4  12    2.98    1.26
  -4  -4  12    3.77    1.00
   2  -4  12    1.61    1.20
   3  -4  12   -0.13    1.16
   4  -4  12    3.04    1.46
   5  -4  12    2.45    1.32
   6  -4  12    1.26    1.22
   7  -4  12    5.57    1.49
   8  -4  12   -1.28    1.26
   9  -4  12    0.88    1.45
  10  -4  12    2.03    1.59
  11  -4  12    0.29    1.73
  12  -4  12    1.31    1.86
  13  -4  12    0.71    2.05
  14  -4  12    1.33    2.33
  17   3 -12   -0.65    1.48
 -17  -3  12    1.24    2.36
  16   3 -12   -0.78    1.35
 -16  -3  12    0.66    2.29
  15   3 -12   -0.98    1.17
 -15  -3  12   -0.34    1.93
 -14  -3  12    1.28    1.78
  13   3 -12   -1.29    1.01
 -13  -3  12   -0.49    1.51
  12   3 -12   -0.86    0.88
 -12  -3  12    0.66    1.33
  11   3 -12    0.01    1.00
 -11  -3  12   -0.49    1.20
  10   3 -12    0.54    0.88
 -10  -3  12   -0.18    1.17
   9   3 -12    3.20    0.97
  -9  -3  12    3.75    1.21
   8   3 -12    0.73    0.85
  -8  -3  12    0.22    1.12
   7   3 -12    2.70    0.96
  -7  -3  12    3.69    1.19
   6   3 -12   13.16    1.95
  -6  -3  12   11.51    1.74
   5   3 -12    0.49    0.68
  -5  -3  12   -0.88    1.06
  -4  -3  12    1.87    0.89
  -3  -3  12   16.81    1.56
  -2  -3  12    7.52    1.17
  -1  -3  12    5.12    1.12
   0  -3  12    8.39    1.31
   1  -3  12    1.36    0.79
   3  -3  12    4.00    1.33
   4  -3  12    9.80    1.50
   5  -3  12    0.64    1.24
   6  -3  12    2.26    1.36
   7  -3  12    5.77    1.45
   8  -3  12   -1.04    1.22
   9  -3  12    0.52    1.46
  10  -3  12    0.49    1.51
  11  -3  12    2.10    1.73
  12  -3  12    3.18    1.91
  13  -3  12    7.14    2.47
  13  -3  12    1.02    2.02
  14  -3  12    2.13    2.33
  17   2 -12   -0.65    1.43
 -17  -2  12    1.31    2.34
  16   2 -12   -0.76    1.29
 -16  -2  12    0.90    2.04
  15   2 -12   -0.97    1.20
 -15  -2  12    0.69    1.81
  14   2 -12   -0.05    1.12
 -14  -2  12    4.48    1.77
 -13  -2  12    0.13    1.45
  12   2 -12   -0.45    0.89
 -12  -2  12    0.48    1.28
  11   2 -12    0.04    0.84
 -11  -2  12    1.53    1.20
  10   2 -12    3.34    1.05
 -10  -2  12    5.62    1.36
   9   2 -12    1.90    0.89
  -9  -2  12    2.35    1.18
   8   2 -12   -0.57    0.85
  -8  -2  12   -0.80    1.04
   7   2 -12    4.96    0.95
  -7  -2  12    7.91    1.49
   6   2 -12   10.78    1.79
  -6  -2  12    7.98    1.54
  -4  -2  12    8.55    1.22
  -4  -2  12    8.29    1.28
  -3  -2  12    6.86    1.08
  -3  -2  12    7.71    1.06
  -2  -2  12    6.54    1.01
  -1  -2  12    4.96    0.88
   0  -2  12    8.40    1.13
   1  -2  12    1.08    0.81
   2  -2  12    0.40    0.86
   4  -2  12    0.83    1.21
   5  -2  12   21.69    2.15
   6  -2  12    1.67    1.31
   7  -2  12   -1.10    1.17
   8  -2  12    2.35    1.34
   9  -2  12   -0.18    1.41
  10  -2  12   -1.40    1.51
  11  -2  12    6.15    1.84
  11  -2  12   -2.63    1.60
  12  -2  12    0.74    1.88
  12  -2  12    4.99    2.04
  13  -2  12    2.59    2.18
  13  -2  12   -1.51    2.04
  17   1 -12   -1.85    1.40
 -17  -1  12    3.97    2.26
  16   1 -12   -1.40    1.41
 -16  -1  12    1.37    2.02
  15   1 -12   -1.98    1.09
 -15  -1  12    2.19    1.62
  14   1 -12   -0.76    1.13
 -14  -1  12    1.48    1.55
  13   1 -12    2.92    1.20
 -13  -1  12    7.08    1.70
  12   1 -12    1.87    0.95
 -12  -1  12    4.30    1.31
  11   1 -12    2.87    1.00
 -11  -1  12    5.37    1.42
  10   1 -12    0.22    0.94
 -10  -1  12    0.46    1.11
   9   1 -12    0.35    0.89
  -9  -1  12    1.99    1.15
   8   1 -12   13.33    2.06
  -8  -1  12   13.00    1.77
   7   1 -12   14.03    1.96
  -7  -1  12   13.21    1.71
  -6  -1  12    0.65    1.06
  -4  -1  12    0.68    0.76
  -4  -1  12    0.47    0.79
  -3  -1  12    0.98    0.69
  -3  -1  12    1.87    0.86
  -2  -1  12    5.99    0.93
  -2  -1  12    5.07    1.04
  -1  -1  12    6.29    0.91
  -1  -1  12    7.55    1.20
   0  -1  12    1.69    0.74
   0  -1  12   -0.23    0.94
   1  -1  12    1.83    0.85
   2  -1  12    3.73    1.10
   3  -1  12    7.64    1.31
   4  -1  12    0.14    1.20
   5  -1  12   10.98    1.68
   6  -1  12   -0.02    1.22
   7  -1  12    0.80    1.27
   7  -1  12    1.67    1.32
   8  -1  12    4.60    1.51
   8  -1  12    6.58    1.71
   9  -1  12    3.40    1.62
   9  -1  12    0.89    1.36
  10  -1  12    0.63    1.64
  10  -1  12   -1.10    1.48
  11  -1  12    2.38    1.72
  11  -1  12    1.16    1.62
  12  -1  12    6.12    2.05
  12  -1  12    3.62    2.07
  13  -1  12   -1.02    2.05
  17   0 -12   -1.26    1.36
 -17   0  12    2.35    2.06
  16   0 -12   -0.13    1.18
 -16   0  12   -0.80    1.76
  15   0 -12   -0.43    1.07
 -15   0  12    0.33    1.61
  14   0 -12    0.17    1.13
 -14   0  12    0.12    1.50
  13   0 -12    0.89    0.97
 -13   0  12    1.37    1.40
  12   0 -12    0.66    0.91
 -12   0  12    0.16    1.15
  11   0 -12   12.12    2.08
 -11   0  12    9.95    1.56
  10   0 -12    2.62    1.05
 -10   0  12    6.61    1.36
   9   0 -12    5.92    1.02
  -9   0  12    6.66    1.42
   8   0 -12    0.33    0.89
  -8   0  12   -0.54    0.98
  -7   0  12    1.39    1.03
  -6   0  12   -1.14    0.94
  -5   0  12    6.50    0.97
  -4   0  12    0.36    0.75
  -4   0  12    0.13    0.80
  -3   0  12    0.02    0.82
  -3   0  12    0.06    0.55
  -2   0  12    6.05    0.88
  -2   0  12    6.63    1.10
  -1   0  12   13.02    1.47
  -1   0  12   13.98    1.23
   0   0  12   -0.28    0.77
   0   0  12    0.98    0.76
   1   0  12    6.74    1.14
   1   0  12    8.19    1.29
   2   0  12    0.81    1.12
   2   0  12    1.73    1.11
   3   0  12    1.98    1.27
   3   0  12    3.30    1.20
   4   0  12    1.38    1.19
   4   0  12   -0.18    1.14
   5   0  12   -0.69    1.23
   5   0  12    0.46    1.16
   6   0  12    0.66    1.24
   6   0  12   -0.18    1.26
   7   0  12    0.73    1.32
   7   0  12    0.74    1.35
   8   0  12    6.45    1.56
   8   0  12    6.63    1.82
   9   0  12    1.06    1.43
   9   0  12    1.26    1.49
  10   0  12    0.75    1.56
  10   0  12    2.26    1.59
  11   0  12    4.18    1.82
  11   0  12   -1.26    1.72
  12   0  12    1.59    2.05
  12   0  12    3.92    2.04
  13   0  12   -2.91    2.19
  18  -1 -12   -0.79    1.52
  17  -1 -12    0.11    1.36
 -17   1  12    2.86    2.00
  16  -1 -12    0.73    1.27
 -16   1  12    2.07    1.83
  15  -1 -12    0.80    1.19
 -15   1  12    2.10    1.65
  14  -1 -12    0.08    1.05
 -14   1  12    0.11    1.48
  13  -1 -12   -0.46    0.90
 -13   1  12    2.03    1.35
  12  -1 -12   -0.46    0.87
 -12   1  12    0.52    1.19
  11  -1 -12    0.37    0.83
 -11   1  12    0.50    1.08
  10  -1 -12    2.03    0.92
 -10   1  12    1.74    1.23
   9  -1 -12    7.50    1.20
  -9   1  12   10.53    1.70
  -8   1  12    1.25    1.01
  -7   1  12   -1.01    0.94
  -6   1  12    5.31    0.97
  -6   1  12    3.15    1.08
  -5   1  12    4.57    1.10
  -4   1  12    0.63    0.65
  -4   1  12    0.46    0.90
  -3   1  12    7.28    1.04
  -3   1  12    8.84    1.18
  -2   1  12    6.86    1.10
  -2   1  12    6.33    1.09
  -1   1  12    0.33    0.76
  -1   1  12    0.31    0.85
   0   1  12    1.36    0.90
   0   1  12   -0.20    0.80
   1   1  12    7.81    1.20
   2   1  12    0.67    1.11
   2   1  12    2.11    1.18
   3   1  12    4.18    1.28
   3   1  12    3.50    1.19
   4   1  12    1.04    1.25
   4   1  12    2.00    1.26
   5   1  12    2.48    1.27
   5   1  12    1.33    1.27
   6   1  12    1.64    1.25
   6   1  12    1.33    1.35
   7   1  12    3.90    1.56
   7   1  12    3.22    1.39
   8   1  12    0.00    1.40
   8   1  12    1.03    1.49
   9   1  12   -1.12    1.46
   9   1  12    2.44    1.56
  10   1  12   -1.22    1.62
  10   1  12    1.99    1.60
  11   1  12   -0.51    1.80
  11   1  12    4.76    1.95
  12   1  12    0.46    2.03
  12   1  12   -2.09    2.00
  18  -2 -12    0.71    1.49
  17  -2 -12   -0.06    1.31
 -17   2  12    3.30    2.03
  16  -2 -12    1.23    1.24
 -16   2  12    2.25    1.98
  15  -2 -12   -1.10    1.02
 -15   2  12   -0.40    1.61
  14  -2 -12    0.40    1.05
 -14   2  12    2.93    1.53
  13  -2 -12    0.12    0.99
 -13   2  12    2.09    1.34
  12  -2 -12    2.00    0.95
 -12   2  12    1.13    1.24
  11  -2 -12    2.09    0.95
 -11   2  12    1.90    1.17
  10  -2 -12    0.12    0.90
 -10   2  12   -0.52    1.00
  -9   2  12    1.15    1.12
  -8   2  12    2.85    1.13
  -7   2  12    4.07    1.16
  -7   2  12    3.87    1.13
  -6   2  12    6.60    1.08
  -6   2  12    6.43    1.29
  -5   2  12    0.17    0.96
  -5   2  12    0.50    0.65
  -4   2  12   -0.09    1.00
  -4   2  12    1.90    0.82
  -3   2  12    4.49    1.06
  -3   2  12    3.09    0.88
  -2   2  12    2.34    1.00
  -2   2  12    2.31    0.86
  -1   2  12    3.39    0.99
  -1   2  12    3.17    0.94
   0   2  12   -0.59    0.88
   0   2  12    0.42    0.84
   1   2  12    4.16    1.21
   1   2  12    3.33    1.08
   2   2  12    6.20    1.20
   2   2  12    5.12    1.38
   3   2  12   11.20    1.48
   3   2  12   11.70    1.71
   4   2  12    8.77    1.42
   4   2  12    7.29    1.56
   5   2  12    0.86    1.21
   5   2  12    1.41    1.31
   6   2  12    5.16    1.45
   6   2  12    4.90    1.51
   7   2  12    1.51    1.43
   7   2  12    2.75    1.52
   8   2  12   -0.48    1.42
   9   2  12   -1.09    1.43
   9   2  12    0.06    1.60
  10   2  12   -0.73    1.59
  10   2  12    3.16    1.68
  11   2  12   -0.94    1.98
  11   2  12    1.27    1.77
  17  -3 -12   -1.83    1.30
 -17   3  12   -1.55    1.86
  16  -3 -12   -0.51    1.19
 -16   3  12    3.31    1.67
  15  -3 -12   -0.02    1.09
 -15   3  12   -0.26    1.49
  14  -3 -12    1.32    1.05
 -14   3  12    1.61    1.47
  13  -3 -12    1.12    1.01
 -13   3  12    0.77    1.45
  12  -3 -12    0.87    0.98
 -12   3  12    0.95    1.28
 -11   3  12    1.82    1.18
 -10   3  12    9.63    1.47
  -9   3  12    2.75    1.17
  -8   3  12   -0.60    1.02
  -8   3  12    0.18    1.23
  -7   3  12    1.41    1.26
  -7   3  12    1.69    1.08
  -6   3  12    0.15    1.01
  -6   3  12    0.52    0.97
  -5   3  12   -0.64    0.76
  -5   3  12    0.43    1.02
  -4   3  12    1.46    1.26
  -4   3  12    4.19    0.94
  -3   3  12    6.23    1.31
  -3   3  12    4.46    1.11
  -2   3  12    2.68    1.20
  -2   3  12    2.89    1.14
  -1   3  12    4.43    1.18
  -1   3  12    3.79    1.05
   0   3  12    0.03    0.92
   0   3  12    0.62    1.09
   1   3  12    6.92    1.45
   1   3  12    8.22    1.30
   2   3  12    1.21    1.29
   2   3  12    2.40    1.13
   3   3  12    4.21    1.21
   3   3  12    2.12    1.40
   4   3  12    2.11    1.23
   4   3  12    1.55    1.31
   5   3  12    4.93    1.40
   5   3  12    4.15    1.37
   6   3  12    2.53    1.39
   6   3  12    3.29    1.51
   7   3  12    2.00    1.49
   7   3  12    0.36    1.39
   8   3  12   -0.19    1.47
   8   3  12   -0.70    1.58
   9   3  12   -1.52    1.60
  10   3  12   -0.51    1.68
  10   3  12    0.70    1.69
  11   3  12   -2.15    1.98
  12   3  12   -4.61    2.15
  18  -4 -12    3.71    1.61
 -18   4  12    0.91    1.95
  17  -4 -12    2.17    1.41
 -17   4  12   -1.64    1.76
  16  -4 -12    2.09    1.32
 -16   4  12    2.03    1.68
  15  -4 -12    1.61    1.21
 -15   4  12    1.57    1.59
  14  -4 -12    0.39    1.11
 -14   4  12    0.25    1.38
 -13   4  12    1.47    1.23
 -12   4  12    0.90    1.31
 -11   4  12    2.89    1.24
 -10   4  12    2.27    1.21
 -10   4  12    2.35    1.23
  -9   4  12    0.73    1.05
  -9   4  12    0.19    1.27
  -8   4  12   10.65    1.57
  -8   4  12    7.62    1.40
  -7   4  12   -1.30    1.32
  -7   4  12   -1.11    0.97
  -6   4  12    7.26    1.28
  -6   4  12    5.37    1.24
  -5   4  12   10.68    1.39
  -4   4  12   -0.88    0.91
  -4   4  12   -0.31    1.13
  -3   4  12    2.09    1.11
  -3   4  12    0.13    1.53
  -2   4  12   16.50    2.03
  -2   4  12   17.30    1.82
  -1   4  12    6.25    1.45
  -1   4  12    6.09    1.33
   0   4  12    0.35    1.02
   0   4  12    1.29    1.29
   1   4  12    0.00    1.02
   1   4  12   -0.96    1.11
   2   4  12   -0.53    1.23
   2   4  12    1.50    1.12
   3   4  12   -0.24    1.36
   3   4  12    0.04    1.13
   4   4  12    0.11    1.30
   4   4  12    0.46    1.14
   5   4  12    2.21    1.53
   6   4  12   -0.57    1.29
   6   4  12    0.89    1.39
   7   4  12   -0.75    1.50
   7   4  12   -1.26    1.33
   8   4  12   -2.52    1.61
   8   4  12    0.25    1.73
   9   4  12   -1.46    1.81
  10   4  12   -0.42    1.90
  18  -5 -12    0.23    1.66
 -18   5  12   -0.81    1.84
 -17   5  12   -2.72    1.60
 -16   5  12    2.13    1.67
 -15   5  12    3.22    1.62
 -14   5  12    0.69    1.48
 -13   5  12    1.01    1.37
 -12   5  12    0.99    1.20
 -11   5  12    1.77    1.41
 -11   5  12    1.63    1.20
 -10   5  12    0.08    1.20
 -10   5  12    1.00    1.35
  -9   5  12    9.21    1.66
  -9   5  12    6.43    1.38
  -8   5  12    1.34    1.07
  -8   5  12    0.73    1.48
  -7   5  12    5.68    1.59
  -6   5  12    1.36    1.20
  -6   5  12    3.00    1.16
  -5   5  12    1.52    1.24
  -4   5  12    0.55    1.10
  -4   5  12    0.23    1.18
  -3   5  12    1.90    1.13
  -2   5  12    9.09    1.44
  -1   5  12   -1.02    1.12
  -1   5  12    0.90    1.91
   0   5  12    0.63    1.27
   0   5  12   -0.90    1.22
   1   5  12    0.73    1.28
   1   5  12    0.28    1.34
   2   5  12    3.11    1.51
   2   5  12    2.88    1.12
   3   5  12    0.83    1.27
   3   5  12    0.61    1.11
   4   5  12    4.21    1.50
   4   5  12    3.72    1.26
   5   5  12    0.06    1.33
   5   5  12    0.37    1.27
   6   5  12   -0.82    1.54
   7   5  12   -1.91    1.48
   8   5  12   -1.06    1.89
   9   5  12   -2.87    1.61
  10   5  12   -0.81    2.04
 -18   6  12    0.31    1.74
 -17   6  12   -0.37    1.66
 -16   6  12   -1.20    1.67
 -15   6  12    1.52    1.55
 -14   6  12    1.32    1.54
 -13   6  12   -0.20    1.69
 -13   6  12    0.85    1.47
 -12   6  12    4.62    1.70
 -12   6  12    3.54    1.48
 -11   6  12    0.40    1.16
 -11   6  12    1.15    1.50
 -10   6  12    0.42    1.18
 -10   6  12    1.15    1.56
  -9   6  12    2.52    1.27
  -9   6  12    1.73    1.63
  -8   6  12    0.11    1.14
  -8   6  12   -0.97    1.51
  -7   6  12    2.87    1.64
  -7   6  12    2.35    1.18
  -6   6  12    5.44    1.73
  -6   6  12    1.99    1.21
  -4   6  12    3.50    1.47
  -4   6  12    1.86    1.22
  -3   6  12   -0.01    1.37
  -3   6  12   -0.35    1.18
  -2   6  12    1.95    1.72
  -2   6  12    0.95    1.25
  -1   6  12    3.60    1.92
   0   6  12    5.48    2.22
   0   6  12    2.35    1.41
   1   6  12    6.45    1.89
   1   6  12    7.60    1.44
   2   6  12    1.04    1.35
   2   6  12    1.67    1.46
   3   6  12    7.71    1.80
   4   6  12    0.35    1.72
   5   6  12   -0.49    1.53
   6   6  12   -1.05    1.60
   7   6  12    1.04    1.63
   8   6  12   -0.65    1.84
   9   6  12   -1.92    2.19
  10   6  12   -1.65    2.67
 -16   7  12    1.54    1.70
 -15   7  12    0.64    1.72
 -14   7  12    0.48    1.45
 -14   7  12    0.61    1.93
 -13   7  12    1.95    1.49
 -13   7  12    2.27    1.95
 -12   7  12   -0.14    1.33
 -12   7  12    3.14    1.84
 -11   7  12    0.25    1.71
 -11   7  12   -0.64    1.32
 -10   7  12    3.51    1.90
 -10   7  12    3.51    1.30
  -9   7  12   -1.20    1.27
  -8   7  12    1.89    1.30
  -7   7  12    6.18    1.72
  -7   7  12    5.06    1.48
  -6   7  12   -1.01    1.60
  -6   7  12    0.48    1.26
  -5   7  12    4.21    1.41
  -4   7  12    1.89    1.26
  -4   7  12    0.74    1.58
  -3   7  12   -0.15    1.42
  -3   7  12    0.18    1.36
  -2   7  12   -1.25    1.24
  -2   7  12    0.78    1.40
  -1   7  12    0.14    1.29
  -1   7  12   -1.77    1.69
   0   7  12    3.89    1.35
   0   7  12    6.34    2.16
   1   7  12    2.84    2.26
   1   7  12   -1.20    1.36
   2   7  12    4.32    2.53
   3   7  12    1.91    2.50
   4   7  12   -0.39    2.06
   5   7  12    2.12    2.22
   6   7  12    2.06    1.77
   7   7  12    1.18    2.05
   8   7  12    2.22    2.36
 -17   8  12    1.07    1.97
 -16   8  12   -1.36    1.69
 -15   8  12    4.34    2.00
 -15   8  12    0.68    1.69
 -14   8  12   -0.17    1.57
 -14   8  12    1.36    1.98
 -13   8  12    1.04    1.52
 -13   8  12    1.79    1.89
 -12   8  12   -1.07    1.76
 -12   8  12    2.12    1.55
 -11   8  12    6.62    1.88
 -11   8  12    4.12    1.60
 -10   8  12    0.80    1.70
 -10   8  12   -0.88    1.31
  -9   8  12    3.89    1.79
  -9   8  12    1.46    1.33
  -8   8  12    4.16    1.46
  -8   8  12    0.95    1.71
  -7   8  12    4.13    1.71
  -7   8  12    3.76    1.39
  -6   8  12   -1.14    1.55
  -6   8  12    1.38    1.28
  -5   8  12    4.11    1.80
  -5   8  12    6.40    1.52
  -4   8  12   -0.67    1.33
  -4   8  12    0.30    1.46
  -3   8  12   -0.51    1.38
  -3   8  12    0.75    1.57
  -2   8  12    1.20    1.38
  -2   8  12   -0.11    1.55
  -1   8  12    5.54    1.44
  -1   8  12    2.47    1.58
   0   8  12   -2.36    1.85
   0   8  12   -0.16    1.34
   1   8  12    2.71    2.14
   2   8  12    2.44    2.27
   3   8  12    1.61    2.58
   4   8  12    8.51    2.96
   5   8  12    4.98    3.04
   6   8  12    1.92    3.10
   7   8  12    2.52    3.46
 -17   9  12    0.15    1.80
 -16   9  12    0.07    1.85
 -15   9  12    6.24    2.18
 -15   9  12    0.18    1.61
 -14   9  12    1.28    2.03
 -14   9  12    0.32    1.73
 -13   9  12   -2.54    1.50
 -13   9  12   -2.19    2.05
 -12   9  12    1.27    1.96
 -12   9  12    1.04    1.71
 -11   9  12    3.27    1.92
 -11   9  12    1.51    1.48
 -10   9  12    0.27    1.46
 -10   9  12    1.76    1.78
  -9   9  12    3.00    1.85
  -9   9  12    1.95    1.54
  -8   9  12   -0.38    1.47
  -8   9  12    0.45    1.73
  -7   9  12    0.14    1.34
  -7   9  12    0.55    1.72
  -6   9  12    1.71    1.72
  -6   9  12    3.18    1.48
  -5   9  12    0.51    1.91
  -5   9  12    3.70    1.38
  -4   9  12   -0.89    1.40
  -4   9  12    0.21    1.29
  -3   9  12    1.73    1.51
  -3   9  12   -2.77    1.72
  -2   9  12    1.24    1.43
  -2   9  12    2.39    1.82
  -1   9  12   -0.01    1.76
  -1   9  12    1.77    1.46
   0   9  12    1.27    1.75
   1   9  12    1.97    2.25
   2   9  12   -2.76    2.20
   3   9  12   -1.94    2.43
   4   9  12   -2.87    2.62
   5   9  12    1.90    2.64
   6   9  12    1.51    2.95
 -15  10  12    1.80    2.49
 -15  10  12   -0.58    1.84
 -14  10  12    0.53    2.37
 -14  10  12   -0.73    1.75
 -13  10  12   -1.27    2.17
 -13  10  12    0.78    1.70
 -12  10  12    1.46    2.14
 -12  10  12    0.33    1.73
 -11  10  12    4.46    2.01
 -10  10  12   -1.37    1.50
 -10  10  12    3.89    2.01
  -9  10  12    2.90    1.63
  -9  10  12    3.81    2.04
  -8  10  12    1.54    1.57
  -8  10  12    1.13    1.82
  -7  10  12    1.08    1.75
  -7  10  12    0.73    1.58
  -6  10  12    0.26    1.52
  -6  10  12    0.84    1.74
  -5  10  12    0.23    1.85
  -5  10  12    1.88    1.59
  -4  10  12   -2.63    1.89
  -4  10  12   -0.78    1.52
  -3  10  12    1.71    1.56
  -3  10  12    2.46    1.56
  -2  10  12    2.72    1.52
  -2  10  12    2.85    2.03
  -1  10  12   -1.20    1.97
   0  10  12   -1.63    1.77
   1  10  12   -0.94    1.86
   2  10  12    0.32    1.90
   3  10  12    0.40    1.91
   4  10  12   -1.55    2.65
   5  10  12   -5.53    2.73
 -16  11  12   -2.01    1.96
 -16  11  12    2.48    2.84
 -15  11  12   -1.77    1.84
 -15  11  12   -0.09    2.68
 -14  11  12   -1.53    1.85
 -14  11  12    1.47    2.58
 -13  11  12   -2.19    2.41
 -13  11  12   -0.49    1.77
 -12  11  12   -1.50    1.84
 -12  11  12    0.42    2.25
 -11  11  12    2.34    2.20
 -11  11  12    0.13    1.85
 -10  11  12    3.58    2.12
 -10  11  12   -0.67    1.80
  -9  11  12    3.61    2.05
  -9  11  12    0.64    1.79
  -8  11  12   -2.07    1.66
  -8  11  12    2.62    2.14
  -7  11  12   -1.88    1.74
  -7  11  12   -2.97    1.62
  -6  11  12   -1.02    1.87
  -6  11  12   -3.24    1.58
  -5  11  12    0.32    1.93
  -5  11  12   -0.94    1.57
  -4  11  12    0.23    1.82
  -4  11  12    4.11    1.77
  -3  11  12    1.83    1.92
  -3  11  12    2.32    1.73
  -2  11  12   -0.26    1.47
  -2  11  12    0.69    1.65
  -1  11  12    1.93    2.10
   0  11  12   -2.82    2.08
   1  11  12   -0.20    2.14
   3  11  12   -3.17    2.23
   4  11  12   -1.45    2.34
   5  11  12   -1.87    2.37
 -15  12  12    0.99    2.76
 -14  12  12   -0.61    2.80
 -14  12  12   -3.81    1.88
 -13  12  12   -3.54    1.82
 -12  12  12    1.39    2.49
 -12  12  12   -0.65    1.85
 -11  12  12    4.92    2.41
 -11  12  12   -1.06    1.89
 -10  12  12    3.88    2.21
 -10  12  12   -3.41    1.76
  -9  12  12    0.52    2.29
  -9  12  12   -1.35    1.84
  -8  12  12    4.40    2.19
  -8  12  12   -1.99    1.77
  -7  12  12    0.22    2.04
  -7  12  12   -0.70    1.81
  -6  12  12    4.02    2.03
  -6  12  12   -2.61    1.72
  -5  12  12   -0.80    1.69
  -5  12  12    2.19    2.03
  -4  12  12    1.38    1.83
  -4  12  12    2.99    1.96
  -3  12  12   -0.19    2.08
  -3  12  12    3.24    1.82
  -2  12  12    1.98    2.29
  -1  12  12    1.12    1.83
   0  12  12    1.92    2.25
   1  12  12   -2.48    2.37
   2  12  12   -0.69    2.51
   4  12  12    2.20    2.69
 -14  13  12   -1.10    2.93
 -14  13  12   -4.34    2.13
 -13  13  12   -2.81    2.85
 -13  13  12   -3.72    2.11
 -12  13  12    1.12    2.63
 -11  13  12   -4.64    2.15
 -11  13  12    3.83    2.67
 -10  13  12    4.46    2.42
  -9  13  12    1.92    2.45
  -8  13  12    5.53    2.25
  -8  13  12   -4.11    1.92
  -7  13  12   -2.00    1.93
  -7  13  12    2.63    2.05
  -6  13  12   -0.56    2.03
  -5  13  12    1.09    1.85
  -5  13  12    2.31    2.08
  -4  13  12    0.56    2.10
  -3  13  12    1.43    2.03
  -2  13  12   -0.02    1.95
  -1  13  12   -0.15    2.53
   0  13  12    1.64    2.29
   2  13  12   -0.24    2.28
 -12  14  12   -1.28    2.86
 -12  14  12   -0.47    2.42
 -11  14  12    3.24    2.77
 -11  14  12   -0.96    2.28
 -10  14  12    1.34    2.36
 -10  14  12    2.72    2.74
  -9  14  12    1.06    2.58
  -9  14  12    1.31    2.19
  -8  14  12    1.24    2.13
  -8  14  12    2.79    2.37
  -7  14  12    0.33    2.07
  -7  14  12    2.88    2.25
  -6  14  12    0.50    2.11
  -6  14  12    1.04    2.18
  -5  14  12    2.08    2.11
  -4  14  12    1.82    2.12
  -3  14  12   -0.63    2.03
  -2  14  12    1.87    2.27
   0  14  12    0.45    2.98
 -10  15  12    0.54    2.48
 -10  15  12    1.54    2.91
  -9  15  12   -0.09    2.40
  -9  15  12    1.92    2.64
  -8  15  12    3.88    2.47
  -8  15  12    3.55    2.37
  -7  15  12    6.71    2.48
  -7  15  12    1.08    2.45
  -6  15  12    4.67    2.81
  -4  15  12    3.16    2.18
  -3  15  12   -0.30    2.24
  -2 -17  13   -1.19    2.43
   1  17 -13    5.75    2.49
   1  17 -13    4.03    1.95
  -1 -17  13    3.42    2.58
   0  17 -13    2.93    2.44
   0  17 -13   -0.81    1.90
   0 -17  13    6.76    2.58
  -1  17 -13    2.15    2.26
   1 -17  13    0.88    2.36
  -2  17 -13   -0.69    2.20
   2 -17  13    0.69    2.38
   3 -17  13   -1.47    2.21
   4 -17  13    0.38    2.25
   5 -17  13    0.37    2.39
   4  16 -13   -0.53    2.37
   4  16 -13    0.81    1.77
  -4 -16  13   -3.50    2.44
   3  16 -13    2.14    2.20
   3  16 -13   -2.36    1.68
  -3 -16  13    0.52    2.38
   2  16 -13    2.55    2.27
   2  16 -13    0.14    1.55
  -2 -16  13   -0.62    2.26
   1  16 -13    3.53    2.10
   1  16 -13    1.15    1.72
  -1 -16  13   -0.53    2.19
   0  16 -13    1.58    1.74
   0  16 -13    1.38    2.06
   0 -16  13   -0.46    2.19
  -1  16 -13    1.33    2.06
   1 -16  13    3.23    2.26
  -2  16 -13   -0.59    2.05
   2 -16  13    0.20    2.18
   3 -16  13    2.01    2.05
   4 -16  13    1.63    2.09
   5 -16  13   -2.07    2.08
   6 -16  13   -2.02    2.03
   8 -16  13   -0.55    2.14
   6  15 -13    1.62    1.56
  -6 -15  13    4.07    2.35
   5  15 -13    0.25    2.16
   5  15 -13    0.58    1.56
  -5 -15  13   -0.05    2.29
   4  15 -13    0.29    2.04
   4  15 -13    0.20    1.42
  -4 -15  13    3.37    2.26
   3  15 -13    1.53    2.01
   3  15 -13   -2.02    1.35
  -3 -15  13    0.38    2.10
   2  15 -13    2.87    1.94
   2  15 -13   -0.86    1.48
  -2 -15  13    2.99    2.13
   1  15 -13    2.37    1.62
   1  15 -13    1.50    1.90
  -1 -15  13    3.59    2.08
   0  15 -13    1.07    1.59
   0  15 -13    2.69    1.94
   0 -15  13   -0.20    1.91
  -1  15 -13    0.22    1.82
   1 -15  13    2.71    1.93
   2 -15  13   -0.59    1.94
   3 -15  13   -0.25    1.79
   4 -15  13   -1.78    1.81
   5 -15  13   -1.41    1.75
   6 -15  13   -1.02    1.95
   7 -15  13   -1.70    2.00
   8 -15  13   -1.65    1.83
   9 -15  13   -3.55    1.96
   8  14 -13   -0.78    1.80
  -8 -14  13    1.18    2.39
   7  14 -13   -2.39    1.52
  -7 -14  13   -1.63    2.13
   6  14 -13    1.28    2.03
   6  14 -13   -0.87    1.54
  -6 -14  13    2.85    2.12
   5  14 -13   -1.62    1.32
   5  14 -13    1.39    1.93
  -5 -14  13   -1.72    2.03
   4  14 -13   -0.21    1.31
   4  14 -13    3.15    1.85
  -4 -14  13    3.52    2.08
   3  14 -13    4.05    1.81
  -3 -14  13    2.45    1.98
   2  14 -13   -0.10    1.29
   2  14 -13    0.10    1.72
  -2 -14  13    1.51    1.90
   1  14 -13    0.81    1.70
   1  14 -13    1.08    1.34
  -1 -14  13    4.63    1.86
   0  14 -13    1.59    1.67
   0  14 -13    1.91    1.44
   0 -14  13   -1.25    1.79
   1 -14  13   -0.58    1.81
   2 -14  13    1.03    1.86
   3 -14  13    1.24    1.70
   4 -14  13   -0.45    1.76
   5 -14  13   -0.81    1.66
   6 -14  13    2.36    1.96
   7 -14  13   -1.20    1.68
   8 -14  13   -0.33    1.94
   9 -14  13   -2.06    1.92
  10 -14  13   -2.30    2.16
  -9 -13  13    2.52    2.37
   8  13 -13   -1.94    1.42
  -8 -13  13    0.69    2.20
   7  13 -13   -2.61    1.25
  -7 -13  13   -2.90    1.74
   6  13 -13    2.78    1.84
   6  13 -13   -0.02    1.24
  -6 -13  13    1.84    1.94
   5  13 -13    3.77    1.38
   5  13 -13    7.25    1.94
  -5 -13  13    3.57    1.99
   4  13 -13   -0.29    1.17
   4  13 -13    1.54    1.58
  -4 -13  13    0.24    1.85
   3  13 -13    0.68    1.57
   3  13 -13   -0.77    1.24
  -3 -13  13   -0.60    1.74
   2  13 -13    1.41    1.59
   2  13 -13   -0.35    1.17
  -2 -13  13    0.93    1.74
   1  13 -13    0.38    1.60
   1  13 -13    1.43    1.20
  -1 -13  13    4.21    1.82
   0 -13  13   -0.17    1.69
   1 -13  13    0.70    1.82
   2 -13  13    3.31    1.75
   3 -13  13    1.03    1.59
   4 -13  13    0.50    1.66
   5 -13  13    0.61    1.67
   6 -13  13   -0.57    1.88
   7 -13  13   -0.13    1.79
   9 -13  13   -1.43    1.91
  10 -13  13   -0.47    1.99
  11 -13  13   -1.43    2.08
 -10 -12  13    2.78    2.33
   9  12 -13   -1.57    1.35
  -9 -12  13    3.13    2.19
   8  12 -13   -2.12    1.21
  -8 -12  13    1.40    2.05
   7  12 -13   -0.41    1.93
   7  12 -13   -1.57    1.15
   6  12 -13   -0.45    1.23
  -6 -12  13   -0.28    1.75
   5  12 -13    2.82    1.27
   5  12 -13    4.37    1.57
  -5 -12  13    4.53    1.89
   4  12 -13    0.56    1.14
   4  12 -13   -0.90    1.43
  -4 -12  13    0.09    1.63
   3  12 -13    1.49    1.26
   3  12 -13    4.73    1.57
  -3 -12  13    3.87    1.72
   2  12 -13    0.21    1.12
  -2 -12  13    1.37    1.63
   1  12 -13    1.05    1.25
  -1 -12  13    3.00    1.63
   0 -12  13    2.14    1.61
   1 -12  13    7.78    1.81
   2 -12  13    2.62    1.58
   3 -12  13   -1.79    1.50
   4 -12  13   -1.33    1.45
   5 -12  13    0.70    1.72
   6 -12  13   -1.24    1.50
   7 -12  13    0.74    1.67
   8 -12  13   -2.94    1.54
   9 -12  13   -1.30    1.71
  10 -12  13    0.00    1.88
  12 -12  13    0.47    2.18
 -11 -11  13    0.19    2.23
  10  11 -13   -1.94    1.34
 -10 -11  13    2.70    2.13
   9  11 -13    0.06    1.30
  -9 -11  13    0.12    1.92
   8  11 -13   -1.62    1.16
  -8 -11  13    2.26    1.94
   7  11 -13   -0.59    1.19
  -7 -11  13   -0.45    1.67
   6  11 -13    0.27    1.05
  -6 -11  13    5.26    1.76
   5  11 -13   -0.46    1.14
  -5 -11  13   -1.63    1.52
   4  11 -13   -0.37    0.99
  -4 -11  13   -0.54    1.52
   3  11 -13    5.68    1.26
   2  11 -13    2.14    1.05
  -2 -11  13    3.95    1.61
   1  11 -13   -0.42    1.07
  -1 -11  13   -0.12    1.49
   0 -11  13    1.05    1.52
   1 -11  13    0.17    1.35
   2 -11  13   -0.45    1.44
   3 -11  13    1.31    1.49
   4 -11  13    0.35    1.58
   5 -11  13   -0.35    1.52
   6 -11  13    0.29    1.41
   7 -11  13    0.43    1.58
   8 -11  13    0.21    1.54
   9 -11  13   -0.11    1.58
  10 -11  13    1.14    1.85
  11 -11  13   -0.43    2.11
  12 -11  13    2.15    2.51
  12  10 -13   -1.61    1.41
 -12 -10  13    3.26    2.40
  11  10 -13   -1.56    1.35
 -11 -10  13    4.03    2.10
  10  10 -13   -0.93    1.24
 -10 -10  13    3.82    1.93
   9  10 -13   -1.02    1.09
  -9 -10  13    1.65    1.80
   8  10 -13   -0.64    1.11
  -8 -10  13    3.03    1.81
   7  10 -13    0.45    1.03
  -7 -10  13    3.16    1.65
   6  10 -13    1.83    1.09
  -6 -10  13   -0.11    1.56
   5  10 -13   -0.92    0.90
  -5 -10  13   -0.23    1.52
   4  10 -13    2.22    1.11
  -4 -10  13    3.49    1.52
   3  10 -13   -0.81    0.86
  -3 -10  13   -0.13    1.33
   2  10 -13    4.96    1.21
  -2 -10  13    6.16    1.68
   1  10 -13    1.39    1.11
  -1 -10  13    0.45    1.39
   0 -10  13    3.77    1.50
   1 -10  13   -0.43    1.32
   2 -10  13   -0.05    1.32
   3 -10  13    1.96    1.44
   4 -10  13    0.76    1.47
   5 -10  13   -0.76    1.43
   6 -10  13    2.59    1.47
   7 -10  13    3.85    1.80
   8 -10  13   -2.27    1.46
   9 -10  13   -0.60    1.50
  10 -10  13    1.72    1.87
  11 -10  13   -2.03    1.82
  12 -10  13    1.23    2.15
 -13  -9  13    2.38    2.27
 -12  -9  13    1.39    2.23
  11   9 -13   -1.17    1.23
 -11  -9  13    3.14    1.93
  10   9 -13    0.43    1.20
 -10  -9  13    3.31    1.77
   9   9 -13   -0.46    1.05
  -9  -9  13    1.63    1.66
   8   9 -13   -0.93    1.00
  -8  -9  13    1.86    1.56
   7   9 -13    0.90    1.09
  -7  -9  13    1.75    1.55
   6   9 -13   -0.27    0.91
  -6  -9  13   -0.38    1.37
   5   9 -13    1.16    0.95
  -5  -9  13    2.65    1.35
   4   9 -13    6.12    1.12
  -4  -9  13   11.18    1.74
   3   9 -13   -0.75    0.90
  -3  -9  13    0.57    1.26
   2   9 -13    0.81    1.05
  -2  -9  13    1.53    1.40
  -1  -9  13    0.28    1.29
   0  -9  13    8.48    1.67
   1  -9  13    1.71    1.31
   2  -9  13    1.39    1.35
   3  -9  13   -0.84    1.29
   4  -9  13   -0.09    1.39
   5  -9  13    2.65    1.57
   6  -9  13    2.60    1.45
   7  -9  13   -0.88    1.44
   8  -9  13   -0.65    1.51
   9  -9  13    0.37    1.66
  10  -9  13   -0.16    1.81
  11  -9  13    1.96    2.00
  12  -9  13    2.52    2.12
 -14  -8  13    4.36    2.44
  13   8 -13   -2.41    1.35
 -13  -8  13    3.34    2.05
  12   8 -13   -1.74    1.19
 -12  -8  13    2.46    2.09
  11   8 -13   -1.63    1.07
 -11  -8  13    2.08    1.85
  10   8 -13    0.37    1.12
 -10  -8  13    0.97    1.62
   9   8 -13   -0.01    1.16
  -9  -8  13    1.21    1.49
   8   8 -13    0.02    1.06
  -8  -8  13    2.47    1.55
   7   8 -13    0.30    0.95
  -7  -8  13   -0.46    1.35
   6   8 -13    0.86    0.89
  -6  -8  13    0.66    1.29
   5   8 -13    0.68    0.91
  -5  -8  13   -0.24    1.31
   4   8 -13    0.69    0.87
  -4  -8  13    2.04    1.34
   3   8 -13    0.93    0.86
  -3  -8  13    1.06    1.26
   2   8 -13    4.24    1.09
  -2  -8  13    6.43    1.58
  -1  -8  13    3.67    1.54
   0  -8  13    2.62    1.40
   1  -8  13    0.55    1.33
   2  -8  13    1.19    1.37
   3  -8  13   -0.28    1.29
   4  -8  13    5.03    1.58
   5  -8  13   -1.33    1.37
   6  -8  13    0.66    1.25
   7  -8  13   -2.86    1.45
   8  -8  13    0.52    1.53
   9  -8  13    1.26    1.58
  10  -8  13    2.88    1.77
  11  -8  13   -0.25    1.95
  12  -8  13    0.70    2.05
  13  -8  13    1.62    2.30
  14   7 -13   -1.86    1.37
 -14  -7  13    2.39    2.26
  13   7 -13   -2.12    1.26
 -13  -7  13    4.40    2.02
  12   7 -13   -0.64    1.15
 -12  -7  13    3.03    1.94
  11   7 -13    1.08    1.22
 -11  -7  13    1.79    1.75
  10   7 -13   -0.11    1.08
 -10  -7  13   -0.09    1.50
   9   7 -13    5.25    1.29
  -9  -7  13    8.34    1.76
   8   7 -13    0.68    0.94
  -8  -7  13    0.23    1.35
   7   7 -13    0.43    0.80
  -7  -7  13   -0.46    1.29
   6   7 -13    0.73    0.81
  -6  -7  13    1.81    1.37
   5   7 -13   -0.32    0.79
  -5  -7  13   -2.18    1.20
   4   7 -13   -0.13    0.93
  -4  -7  13   -0.18    1.24
   3   7 -13    1.53    0.94
  -3  -7  13    2.83    1.29
  -2  -7  13   14.81    1.92
  -1  -7  13   -0.61    1.35
   0  -7  13    2.48    1.43
   1  -7  13    4.42    1.46
   2  -7  13    0.33    1.27
   3  -7  13    0.28    1.29
   4  -7  13   10.51    1.92
   5  -7  13    1.97    1.40
   6  -7  13   -1.11    1.13
   7  -7  13    1.15    1.40
   8  -7  13    0.89    1.52
   9  -7  13    0.15    1.52
  10  -7  13    1.79    1.63
  11  -7  13    1.42    1.88
  12  -7  13   -0.52    2.07
  13  -7  13    0.44    2.27
 -15  -6  13    6.21    2.46
  14   6 -13   -0.71    1.28
 -14  -6  13    2.96    2.15
  13   6 -13    0.05    1.19
 -13  -6  13    4.78    1.92
  12   6 -13   -0.24    1.16
 -12  -6  13    2.08    1.87
  11   6 -13   -0.97    1.01
 -11  -6  13    1.70    1.65
  10   6 -13    0.11    1.04
 -10  -6  13    3.31    1.47
   9   6 -13    1.33    1.00
  -9  -6  13    3.07    1.45
   8   6 -13    0.56    0.87
  -8  -6  13    2.70    1.40
   7   6 -13   -0.44    0.81
  -7  -6  13   -0.67    1.20
   6   6 -13    0.91    0.91
  -6  -6  13   -0.31    1.26
   5   6 -13    0.36    0.86
  -5  -6  13   -0.33    1.19
   4   6 -13   12.67    2.07
  -4  -6  13    9.49    1.59
   3   6 -13    2.94    0.95
  -3  -6  13    4.07    1.31
  -2  -6  13   -0.21    1.17
  -1  -6  13    0.81    1.26
   0  -6  13    2.31    1.43
   1  -6  13    6.42    1.58
   2  -6  13   -0.62    1.22
   3  -6  13    7.93    1.64
   4  -6  13    3.78    1.39
   5  -6  13    1.86    1.55
   6  -6  13    0.31    1.33
   7  -6  13    2.20    1.55
   8  -6  13   -0.17    1.49
   9  -6  13   -0.43    1.45
  10  -6  13    1.43    1.67
  11  -6  13    0.51    1.71
  12  -6  13    0.49    1.82
  13  -6  13   -0.69    2.16
  16   5 -13    1.68    1.69
 -16  -5  13    4.25    2.38
  15   5 -13   -2.47    1.38
 -15  -5  13    3.82    2.23
  14   5 -13    0.44    1.24
 -14  -5  13    4.39    1.94
  13   5 -13   -0.32    1.13
 -13  -5  13    1.69    1.68
  12   5 -13   -1.97    1.00
 -12  -5  13    2.07    1.68
  11   5 -13    0.14    1.04
 -11  -5  13    3.51    1.60
  10   5 -13    3.99    1.23
 -10  -5  13    7.19    1.60
   9   5 -13   -0.40    0.82
  -9  -5  13   -0.39    1.29
   8   5 -13   -0.19    0.77
  -8  -5  13    1.87    1.33
   7   5 -13    1.31    0.83
  -7  -5  13   -0.09    1.26
   6   5 -13    0.12    0.84
  -6  -5  13    2.72    1.22
   5   5 -13    1.94    0.94
  -5  -5  13   -0.41    1.10
   4   5 -13    1.80    0.86
  -4  -5  13    1.41    1.19
  -3  -5  13    7.74    1.41
  -2  -5  13    0.97    1.29
  -1  -5  13    3.57    1.33
   0  -5  13    1.82    1.28
   1  -5  13    0.16    1.22
   2  -5  13   -0.22    1.26
   3  -5  13    7.71    1.60
   4  -5  13   -0.33    1.26
   5  -5  13    0.10    1.43
   6  -5  13   -0.83    1.26
   7  -5  13   -0.45    1.18
   8  -5  13    0.09    1.42
   9  -5  13   -0.46    1.45
  10  -5  13    2.07    1.64
  11  -5  13   -0.68    1.77
  12  -5  13    1.25    1.87
  13  -5  13    2.08    2.32
  16   4 -13   -1.07    1.50
 -16  -4  13    2.58    2.32
  15   4 -13   -1.64    1.38
 -15  -4  13    3.75    2.18
  14   4 -13    1.66    1.36
 -14  -4  13    4.57    2.02
  13   4 -13   -1.37    1.10
 -13  -4  13    3.26    1.63
  12   4 -13   -0.77    1.13
 -12  -4  13    1.12    1.55
  11   4 -13   -0.79    0.93
 -11  -4  13    1.54    1.42
  10   4 -13    2.16    0.98
 -10  -4  13    4.25    1.41
   9   4 -13    0.06    0.87
  -9  -4  13    2.81    1.33
   8   4 -13    2.77    1.05
  -8  -4  13    1.54    1.25
   7   4 -13    1.81    0.92
  -7  -4  13    1.11    1.26
   6   4 -13    1.15    0.81
  -6  -4  13    0.47    1.31
   5   4 -13    1.23    0.82
  -5  -4  13    1.07    1.14
  -4  -4  13    3.74    1.17
  -4  -4  13    3.50    1.21
  -3  -4  13   -0.86    1.05
  -2  -4  13    4.79    1.29
  -1  -4  13   11.30    1.84
   0  -4  13   -0.08    1.17
   1  -4  13   -0.53    1.23
   2  -4  13   10.50    1.53
   3  -4  13    1.65    1.32
   4  -4  13    1.11    1.31
   5  -4  13    1.83    1.33
   6  -4  13    1.50    1.47
   7  -4  13    2.88    1.40
   8  -4  13    3.81    1.54
   9  -4  13   -1.11    1.50
  10  -4  13   -1.63    1.63
  11  -4  13    0.51    1.80
  12  -4  13   -2.08    1.91
  13  -4  13   -1.67    2.05
  16   3 -13   -1.11    1.36
 -16  -3  13    2.17    2.18
  15   3 -13   -1.44    1.33
 -15  -3  13    2.02    1.86
 -14  -3  13    1.15    1.81
  13   3 -13   -1.83    0.95
 -13  -3  13    0.73    1.47
  12   3 -13   -0.19    0.90
 -12  -3  13    0.56    1.35
  11   3 -13    0.76    0.96
 -11  -3  13    1.02    1.25
  10   3 -13    0.15    0.84
 -10  -3  13    2.70    1.30
   9   3 -13   -0.46    0.86
  -9  -3  13    0.43    1.23
   8   3 -13    3.22    1.06
  -8  -3  13    4.17    1.44
   7   3 -13    0.91    0.86
  -7  -3  13    0.73    1.26
   6   3 -13    5.87    0.99
  -6  -3  13   10.54    1.88
   5   3 -13    1.12    0.92
  -5  -3  13    0.03    1.01
  -4  -3  13    0.57    1.06
  -4  -3  13   -1.29    0.99
  -3  -3  13    6.15    1.37
  -2  -3  13   15.65    1.84
  -1  -3  13    4.44    1.27
   0  -3  13    0.95    1.18
   1  -3  13    1.91    1.27
   2  -3  13    7.44    1.54
   3  -3  13    0.79    1.20
   4  -3  13    4.30    1.41
   5  -3  13   -0.04    1.29
   6  -3  13   -0.43    1.24
   7  -3  13    3.57    1.44
   8  -3  13    4.44    1.56
   9  -3  13    0.99    1.51
  10  -3  13    1.71    1.73
  11  -3  13   -1.45    1.78
  12  -3  13   -0.10    1.89
  12  -3  13    4.79    2.03
  13  -3  13   -2.83    2.16
  13  -3  13    3.63    2.33
  17   2 -13   -0.91    1.48
 -17  -2  13   -0.28    2.36
  16   2 -13   -0.01    1.29
 -16  -2  13    3.85    2.12
  15   2 -13   -1.38    1.17
 -15  -2  13    0.11    1.78
  14   2 -13   -0.94    1.05
 -14  -2  13    0.73    1.69
  13   2 -13    0.06    1.02
 -13  -2  13    0.21    1.45
  12   2 -13   -0.37    0.94
 -12  -2  13   -0.96    1.25
  11   2 -13    0.18    0.90
 -11  -2  13    1.24    1.26
  10   2 -13    2.43    0.96
 -10  -2  13    2.38    1.24
   9   2 -13   12.39    2.09
  -9  -2  13   14.91    1.94
   8   2 -13    1.70    0.96
  -8  -2  13    2.44    1.31
   7   2 -13    5.56    1.09
  -7  -2  13   10.11    1.64
   6   2 -13    3.67    0.98
  -6  -2  13    2.52    1.41
  -5  -2  13   -0.21    0.99
  -5  -2  13    2.10    0.86
  -4  -2  13    1.25    0.93
  -4  -2  13    0.27    1.06
  -3  -2  13    7.91    1.34
  -3  -2  13    8.50    1.20
  -2  -2  13    6.93    1.41
  -2  -2  13    7.66    1.23
   1  -2  13   10.31    1.63
   2  -2  13    0.40    1.20
   3  -2  13    0.54    1.22
   4  -2  13    3.97    1.36
   5  -2  13   -0.07    1.34
   6  -2  13    2.31    1.35
   7  -2  13    9.39    1.67
   8  -2  13    1.00    1.41
   9  -2  13   -1.37    1.51
  10  -2  13    4.78    1.84
  10  -2  13    0.91    1.69
  11  -2  13    2.01    1.82
  11  -2  13   -2.03    1.67
  12  -2  13    0.54    1.89
  12  -2  13   -1.55    1.88
  13  -2  13    3.85    2.26
  13  -2  13    4.43    2.28
  17   1 -13   -0.41    1.47
 -17  -1  13    0.38    2.12
  16   1 -13   -0.14    1.22
 -16  -1  13   -0.13    1.94
  15   1 -13   -0.59    1.15
 -15  -1  13   -0.22    1.74
  14   1 -13   -0.30    1.08
 -14  -1  13    1.11    1.56
  13   1 -13    0.09    1.09
 -13  -1  13    2.12    1.47
  12   1 -13    0.85    1.01
 -12  -1  13    0.93    1.26
  11   1 -13    0.31    0.86
 -11  -1  13    1.87    1.21
  10   1 -13    4.11    1.04
   9   1 -13    7.04    1.15
  -9  -1  13    8.48    1.42
   8   1 -13    3.48    0.93
  -8  -1  13    2.59    1.22
   7   1 -13    3.90    0.98
  -7  -1  13    5.92    1.45
  -6  -1  13   14.17    1.84
  -5  -1  13    1.05    1.38
  -5  -1  13    0.46    0.85
  -4  -1  13    2.92    1.15
  -4  -1  13    4.87    1.02
  -3  -1  13    8.87    1.48
  -2  -1  13   -0.32    0.93
  -1  -1  13    0.33    0.93
   0  -1  13    6.87    1.29
   0  -1  13    6.72    1.27
   2  -1  13    1.38    1.10
   3  -1  13   12.81    2.04
   3  -1  13   13.55    2.07
   4  -1  13   -0.50    1.22
   4  -1  13    0.90    1.30
   5  -1  13    3.58    1.36
   5  -1  13    6.22    1.51
   6  -1  13    0.99    1.25
   6  -1  13    2.55    1.39
   7  -1  13    1.25    1.34
   7  -1  13    0.16    1.30
   8  -1  13    0.80    1.43
   8  -1  13   -0.31    1.42
   9  -1  13    0.85    1.59
   9  -1  13   -1.23    1.55
  10  -1  13    1.79    1.74
  10  -1  13    1.36    1.63
  11  -1  13   -0.52    1.85
  11  -1  13    2.17    1.88
  12  -1  13    0.32    2.08
  12  -1  13    1.08    1.89
  17   0 -13   -0.21    1.44
 -17   0  13    4.36    2.08
  16   0 -13   -0.95    1.30
 -16   0  13    1.14    1.89
  15   0 -13   -0.08    1.12
 -15   0  13   -0.36    1.67
  14   0 -13    0.67    1.12
 -14   0  13    3.36    1.60
  13   0 -13    2.13    1.04
 -13   0  13    3.88    1.54
  12   0 -13   -1.17    0.86
 -12   0  13    1.16    1.21
  11   0 -13    3.96    1.09
 -11   0  13    6.94    1.42
  10   0 -13    1.34    0.85
 -10   0  13    1.58    1.23
   9   0 -13   -0.25    0.93
  -9   0  13    0.73    1.07
   8   0 -13    7.13    1.12
  -8   0  13    9.28    1.41
  -7   0  13    8.60    1.35
  -6   0  13   10.05    1.61
  -5   0  13    1.63    0.97
  -5   0  13   -0.35    1.18
  -4   0  13    5.78    1.11
  -4   0  13    3.92    1.11
  -3   0  13    7.53    1.19
  -2   0  13    0.82    0.96
  -2   0  13   -0.13    0.65
  -1   0  13    8.08    1.29
  -1   0  13    9.39    1.31
   0   0  13    5.39    1.17
   0   0  13    5.67    1.08
   1   0  13    0.48    1.08
   1   0  13   -0.85    1.04
   2   0  13    3.92    1.24
   2   0  13    3.95    1.35
   3   0  13    3.33    1.46
   4   0  13   -0.37    1.19
   5   0  13    2.30    1.31
   5   0  13   -0.80    1.18
   6   0  13    5.06    1.62
   6   0  13    2.90    1.37
   7   0  13    0.63    1.34
   7   0  13    0.93    1.43
   8   0  13    1.95    1.44
   8   0  13    1.80    1.50
   9   0  13    2.59    1.66
   9   0  13   -0.05    1.61
  10   0  13   -0.44    1.68
  10   0  13    3.56    1.63
  11   0  13   -1.48    1.93
  11   0  13   -0.74    1.65
  12   0  13    0.30    2.13
  17  -1 -13    0.46    1.38
 -17   1  13    0.04    1.98
  16  -1 -13    0.53    1.26
 -16   1  13   -0.31    1.78
  15  -1 -13   -0.35    1.15
 -15   1  13    2.97    1.71
  14  -1 -13    0.16    1.09
 -14   1  13    4.17    1.52
  13  -1 -13   -0.43    1.06
 -13   1  13    0.98    1.35
  12  -1 -13   -0.43    0.93
 -12   1  13   -0.59    1.10
  11  -1 -13    4.42    1.12
 -11   1  13    4.57    1.32
  10  -1 -13    1.58    0.96
 -10   1  13    3.38    1.22
  -9   1  13    2.91    1.20
  -8   1  13    2.16    1.13
  -7   1  13   -0.06    1.09
  -6   1  13    1.36    0.98
  -6   1  13   -1.50    1.04
  -5   1  13   -0.19    1.08
  -4   1  13    9.29    1.60
  -3   1  13    0.38    0.79
  -3   1  13   -0.13    1.00
  -2   1  13    3.70    1.13
  -2   1  13    2.56    0.89
  -1   1  13    7.70    1.28
  -1   1  13    8.71    1.36
   0   1  13    0.24    0.99
   1   1  13    0.17    1.01
   1   1  13   -0.25    1.06
   2   1  13   11.38    1.85
   2   1  13   10.34    1.57
   3   1  13   12.76    1.94
   3   1  13    9.95    1.61
   4   1  13    5.18    1.45
   4   1  13    6.58    1.47
   5   1  13    1.52    1.24
   6   1  13    0.34    1.38
   6   1  13    0.12    1.26
   7   1  13    1.61    1.39
   7   1  13    1.33    1.42
   8   1  13    3.91    1.56
   8   1  13    2.20    1.52
   9   1  13   -0.03    1.56
   9   1  13   -0.18    1.63
  10   1  13    1.28    1.81
  10   1  13    2.57    1.82
  11   1  13    1.81    1.93
  11   1  13    1.02    2.06
  12   1  13   -2.68    2.10
  12   1  13   -0.75    2.23
 -18   2  13   -0.97    1.99
 -17   2  13    1.36    1.96
  16  -2 -13   -2.46    1.22
 -16   2  13    0.80    1.76
  15  -2 -13    1.02    1.17
 -15   2  13    1.83    1.60
  14  -2 -13    1.49    1.14
 -14   2  13   -0.30    1.42
  13  -2 -13    0.12    1.01
 -13   2  13    0.71    1.35
  12  -2 -13    2.02    1.07
 -12   2  13    1.46    1.24
  11  -2 -13    1.64    0.96
 -11   2  13    3.04    1.18
 -10   2  13    3.18    1.30
  -9   2  13    1.10    1.14
  -8   2  13   17.09    2.00
  -7   2  13    1.06    1.13
  -7   2  13    0.89    1.33
  -6   2  13    5.60    1.30
  -6   2  13    6.45    1.23
  -5   2  13    2.43    1.20
  -5   2  13    3.76    1.12
  -4   2  13    2.14    1.16
  -3   2  13    0.02    1.10
  -2   2  13    0.58    0.96
  -2   2  13    0.77    1.05
  -1   2  13    0.99    1.04
  -1   2  13   -0.50    0.94
   0   2  13   -0.73    1.07
   0   2  13    0.14    1.03
   1   2  13    9.60    1.39
   1   2  13    8.78    1.49
   2   2  13    4.89    1.30
   2   2  13    3.66    1.43
   3   2  13    0.03    1.24
   3   2  13    0.14    1.20
   4   2  13    5.96    1.46
   4   2  13    6.95    1.45
   5   2  13    1.06    1.30
   5   2  13    0.64    1.28
   6   2  13    1.09    1.48
   7   2  13    1.77    1.43
   7   2  13    3.90    1.44
   8   2  13    0.60    1.46
   8   2  13    0.83    1.46
   9   2  13    1.32    1.67
   9   2  13    0.41    1.66
  10   2  13   -0.09    1.87
  10   2  13    3.15    1.76
  11   2  13    4.04    2.19
  18  -3 -13    1.51    1.57
 -18   3  13   -2.41    2.02
  17  -3 -13    2.05    1.48
 -17   3  13    2.59    1.94
  16  -3 -13    2.50    1.35
 -16   3  13    0.97    1.75
  15  -3 -13    0.37    1.22
 -15   3  13    1.31    1.58
  14  -3 -13    1.55    1.23
 -14   3  13    1.56    1.41
  13  -3 -13    2.01    1.10
 -13   3  13    2.10    1.34
 -12   3  13    3.52    1.40
 -11   3  13    0.76    1.16
 -10   3  13   -0.52    1.08
  -9   3  13    2.83    1.21
  -8   3  13   -0.93    1.37
  -8   3  13    0.25    1.03
  -7   3  13    1.26    1.09
  -7   3  13   -0.84    1.39
  -6   3  13   17.16    1.90
  -6   3  13   18.95    1.86
  -5   3  13    4.29    1.31
  -5   3  13    4.55    1.29
  -4   3  13   -1.10    1.38
  -3   3  13    1.74    1.18
  -3   3  13    4.26    1.24
  -2   3  13    0.25    1.07
  -2   3  13   -0.18    1.11
  -1   3  13    4.13    1.20
  -1   3  13    3.93    1.37
   0   3  13    3.63    1.14
   0   3  13    2.85    1.38
   1   3  13   -1.28    1.06
   1   3  13   -1.19    1.21
   2   3  13    1.98    1.34
   2   3  13    4.14    1.29
   3   3  13    2.40    1.25
   3   3  13    0.39    1.32
   4   3  13    5.70    1.38
   4   3  13    3.35    1.44
   5   3  13    0.85    1.42
   5   3  13    1.42    1.55
   6   3  13   -0.54    1.34
   6   3  13   -1.16    1.46
   7   3  13    3.27    1.71
   7   3  13    4.37    1.73
   8   3  13   -1.13    1.39
   9   3  13   -1.90    1.55
   9   3  13    1.40    1.70
  10   3  13   -2.59    2.03
  11   3  13   -3.94    1.90
  18  -4 -13    1.41    1.66
 -18   4  13   -1.67    1.85
  17  -4 -13    0.09    1.50
 -17   4  13    1.83    2.00
  16  -4 -13    0.48    1.40
 -16   4  13    1.60    1.74
 -15   4  13   -1.22    1.50
 -14   4  13    4.17    1.51
 -13   4  13    2.88    1.53
 -12   4  13    1.40    1.20
 -11   4  13    1.33    1.23
 -10   4  13    0.44    1.32
 -10   4  13   -0.24    1.09
  -9   4  13    0.14    1.15
  -9   4  13    0.03    1.42
  -8   4  13   -2.33    1.50
  -8   4  13    0.22    1.04
  -7   4  13   -0.25    1.55
  -7   4  13    1.27    1.12
  -6   4  13    0.97    1.21
  -6   4  13    0.14    1.11
  -5   4  13    1.66    1.22
  -5   4  13    1.44    1.20
  -4   4  13   -0.80    1.25
  -3   4  13   14.68    1.80
  -2   4  13    0.57    1.21
  -2   4  13    3.46    1.62
  -1   4  13   13.16    1.96
  -1   4  13   14.26    2.17
   0   4  13    0.09    1.34
   1   4  13    1.65    1.17
   1   4  13    1.40    1.42
   2   4  13    0.78    1.20
   2   4  13   -0.51    1.37
   3   4  13    0.10    1.23
   3   4  13    0.81    1.33
   4   4  13    0.81    1.29
   4   4  13    0.49    1.34
   5   4  13    0.62    1.29
   5   4  13    0.09    1.41
   6   4  13    3.90    1.52
   6   4  13   -0.41    1.53
   7   4  13    1.57    1.74
   7   4  13    4.27    1.72
   8   4  13    0.03    1.90
   8   4  13   -1.91    1.62
   9   4  13    0.53    1.93
 -18   5  13    0.08    1.85
 -16   5  13    2.08    1.70
 -15   5  13    2.07    1.60
 -14   5  13    2.37    1.53
 -13   5  13    2.18    1.36
 -12   5  13    0.36    1.35
 -11   5  13    0.97    1.28
 -11   5  13    1.16    1.46
 -10   5  13    1.78    1.23
 -10   5  13    3.07    1.53
  -9   5  13    2.65    1.70
  -9   5  13    1.29    1.30
  -8   5  13    6.46    1.41
  -8   5  13    7.00    1.82
  -7   5  13    4.67    1.37
  -7   5  13    4.44    1.68
  -6   5  13    0.25    1.29
  -6   5  13    0.72    1.14
  -5   5  13    2.86    1.29
  -5   5  13    3.31    1.26
  -4   5  13   -0.30    1.30
  -3   5  13    5.83    1.40
  -3   5  13    8.40    1.81
  -2   5  13    0.81    1.29
  -2   5  13    5.61    2.11
  -1   5  13    3.62    1.80
   0   5  13    2.94    1.43
   0   5  13    3.07    1.51
   1   5  13    0.40    1.40
   1   5  13   -0.78    1.34
   2   5  13    1.82    1.33
   2   5  13    2.49    1.26
   3   5  13    3.06    1.62
   3   5  13    3.31    1.29
   4   5  13   -0.02    1.29
   4   5  13    1.14    1.40
   5   5  13    0.23    1.54
   5   5  13    1.26    1.46
   6   5  13    0.02    1.51
   6   5  13    0.88    1.60
   7   5  13   -1.69    1.53
   8   5  13   -2.14    1.99
   9   5  13    0.05    1.86
  10   5  13   -2.31    1.96
 -16   6  13    1.76    1.70
 -15   6  13    4.81    1.84
 -14   6  13    0.91    1.47
 -13   6  13    0.82    1.86
 -13   6  13    1.56    1.46
 -12   6  13    0.32    1.32
 -12   6  13    1.02    1.73
 -11   6  13   -0.86    1.31
 -11   6  13   -0.22    1.66
 -10   6  13    0.24    1.71
 -10   6  13   -0.24    1.14
  -9   6  13    1.19    1.30
  -9   6  13   -0.34    1.73
  -8   6  13   11.30    1.64
  -8   6  13   12.82    2.07
  -7   6  13    0.53    1.11
  -6   6  13    1.02    1.21
  -6   6  13   -0.52    1.13
  -5   6  13   -1.72    1.34
  -5   6  13    0.63    1.18
  -4   6  13   -0.80    1.42
  -3   6  13   -0.51    1.64
  -3   6  13   -0.73    1.34
  -2   6  13    4.81    1.75
  -2   6  13    4.91    1.52
  -1   6  13    3.70    2.00
  -1   6  13    1.42    1.43
   0   6  13    0.87    1.44
   0   6  13    2.96    2.25
   1   6  13    0.62    1.72
   1   6  13    2.09    1.46
   2   6  13    3.28    1.49
   2   6  13    2.03    1.59
   3   6  13   -0.15    1.54
   3   6  13    0.73    1.72
   4   6  13   -0.42    1.68
   5   6  13    1.36    2.05
   6   6  13    0.71    1.84
   7   6  13   -1.99    1.93
   8   6  13   -1.80    1.95
   9   6  13   -3.22    2.51
 -17   7  13   -0.57    1.80
 -16   7  13   -3.48    1.69
 -15   7  13   -0.28    1.65
 -14   7  13   -0.75    2.04
 -14   7  13    0.23    1.49
 -13   7  13    1.47    1.60
 -13   7  13    1.23    2.14
 -12   7  13    4.12    2.10
 -12   7  13    1.73    1.61
 -11   7  13    0.55    1.33
 -10   7  13   -1.06    1.32
  -9   7  13    1.68    1.31
  -9   7  13    2.33    1.70
  -8   7  13    1.33    1.69
  -8   7  13    2.50    1.48
  -7   7  13    2.14    1.76
  -7   7  13    1.33    1.30
  -6   7  13   -1.39    1.67
  -6   7  13    1.32    1.32
  -5   7  13    1.87    1.26
  -5   7  13   -1.13    1.40
  -4   7  13   -0.97    1.47
  -3   7  13    4.08    1.51
  -3   7  13    5.54    1.53
  -2   7  13    5.92    1.89
  -2   7  13    3.86    1.50
  -1   7  13    0.96    1.90
  -1   7  13   -1.12    1.42
   0   7  13   10.22    2.33
   0   7  13    5.22    1.63
   1   7  13    5.44    2.51
   1   7  13    1.89    1.60
   2   7  13    3.80    2.66
   3   7  13   -1.81    2.53
   4   7  13   -0.06    2.08
   5   7  13    0.44    2.17
   6   7  13    0.22    2.23
   7   7  13   -0.55    1.96
 -17   8  13    0.32    1.87
 -16   8  13   -0.18    1.81
 -15   8  13   -1.71    1.74
 -14   8  13    1.46    1.62
 -14   8  13    0.71    1.95
 -13   8  13    1.10    1.57
 -13   8  13   -0.71    1.94
 -12   8  13   -0.25    1.83
 -12   8  13    1.33    1.52
 -11   8  13    0.56    1.85
 -11   8  13    1.79    1.50
 -10   8  13   -0.04    1.35
 -10   8  13    0.20    1.86
  -9   8  13    2.26    1.43
  -9   8  13    3.13    1.84
  -8   8  13   -0.72    1.64
  -8   8  13    0.87    1.45
  -7   8  13    3.84    1.51
  -7   8  13    1.85    1.80
  -6   8  13    2.50    1.48
  -6   8  13   -1.72    1.71
  -5   8  13    2.22    1.46
  -5   8  13    0.69    1.38
  -4   8  13   -0.03    1.56
  -3   8  13    2.59    1.58
  -2   8  13   -0.95    1.53
  -2   8  13    0.04    1.52
  -1   8  13   -0.85    1.49
  -1   8  13    0.17    1.65
   0   8  13    3.47    1.57
   0   8  13    1.42    2.09
   1   8  13    0.17    2.34
   2   8  13    6.76    2.77
   3   8  13    3.79    2.58
   4   8  13   -0.21    2.92
   5   8  13    3.94    3.21
   6   8  13   10.18    3.68
 -15   9  13    3.63    2.40
 -15   9  13   -0.26    1.68
 -14   9  13   -0.15    1.70
 -14   9  13    1.03    2.24
 -13   9  13   -1.67    2.01
 -13   9  13   -1.34    1.51
 -12   9  13    2.57    2.03
 -12   9  13    4.64    1.84
 -11   9  13    5.05    2.20
 -11   9  13    2.57    1.71
 -10   9  13   -1.24    1.90
 -10   9  13    1.17    1.53
  -9   9  13    0.45    1.59
  -9   9  13    4.16    2.01
  -8   9  13    1.18    1.59
  -8   9  13   -1.09    1.79
  -7   9  13    3.89    2.02
  -7   9  13    5.57    1.71
  -6   9  13   -1.37    1.76
  -6   9  13    2.37    1.58
  -5   9  13    2.15    1.62
  -5   9  13   -1.38    1.95
  -4   9  13   -1.84    1.31
  -3   9  13    1.23    1.60
  -3   9  13   -0.94    1.77
  -2   9  13   -1.32    1.73
  -2   9  13   -0.63    1.61
  -1   9  13   -1.50    1.84
  -1   9  13    1.67    1.62
   0   9  13    0.85    1.73
   1   9  13   -2.93    2.16
   2   9  13   -1.44    2.25
   3   9  13   -3.32    2.33
   4   9  13   -1.81    2.76
   5   9  13    0.31    2.74
 -16  10  13   -1.92    1.75
 -15  10  13    3.29    2.64
 -15  10  13    0.84    1.96
 -14  10  13    2.71    2.49
 -14  10  13    0.46    1.89
 -13  10  13   -1.82    1.68
 -13  10  13   -3.70    2.32
 -12  10  13   -1.10    1.86
 -12  10  13    2.00    2.24
 -11  10  13   -0.54    1.77
 -11  10  13    0.62    2.25
 -10  10  13    2.52    1.69
 -10  10  13    1.84    2.15
  -9  10  13    4.87    2.14
  -9  10  13    2.05    1.80
  -8  10  13   -0.10    1.92
  -8  10  13    2.68    1.89
  -7  10  13   -0.25    1.65
  -7  10  13    2.53    2.09
  -6  10  13   -0.29    1.66
  -6  10  13    2.39    2.03
  -5  10  13    1.51    1.89
  -5  10  13    0.63    1.62
  -4  10  13    0.29    1.91
  -3  10  13    0.55    1.70
  -3  10  13   -2.08    1.50
  -2  10  13    0.94    1.70
  -2  10  13   -1.34    1.91
  -1  10  13    1.82    2.06
   0  10  13   -3.61    1.89
   1  10  13   -0.02    2.08
   2  10  13    0.72    1.87
   3  10  13    0.10    2.27
   4  10  13   -5.03    2.62
   5  10  13   -6.55    3.17
 -15  11  13    0.75    2.70
 -14  11  13   -1.65    2.66
 -14  11  13   -0.75    1.99
 -13  11  13   -1.24    1.96
 -13  11  13   -1.29    2.46
 -12  11  13    2.66    2.04
 -12  11  13    2.85    2.52
 -11  11  13   -0.20    2.00
 -11  11  13    2.05    2.35
 -10  11  13   -1.25    1.84
 -10  11  13   -0.56    2.24
  -9  11  13   -2.51    1.80
  -9  11  13    4.84    2.28
  -8  11  13   -2.15    1.78
  -8  11  13    1.41    2.07
  -7  11  13    2.31    2.08
  -7  11  13   -1.88    1.77
  -6  11  13   -2.17    1.74
  -6  11  13    1.70    1.96
  -5  11  13    2.29    2.10
  -5  11  13   -0.24    1.75
  -4  11  13   -0.46    2.27
  -3  11  13    2.16    1.87
  -3  11  13    2.07    2.11
  -2  11  13    2.37    1.98
  -1  11  13   -0.21    2.20
   0  11  13   -0.83    2.28
   1  11  13    1.32    2.48
   2  11  13   -1.91    2.17
   4  11  13   -0.72    2.60
 -14  12  13   -2.10    2.11
 -14  12  13   -1.57    2.88
 -13  12  13   -1.31    2.03
 -13  12  13   -0.48    2.70
 -12  12  13   -2.51    2.05
 -12  12  13    1.94    2.64
 -11  12  13   -0.90    2.06
 -11  12  13    3.28    2.59
 -10  12  13   -1.66    2.02
 -10  12  13    2.77    2.36
  -9  12  13    3.21    2.39
  -9  12  13   -0.60    1.96
  -8  12  13    4.22    2.39
  -8  12  13   -0.31    2.01
  -7  12  13   -0.75    1.92
  -7  12  13   -2.55    2.12
  -6  12  13   -0.93    1.88
  -6  12  13    1.00    2.06
  -5  12  13   -2.87    1.88
  -5  12  13    1.62    2.12
  -4  12  13   -0.53    1.93
  -3  12  13   -0.02    2.38
  -2  12  13    0.94    2.14
  -1  12  13   -1.09    1.80
   0  12  13    1.72    2.40
   1  12  13   -1.74    2.44
   2  12  13   -2.08    2.64
   3  12  13   -0.08    2.85
 -13  13  13    0.96    2.97
 -13  13  13   -2.61    2.31
 -12  13  13    3.49    2.92
 -12  13  13   -4.06    2.23
 -11  13  13   -5.00    2.23
 -11  13  13    2.91    2.83
 -10  13  13    2.73    2.70
 -10  13  13   -4.84    2.16
  -9  13  13    2.18    2.54
  -9  13  13   -4.48    2.15
  -8  13  13    7.49    2.69
  -8  13  13   -3.83    2.25
  -7  13  13   -0.50    2.14
  -7  13  13    0.79    2.35
  -6  13  13    2.07    2.24
  -5  13  13   -3.85    1.92
  -5  13  13    2.52    2.14
  -4  13  13    2.66    2.34
  -3  13  13   -1.47    2.02
  -2  13  13   -0.75    2.38
  -1  13  13    0.07    2.69
   0  13  13   -1.67    2.40
   1  13  13   -0.71    2.32
 -11  14  13    3.82    2.99
 -11  14  13   -3.16    2.45
 -10  14  13   -2.31    2.53
 -10  14  13    5.03    2.78
  -9  14  13    1.16    2.65
  -9  14  13   -0.46    2.34
  -8  14  13    1.84    2.36
  -8  14  13    4.14    2.62
  -7  14  13    5.99    2.60
  -7  14  13    2.60    2.27
  -6  14  13   -0.78    2.37
  -5  14  13    3.72    2.37
  -4  14  13    2.61    2.25
  -2  14  13    1.50    2.31
  -1  14  13    2.50    2.40
  -8  15  13   -0.17    2.53
  -6  15  13   -0.09    2.41
   0 -17  14    8.13    2.79
   1 -17  14   -1.22    2.31
   2 -17  14    1.75    2.40
   3 -17  14    1.32    2.57
  -4 -16  14    0.48    2.55
   3  16 -14   -0.36    1.73
   3  16 -14    1.70    2.36
  -3 -16  14    0.67    2.47
   2  16 -14    0.10    2.31
   2  16 -14    1.74    1.69
  -2 -16  14   -0.48    2.40
   1  16 -14   -0.47    1.76
   1  16 -14   -0.93    2.18
  -1 -16  14    1.46    2.54
   0 -16  14    3.09    2.37
   1 -16  14    1.04    2.25
   2 -16  14    2.43    2.19
   3 -16  14    1.09    2.26
   4 -16  14   -0.94    2.03
   5 -16  14    0.23    2.14
   7 -16  14   -2.87    2.48
  -6 -15  14    4.05    2.45
   5  15 -14   -0.64    1.69
   5  15 -14    3.55    2.25
  -5 -15  14    0.49    2.30
   4  15 -14   -1.36    1.49
   4  15 -14    0.49    2.22
  -4 -15  14    2.19    2.31
   3  15 -14   -0.48    1.44
   3  15 -14   -0.64    2.04
  -3 -15  14   -0.55    2.13
   2  15 -14    1.49    1.53
   2  15 -14   -0.58    2.11
  -2 -15  14    2.89    2.22
   1  15 -14    0.63    1.79
  -1 -15  14    2.02    2.15
   0 -15  14    0.37    1.97
   1 -15  14    0.86    2.05
   2 -15  14    0.36    2.08
   3 -15  14    0.25    2.05
   4 -15  14    0.94    1.97
   5 -15  14   -1.53    1.99
   6 -15  14   -1.74    1.88
   7 -15  14   -0.69    2.34
  -7 -14  14   -4.17    2.18
   6  14 -14   -2.46    1.34
  -6 -14  14    2.87    2.26
   5  14 -14    0.34    1.35
   5  14 -14    0.47    1.99
  -5 -14  14    2.11    2.09
   4  14 -14   -1.43    1.32
   4  14 -14   -1.07    1.97
  -4 -14  14    3.30    2.16
   3  14 -14   -0.87    1.36
  -3 -14  14    0.94    1.87
   2  14 -14    1.98    1.46
  -2 -14  14   -0.22    1.81
   1  14 -14    0.25    1.39
  -1 -14  14    3.43    2.15
   0 -14  14    1.35    1.94
   1 -14  14    2.60    1.88
   2 -14  14   -0.65    1.83
   3 -14  14   -1.38    1.71
   4 -14  14   -0.46    1.74
   5 -14  14   -1.74    1.75
   6 -14  14   -0.59    1.90
   7 -14  14   -1.10    2.14
   8 -14  14   -2.63    1.90
   9 -14  14    1.03    2.12
   9  13 -14   -2.29    1.59
  -9 -13  14    3.33    2.44
   8  13 -14   -1.71    1.36
  -8 -13  14    1.63    2.30
   7  13 -14   -0.42    1.29
  -7 -13  14   -1.23    2.10
   6  13 -14   -0.49    1.26
  -6 -13  14    1.28    2.04
   5  13 -14    0.75    1.33
  -5 -13  14   -0.79    1.99
  -4 -13  14   -0.21    1.85
   3  13 -14    4.15    1.40
  -3 -13  14    4.65    1.92
   2  13 -14    2.03    1.30
  -2 -13  14    0.69    1.78
   1  13 -14   -0.10    1.37
  -1 -13  14    3.57    1.80
   0 -13  14    0.29    1.66
   1 -13  14   -0.07    1.61
   2 -13  14    0.34    1.74
   3 -13  14    2.61    1.84
   4 -13  14   -0.58    1.66
   5 -13  14   -2.13    1.66
   6 -13  14    0.63    1.76
   7 -13  14   -3.14    1.76
   8 -13  14   -1.43    1.71
   9 -13  14   -0.81    2.06
  10 -13  14   -3.34    1.95
  10  12 -14   -2.34    1.60
 -10 -12  14    5.48    2.41
   9  12 -14   -2.59    1.40
  -9 -12  14   -0.49    2.19
   8  12 -14   -2.02    1.20
  -8 -12  14    3.15    2.14
   7  12 -14    0.62    1.26
  -7 -12  14    0.94    1.99
   6  12 -14   -1.51    1.14
  -6 -12  14    0.91    1.89
   5  12 -14    1.91    1.15
  -5 -12  14    4.61    1.93
   4  12 -14   -1.30    1.07
  -4 -12  14    0.25    1.73
   3  12 -14    0.08    1.11
  -3 -12  14    0.08    1.65
   2  12 -14    0.62    1.29
  -2 -12  14    1.03    1.64
   1  12 -14    4.14    1.35
  -1 -12  14    5.99    1.82
   0 -12  14    2.03    1.73
   1 -12  14    2.64    1.66
   2 -12  14    2.70    1.71
   3 -12  14    4.16    1.75
   4 -12  14   -0.06    1.49
   5 -12  14   -0.17    1.60
   6 -12  14    2.13    1.91
   7 -12  14   -1.51    1.61
   8 -12  14   -0.62    1.71
   9 -12  14   -1.95    1.86
  11 -12  14   -0.54    2.11
  11  11 -14   -1.76    1.42
 -11 -11  14    3.02    2.36
  10  11 -14   -2.01    1.46
 -10 -11  14    2.56    2.14
   9  11 -14   -1.26    1.26
  -9 -11  14    1.04    1.96
   8  11 -14   -0.85    1.19
  -8 -11  14    0.74    1.87
   7  11 -14    0.29    1.22
  -7 -11  14    3.61    1.75
   6  11 -14   -0.41    1.22
  -6 -11  14   -0.78    1.64
   5  11 -14    1.99    1.08
  -5 -11  14    2.35    1.67
   4  11 -14   -0.46    1.18
  -4 -11  14    1.52    1.64
   3  11 -14    0.84    1.10
  -3 -11  14    0.22    1.50
   2  11 -14    3.13    1.29
  -2 -11  14    3.54    1.72
  -1 -11  14    1.99    1.57
   0 -11  14   -0.10    1.59
   1 -11  14    1.67    1.49
   2 -11  14    2.44    1.57
   3 -11  14    1.89    1.54
   4 -11  14    0.39    1.46
   5 -11  14   -1.19    1.42
   6 -11  14    3.10    1.75
   7 -11  14   -0.25    1.61
   8 -11  14    0.79    1.61
   9 -11  14   -2.60    1.63
  10 -11  14   -0.89    1.89
  12  10 -14    1.56    1.50
 -12 -10  14    5.64    2.45
  11  10 -14   -1.50    1.27
 -11 -10  14    0.78    2.16
  10  10 -14   -1.69    1.21
 -10 -10  14   -0.09    1.96
   9  10 -14   -1.21    1.08
  -9 -10  14    1.01    1.94
   8  10 -14    0.35    1.03
  -8 -10  14   -0.44    1.74
   7  10 -14   -0.33    1.13
  -7 -10  14    2.78    1.75
   6  10 -14    1.56    1.06
  -6 -10  14    2.31    1.66
   5  10 -14    2.65    1.14
  -5 -10  14    5.76    1.68
   4  10 -14   -0.03    1.07
  -4 -10  14   -0.38    1.59
   3  10 -14    2.82    1.09
  -3 -10  14    3.35    1.50
   2  10 -14    1.03    1.04
  -2 -10  14    3.15    1.56
  -1 -10  14    5.45    1.66
   0 -10  14    1.54    1.44
   1 -10  14   -0.34    1.47
   2 -10  14   -0.43    1.33
   3 -10  14   -0.37    1.36
   4 -10  14    1.46    1.54
   5 -10  14   -0.35    1.63
   6 -10  14    0.30    1.55
   7 -10  14    1.43    1.69
   8 -10  14    0.55    1.79
   9 -10  14   -3.25    1.59
  10 -10  14   -1.23    1.82
  11 -10  14    0.43    2.07
  12 -10  14   -0.50    2.21
  13   9 -14   -1.95    1.46
 -13  -9  14    2.80    2.30
  12   9 -14   -0.65    1.49
 -12  -9  14    2.58    2.21
  11   9 -14   -1.23    1.24
 -11  -9  14    0.25    2.01
  10   9 -14   -0.64    1.20
 -10  -9  14    1.83    1.82
   9   9 -14   -1.20    1.08
  -9  -9  14    1.05    1.67
   8   9 -14   -0.27    1.09
  -8  -9  14    0.64    1.60
   7   9 -14   -0.48    0.97
  -7  -9  14    2.11    1.74
   6   9 -14    3.08    1.12
  -6  -9  14    7.09    1.66
   5   9 -14   -1.70    0.90
  -5  -9  14   -0.75    1.35
   4   9 -14    0.53    0.94
  -4  -9  14    0.92    1.52
   3   9 -14    0.87    1.07
  -3  -9  14    1.47    1.33
   2   9 -14    0.80    0.94
  -2  -9  14    0.38    1.36
  -1  -9  14    5.44    1.57
   0  -9  14    3.70    1.51
   1  -9  14    7.13    1.72
   2  -9  14    1.57    1.40
   3  -9  14    0.39    1.34
   4  -9  14   -1.19    1.37
   5  -9  14    0.90    1.51
   6  -9  14    1.18    1.50
   7  -9  14    6.05    1.84
   8  -9  14   -0.46    1.69
   9  -9  14   -3.30    1.51
  10  -9  14   -1.51    1.82
  11  -9  14   -1.25    1.98
 -14  -8  14    0.03    2.38
 -13  -8  14    3.46    2.27
  12   8 -14   -2.12    1.33
 -12  -8  14    0.41    2.04
  11   8 -14   -1.11    1.08
 -11  -8  14    0.93    1.80
  10   8 -14   -0.88    1.00
 -10  -8  14    3.07    1.85
   9   8 -14    0.22    1.00
  -9  -8  14   -0.08    1.54
   8   8 -14    0.22    1.00
  -8  -8  14    0.74    1.56
   7   8 -14    3.73    1.17
  -7  -8  14    6.10    1.80
   6   8 -14    1.66    0.90
  -6  -8  14    3.48    1.43
   5   8 -14   -0.55    0.97
  -5  -8  14   -1.56    1.36
   4   8 -14    5.12    1.05
  -4  -8  14    5.56    1.48
   3   8 -14    0.91    0.96
  -3  -8  14    0.67    1.29
  -2  -8  14   -1.32    1.27
  -1  -8  14    2.66    1.43
   0  -8  14    1.97    1.43
   1  -8  14    2.17    1.48
   2  -8  14    1.32    1.39
   3  -8  14    4.57    1.54
   4  -8  14    1.37    1.41
   5  -8  14   14.77    2.09
   6  -8  14    0.22    1.52
   7  -8  14   -2.38    1.35
   8  -8  14   -1.20    1.48
   9  -8  14   -2.09    1.72
  10  -8  14   -2.58    1.75
  11  -8  14   -2.26    1.79
  12  -8  14   -0.61    2.08
 -14  -7  14    1.62    2.21
  13   7 -14   -1.30    1.38
 -13  -7  14   -0.66    2.07
  12   7 -14   -1.39    1.21
 -12  -7  14    0.48    1.82
  11   7 -14   -0.08    1.13
 -11  -7  14    3.17    1.79
  10   7 -14   -0.49    0.95
 -10  -7  14    0.73    1.66
   9   7 -14    0.94    0.92
  -9  -7  14    0.81    1.49
   8   7 -14    1.05    1.02
  -8  -7  14    1.96    1.59
   7   7 -14    2.28    0.95
  -7  -7  14    5.72    1.78
   6   7 -14    1.31    0.91
  -6  -7  14    2.42    1.34
   5   7 -14    0.11    0.86
  -5  -7  14   -1.83    1.19
   4   7 -14    2.56    1.03
  -4  -7  14    1.72    1.35
   3   7 -14   -0.14    0.88
  -3  -7  14   -0.02    1.27
  -2  -7  14    6.49    1.58
  -1  -7  14    5.09    1.54
   0  -7  14    2.61    1.47
   1  -7  14    1.19    1.38
   2  -7  14    0.95    1.42
   3  -7  14    1.09    1.31
   4  -7  14    1.83    1.37
   5  -7  14    1.26    1.50
   6  -7  14    2.23    1.60
   7  -7  14   -2.13    1.34
   8  -7  14    2.57    1.53
   9  -7  14    3.45    1.91
  10  -7  14   -1.64    1.78
  11  -7  14   -3.20    1.78
  12  -7  14   -0.30    2.11
  15   6 -14   -0.81    1.66
 -15  -6  14    2.54    2.40
  14   6 -14   -1.25    1.34
 -14  -6  14    2.32    2.27
 -13  -6  14    1.18    1.87
  12   6 -14   -0.76    1.09
 -12  -6  14   -0.02    1.70
  11   6 -14    0.33    1.11
 -11  -6  14    3.35    1.72
  10   6 -14   -0.67    1.05
 -10  -6  14    0.94    1.46
   9   6 -14    5.15    1.25
  -9  -6  14   10.13    1.80
   8   6 -14    0.29    0.94
  -8  -6  14    0.75    1.41
   7   6 -14    0.34    0.86
  -7  -6  14    1.19    1.28
   6   6 -14    2.28    1.00
  -6  -6  14    3.18    1.46
   5   6 -14    3.61    0.96
  -5  -6  14    3.23    1.41
   4   6 -14    1.56    0.94
  -4  -6  14    1.91    1.37
  -3  -6  14    0.03    1.23
  -2  -6  14   11.69    1.81
  -1  -6  14    2.78    1.40
   0  -6  14    0.90    1.37
   1  -6  14    9.24    1.76
   2  -6  14    0.23    1.36
   3  -6  14    0.26    1.32
   4  -6  14    2.88    1.40
   5  -6  14    0.35    1.33
   6  -6  14    2.75    1.45
   7  -6  14   -1.05    1.48
   8  -6  14    5.07    1.73
   9  -6  14   -0.38    1.51
  10  -6  14   -2.97    1.72
  11  -6  14   -3.01    1.71
  12  -6  14   -0.77    2.05
 -15  -5  14    7.30    2.41
  14   5 -14   -0.45    1.24
 -14  -5  14    0.29    1.98
  13   5 -14   -1.56    1.12
 -13  -5  14   -0.38    1.75
  12   5 -14    1.08    1.04
 -12  -5  14    1.55    1.59
  11   5 -14   -0.46    1.12
 -11  -5  14    1.27    1.57
  10   5 -14    0.37    1.06
 -10  -5  14    2.78    1.48
   9   5 -14    1.64    0.95
  -9  -5  14    4.36    1.49
   8   5 -14   -0.58    0.85
  -8  -5  14    1.74    1.28
   7   5 -14    0.37    0.91
  -7  -5  14    1.73    1.45
   6   5 -14    1.21    0.83
  -6  -5  14    1.54    1.25
   5   5 -14    0.87    0.98
  -5  -5  14    1.58    1.22
  -4  -5  14   -0.26    1.30
  -3  -5  14    5.65    1.45
  -2  -5  14    3.84    1.36
  -1  -5  14    0.73    1.24
   0  -5  14    0.76    1.32
   1  -5  14    2.32    1.47
   2  -5  14    5.07    1.46
   3  -5  14    2.48    1.51
   4  -5  14    3.00    1.40
   5  -5  14   -0.32    1.38
   6  -5  14    0.45    1.32
   7  -5  14    2.57    1.50
   8  -5  14   -0.71    1.55
   9  -5  14    1.00    1.56
  10  -5  14    0.33    1.59
  11  -5  14   -0.40    1.74
  12  -5  14   -1.77    2.08
 -16  -4  14   -0.20    2.36
  15   4 -14   -2.39    1.34
 -15  -4  14    1.21    2.04
  14   4 -14   -0.72    1.25
 -14  -4  14    0.36    1.83
  13   4 -14    0.96    1.11
 -13  -4  14    2.07    1.69
  12   4 -14   -0.12    0.96
 -12  -4  14    2.12    1.55
  11   4 -14   -0.12    0.95
 -11  -4  14    0.89    1.38
  10   4 -14    3.60    1.04
 -10  -4  14    6.21    1.58
   9   4 -14   -0.34    0.80
  -9  -4  14   -0.99    1.17
   8   4 -14   -0.84    0.88
  -8  -4  14    0.11    1.23
   7   4 -14    0.42    0.80
  -7  -4  14   -2.09    1.23
   6   4 -14    4.51    1.03
  -6  -4  14    8.14    1.68
   5   4 -14   -0.15    0.82
  -5  -4  14   -0.95    1.16
  -4  -4  14    1.13    1.24
  -3  -4  14    8.29    1.50
  -2  -4  14    0.36    1.21
  -1  -4  14   -0.21    1.20
   0  -4  14    0.42    1.30
   1  -4  14    0.84    1.37
   2  -4  14    0.03    1.36
   3  -4  14    0.83    1.39
   4  -4  14    5.71    1.54
   5  -4  14    3.16    1.40
   6  -4  14    3.25    1.50
   7  -4  14   -0.49    1.39
   8  -4  14    0.22    1.47
   9  -4  14   -0.98    1.63
  10  -4  14    2.42    1.71
  11  -4  14    1.06    1.82
  12  -4  14    2.25    2.04
  16   3 -14   -0.35    1.40
 -16  -3  14    1.68    2.18
  15   3 -14   -0.08    1.39
 -15  -3  14    2.10    2.08
  14   3 -14   -0.17    1.15
 -14  -3  14   -0.48    1.65
  13   3 -14    2.77    1.29
 -13  -3  14    6.54    1.74
  12   3 -14   -0.14    0.96
 -12  -3  14    0.21    1.54
  11   3 -14   -0.48    0.95
 -11  -3  14    2.83    1.41
  10   3 -14    1.25    1.01
 -10  -3  14    5.08    1.38
   9   3 -14   -0.29    0.92
  -9  -3  14    0.52    1.27
   8   3 -14    0.54    0.94
  -8  -3  14   -0.86    1.32
   7   3 -14    0.46    0.99
  -7  -3  14    0.29    1.34
   6   3 -14    0.53    0.92
  -6  -3  14    2.48    1.57
  -5  -3  14    0.25    1.13
  -4  -3  14    2.68    1.29
  -4  -3  14    3.56    1.13
  -3  -3  14    2.81    1.17
  -2  -3  14    0.56    1.14
  -1  -3  14    7.53    1.52
   0  -3  14    1.46    1.18
   1  -3  14   -0.93    1.17
   2  -3  14    1.49    1.33
   3  -3  14    1.72    1.27
   4  -3  14    2.40    1.39
   5  -3  14    1.60    1.39
   6  -3  14    1.10    1.38
   7  -3  14   -1.14    1.40
   8  -3  14    2.23    1.63
   9  -3  14    2.53    1.65
  10  -3  14   -1.40    1.72
  11  -3  14    2.53    1.84
  11  -3  14   -1.54    1.86
  12  -3  14   -2.65    2.09
 -17  -2  14    0.07    2.61
  16   2 -14   -1.44    1.28
 -16  -2  14   -0.77    2.07
  15   2 -14    0.15    1.17
 -15  -2  14    4.94    1.96
  14   2 -14   -0.90    1.19
 -14  -2  14    2.79    1.61
  13   2 -14   -0.16    1.09
 -13  -2  14    1.76    1.50
  12   2 -14   -0.12    0.90
 -12  -2  14    0.33    1.38
  11   2 -14   -0.93    0.97
 -11  -2  14    1.60    1.31
  10   2 -14    1.34    1.06
 -10  -2  14    4.43    1.38
   9   2 -14    0.46    0.85
  -9  -2  14   -0.01    1.19
   8   2 -14    0.46    1.01
  -8  -2  14   -0.22    1.19
   7   2 -14    0.71    0.94
  -7  -2  14    0.25    1.13
  -6  -2  14   -0.70    1.23
  -5  -2  14   10.73    1.77
  -5  -2  14   12.56    1.54
  -4  -2  14    0.74    1.01
  -4  -2  14    1.04    1.11
  -3  -2  14   -0.03    0.99
  -3  -2  14   -0.88    1.03
  -2  -2  14    4.73    1.35
  -2  -2  14    4.23    1.20
  -1  -2  14   -0.77    1.06
  -1  -2  14    0.89    1.16
   0  -2  14    0.13    1.21
   1  -2  14    3.67    1.38
   2  -2  14    5.76    1.53
   3  -2  14    1.39    1.32
   4  -2  14    0.41    1.32
   5  -2  14    3.53    1.41
   6  -2  14    0.15    1.36
   7  -2  14    2.05    1.52
   8  -2  14    3.92    1.58
   8  -2  14   -0.21    1.61
   9  -2  14    4.02    1.66
   9  -2  14    1.92    1.63
  10  -2  14    0.53    1.84
  10  -2  14   -1.93    1.70
  11  -2  14    1.03    2.03
  11  -2  14    0.03    1.74
  12  -2  14    1.14    2.23
  17   1 -14    0.40    1.57
 -17  -1  14   -0.03    2.27
  16   1 -14   -0.14    1.25
 -16  -1  14    1.01    2.02
  15   1 -14    0.46    1.22
 -15  -1  14    5.21    1.86
  14   1 -14   -0.15    1.08
 -14  -1  14    1.16    1.62
  13   1 -14   -0.71    1.06
 -13  -1  14    0.96    1.50
  12   1 -14   -0.50    0.99
 -12  -1  14    1.67    1.33
  11   1 -14    0.11    0.91
 -11  -1  14   -0.35    1.20
  10   1 -14    2.16    1.02
 -10  -1  14    2.31    1.36
   9   1 -14    6.76    1.24
  -9  -1  14    8.04    1.46
   8   1 -14    5.84    1.15
  -8  -1  14    6.42    1.42
  -7  -1  14   -0.09    1.18
  -6  -1  14   -1.04    1.28
  -5  -1  14    8.13    1.22
  -4  -1  14    0.07    1.00
  -4  -1  14   -1.26    1.12
  -3  -1  14    1.16    1.08
  -3  -1  14   -0.48    1.03
  -2  -1  14    1.75    1.13
  -2  -1  14    0.89    1.16
  -1  -1  14   -0.87    1.06
  -1  -1  14   -0.23    1.09
   0  -1  14    2.51    1.24
   1  -1  14    9.05    1.49
   1  -1  14    9.00    1.59
   2  -1  14    4.12    1.38
   2  -1  14    3.74    1.35
   3  -1  14    1.82    1.26
   3  -1  14    0.63    1.33
   4  -1  14   -0.44    1.22
   4  -1  14    2.09    1.30
   5  -1  14    0.33    1.34
   5  -1  14    0.25    1.26
   6  -1  14    0.68    1.32
   6  -1  14   -0.93    1.34
   7  -1  14    4.61    1.64
   7  -1  14    4.16    1.65
   8  -1  14    0.97    1.58
   8  -1  14    0.69    1.47
   9  -1  14   -0.55    1.60
   9  -1  14   -0.95    1.60
  10  -1  14   -2.90    1.79
  10  -1  14    1.10    1.72
  11  -1  14   -1.02    2.08
  11  -1  14    2.27    1.87
  12  -1  14   -1.29    2.33
  12  -1  14    6.84    2.26
  17   0 -14    0.44    1.38
 -17   0  14   -1.22    2.22
  16   0 -14   -0.68    1.27
 -16   0  14    3.31    1.89
  15   0 -14   -1.40    1.13
 -15   0  14    1.16    1.74
  14   0 -14   -1.63    1.09
 -14   0  14    2.16    1.65
  13   0 -14   -1.25    0.98
 -13   0  14    0.92    1.36
  12   0 -14    4.89    1.23
 -12   0  14    6.21    1.54
  11   0 -14    0.61    0.99
 -11   0  14    0.97    1.11
  10   0 -14    7.70    1.22
 -10   0  14   13.40    2.00
  -9   0  14    2.27    1.18
  -8   0  14    2.67    1.28
  -7   0  14    1.80    1.22
  -6   0  14    7.17    1.23
  -5   0  14    3.53    1.45
  -4   0  14    1.26    1.06
  -3   0  14    2.69    1.12
  -3   0  14    3.28    1.26
  -2   0  14    0.95    1.14
  -2   0  14    1.84    1.18
  -1   0  14    0.67    1.05
  -1   0  14   -0.18    1.11
   0   0  14    1.98    1.33
   0   0  14    0.96    1.22
   1   0  14    1.95    1.25
   1   0  14    3.60    1.28
   2   0  14    0.91    1.27
   2   0  14    0.90    1.25
   3   0  14    1.03    1.24
   3   0  14    1.34    1.30
   4   0  14    0.44    1.19
   4   0  14    0.79    1.28
   5   0  14    0.52    1.23
   5   0  14    0.28    1.25
   6   0  14    0.70    1.43
   6   0  14    0.79    1.39
   7   0  14    2.90    1.51
   7   0  14    1.12    1.48
   8   0  14    0.49    1.53
   8   0  14    1.77    1.55
   9   0  14    2.29    1.61
   9   0  14    0.63    1.64
  10   0  14    4.56    1.89
  10   0  14    4.60    1.96
  11   0  14    1.09    2.15
  11   0  14   -0.40    2.16
  17  -1 -14   -2.85    1.35
 -17   1  14    3.21    2.19
  16  -1 -14   -2.23    1.29
 -16   1  14    2.78    1.85
  15  -1 -14    0.21    1.20
 -15   1  14    0.70    1.79
  14  -1 -14    0.29    1.22
 -14   1  14    1.71    1.55
  13  -1 -14    3.18    1.25
 -13   1  14    2.92    1.55
  12  -1 -14    4.11    1.20
 -12   1  14    6.26    1.46
  11  -1 -14    1.50    1.05
 -11   1  14    0.29    1.12
 -10   1  14    2.92    1.30
  -9   1  14    2.21    1.26
  -8   1  14   10.70    1.77
  -7   1  14    1.48    1.20
  -6   1  14    5.58    1.50
  -6   1  14    7.21    1.23
  -5   1  14    2.31    1.25
  -5   1  14   -0.52    1.29
  -4   1  14    1.15    1.10
  -4   1  14    0.87    1.17
  -3   1  14    6.72    1.30
  -3   1  14   10.76    1.79
  -2   1  14    1.35    1.09
  -2   1  14   -0.97    0.98
  -1   1  14    1.51    1.16
   0   1  14    2.15    1.27
   1   1  14    2.01    1.29
   2   1  14    4.46    1.31
   3   1  14    4.77    1.33
   3   1  14    5.51    1.43
   4   1  14   -0.18    1.20
   4   1  14    1.22    1.28
   5   1  14   -0.32    1.26
   5   1  14   -0.27    1.37
   6   1  14    0.36    1.41
   6   1  14    3.39    1.46
   7   1  14   -0.63    1.41
   7   1  14    0.86    1.51
   8   1  14   -0.39    1.62
   8   1  14    1.02    1.55
   9   1  14    1.03    1.81
   9   1  14    0.90    1.62
  10   1  14    1.49    2.00
  10   1  14   -0.50    1.87
  11   1  14    1.21    2.17
  17  -2 -14    1.91    1.53
 -17   2  14    3.65    2.18
  16  -2 -14    0.30    1.35
 -16   2  14   -0.35    1.71
  15  -2 -14    2.36    1.25
 -15   2  14    2.14    1.53
  14  -2 -14    0.42    1.24
 -14   2  14    2.82    1.49
  13  -2 -14    1.01    1.15
 -13   2  14    0.71    1.44
 -12   2  14    1.11    1.26
 -11   2  14    1.78    1.25
 -10   2  14    1.69    1.09
  -9   2  14    1.48    1.08
  -8   2  14    1.03    1.13
  -7   2  14    6.42    1.31
  -7   2  14    6.00    1.41
  -6   2  14    0.14    1.16
  -6   2  14    1.18    1.14
  -5   2  14    0.09    1.24
  -5   2  14    0.85    1.19
  -4   2  14    4.71    1.29
  -4   2  14    3.66    1.41
  -3   2  14   -0.51    1.15
  -3   2  14    0.07    1.17
  -2   2  14   -0.85    1.15
  -1   2  14    0.98    1.17
   0   2  14   -1.40    1.10
   1   2  14    4.36    1.38
   1   2  14    7.13    1.48
   2   2  14   11.22    1.95
   3   2  14    3.01    1.43
   4   2  14    0.95    1.37
   5   2  14    2.40    1.35
   5   2  14    0.00    1.41
   6   2  14   -0.35    1.39
   6   2  14    0.31    1.42
   7   2  14    0.31    1.47
   7   2  14    0.38    1.41
   8   2  14    2.78    1.62
   8   2  14    2.59    1.73
   9   2  14    1.38    1.73
   9   2  14    1.43    1.78
  10   2  14    3.07    1.99
  10   2  14    1.21    1.84
  11   2  14   -1.91    2.01
  17  -3 -14    0.18    1.55
  16  -3 -14    0.68    1.44
 -16   3  14   -0.83    1.78
  15  -3 -14    1.20    1.38
 -15   3  14    2.02    1.67
 -14   3  14    0.04    1.40
 -13   3  14    0.98    1.33
 -12   3  14    3.99    1.42
 -11   3  14    4.16    1.33
 -10   3  14    3.61    1.29
  -9   3  14    4.04    1.22
  -8   3  14   -0.93    1.46
  -8   3  14    0.66    1.11
  -7   3  14    6.03    1.32
  -7   3  14    5.51    1.35
  -6   3  14   -0.25    1.14
  -6   3  14    1.70    1.24
  -5   3  14    5.66    1.39
  -5   3  14    2.97    1.26
  -4   3  14   -0.78    1.45
  -4   3  14   -0.14    1.22
  -3   3  14   -1.57    1.23
  -2   3  14    2.94    1.35
  -1   3  14    0.31    1.14
  -1   3  14   -1.78    1.05
   0   3  14   -0.04    1.27
   0   3  14    1.66    1.20
   1   3  14    6.70    1.42
   1   3  14    4.26    1.45
   2   3  14    4.79    1.45
   2   3  14    6.84    1.46
   3   3  14    0.66    1.26
   3   3  14   -1.47    1.17
   4   3  14    3.13    1.43
   4   3  14    0.38    1.39
   5   3  14    1.02    1.36
   6   3  14   -2.40    1.41
   7   3  14   -1.11    1.41
   7   3  14    2.99    1.65
   8   3  14    5.91    1.77
   8   3  14   -1.78    1.69
   9   3  14    4.22    2.13
   9   3  14   -1.64    1.87
 -16   4  14    1.10    1.76
 -15   4  14    2.82    1.68
 -14   4  14   -0.13    1.42
 -13   4  14    2.31    1.46
 -12   4  14    2.14    1.42
 -11   4  14    6.03    1.54
 -10   4  14   -1.51    1.48
 -10   4  14    1.49    1.17
  -9   4  14    3.25    1.29
  -9   4  14    4.58    1.70
  -8   4  14    3.31    1.70
  -8   4  14    2.51    1.24
  -7   4  14    0.99    1.65
  -7   4  14    2.28    1.26
  -6   4  14    0.94    1.32
  -6   4  14    1.09    1.21
  -5   4  14   -0.06    1.19
  -5   4  14   -1.44    1.25
  -4   4  14   -0.65    1.28
  -3   4  14    7.83    1.49
  -2   4  14    5.46    1.69
  -1   4  14    8.12    1.83
  -1   4  14    9.79    1.68
   0   4  14   -0.19    1.17
   0   4  14   -1.41    1.13
   1   4  14   -0.18    1.20
   1   4  14   -0.32    1.30
   2   4  14    0.87    1.29
   2   4  14   -0.02    1.36
   3   4  14    3.30    1.40
   3   4  14    0.26    1.40
   4   4  14    4.83    1.55
   4   4  14    4.11    1.54
   5   4  14    0.06    1.44
   5   4  14    2.42    1.53
   6   4  14   -0.16    1.61
   6   4  14    0.57    1.60
   7   4  14    4.04    1.89
   7   4  14    0.83    1.64
   8   4  14    0.56    1.81
   9   4  14    0.15    1.84
  10   4  14    0.09    2.25
 -17   5  14    0.94    1.91
 -16   5  14    1.86    1.86
 -15   5  14   -0.27    1.59
 -14   5  14    2.61    1.53
 -13   5  14    1.15    1.40
 -12   5  14    1.68    1.35
 -11   5  14    2.99    1.69
 -11   5  14    2.97    1.47
 -10   5  14   -1.31    1.66
 -10   5  14    0.07    1.20
  -9   5  14    3.21    1.23
  -9   5  14    3.75    1.73
  -8   5  14    0.38    1.74
  -8   5  14    0.26    1.22
  -7   5  14    4.89    1.84
  -7   5  14    3.34    1.33
  -6   5  14    2.33    1.23
  -5   5  14    4.22    1.47
  -5   5  14    6.53    1.48
  -4   5  14    0.83    1.49
  -4   5  14    1.58    1.28
  -3   5  14   10.23    1.72
  -3   5  14   10.92    2.04
  -2   5  14    8.41    2.06
  -1   5  14    6.86    1.88
  -1   5  14    4.95    1.58
   0   5  14    3.44    1.46
   0   5  14    1.68    1.54
   1   5  14    5.31    1.65
   1   5  14    1.62    1.59
   2   5  14   -0.06    1.63
   2   5  14   -1.42    1.52
   3   5  14    0.66    1.32
   3   5  14    0.28    1.49
   4   5  14    0.23    1.47
   4   5  14    1.33    1.54
   5   5  14   -0.80    1.57
   5   5  14    0.36    1.59
   6   5  14    0.82    1.71
   6   5  14    1.97    1.88
   7   5  14   -0.64    1.64
   8   5  14   -0.95    1.99
   9   5  14   -1.43    2.03
 -17   6  14    0.92    1.93
 -16   6  14    4.80    1.84
 -15   6  14    2.26    1.64
 -14   6  14    0.54    1.53
 -13   6  14    1.38    1.46
 -12   6  14    1.08    1.58
 -12   6  14    2.28    1.92
 -11   6  14    1.19    1.33
 -11   6  14   -0.27    1.85
 -10   6  14    3.86    1.95
 -10   6  14    2.61    1.44
  -9   6  14   -0.79    1.90
  -9   6  14    0.37    1.27
  -8   6  14    0.77    1.25
  -7   6  14   -1.73    1.59
  -7   6  14   -0.70    1.31
  -6   6  14   -1.63    1.26
  -6   6  14   -0.29    1.26
  -5   6  14   -0.77    1.26
  -5   6  14    0.05    1.35
  -4   6  14    2.98    1.41
  -4   6  14    3.37    1.55
  -3   6  14    1.07    1.62
  -3   6  14    3.13    1.59
  -2   6  14   -0.48    1.54
  -2   6  14   -0.71    1.39
  -1   6  14    0.57    1.93
  -1   6  14    0.42    1.61
   0   6  14   11.12    2.76
   0   6  14   11.33    1.89
   1   6  14    0.94    1.71
   1   6  14    0.08    1.82
   2   6  14   11.49    1.98
   2   6  14    7.02    1.83
   3   6  14    2.38    1.88
   3   6  14    1.88    1.66
   4   6  14   -0.94    1.72
   4   6  14    0.77    1.96
   5   6  14   -0.69    1.77
   6   6  14    1.71    2.29
   7   6  14   -0.43    2.36
 -17   7  14   -0.60    1.83
 -15   7  14    2.94    1.93
 -14   7  14    0.89    1.67
 -13   7  14    0.40    1.52
 -12   7  14    1.61    1.58
 -11   7  14    0.49    1.40
 -11   7  14    2.95    1.94
 -10   7  14    1.30    1.83
 -10   7  14    1.32    1.43
  -9   7  14    0.36    1.41
  -9   7  14    0.96    1.87
  -8   7  14    1.68    1.84
  -8   7  14    1.75    1.56
  -7   7  14    0.07    1.34
  -7   7  14   -2.10    1.67
  -6   7  14   -0.80    1.74
  -6   7  14    1.77    1.39
  -5   7  14    0.75    1.38
  -5   7  14   -0.49    1.47
  -4   7  14    1.92    1.55
  -4   7  14    2.96    1.68
  -3   7  14    1.77    1.61
  -2   7  14    3.69    1.71
  -2   7  14    2.40    1.84
  -1   7  14   -1.33    1.64
  -1   7  14   -0.54    1.86
   0   7  14    0.10    1.67
   0   7  14    2.18    2.23
   1   7  14   -1.21    1.74
   1   7  14    0.19    2.41
   2   7  14    9.82    2.99
   3   7  14   -0.58    2.76
   4   7  14   -2.26    2.36
   5   7  14    3.63    2.50
   6   7  14    1.92    2.68
 -15   8  14   -1.05    1.75
 -14   8  14    1.64    1.71
 -14   8  14    0.97    2.20
 -13   8  14    0.61    1.63
 -13   8  14   -2.53    1.99
 -12   8  14    2.59    2.03
 -12   8  14    1.48    1.65
 -11   8  14    2.24    1.63
 -11   8  14    1.83    2.07
 -10   8  14    2.50    1.58
 -10   8  14    0.32    1.95
  -9   8  14    0.84    1.62
  -9   8  14    2.03    2.07
  -8   8  14    1.74    1.52
  -8   8  14    1.11    1.98
  -7   8  14    1.21    1.58
  -7   8  14    2.67    1.96
  -6   8  14    2.13    1.62
  -6   8  14   -0.56    2.02
  -5   8  14    3.17    1.61
  -4   8  14   -2.11    1.52
  -4   8  14   -0.99    1.48
  -3   8  14   -0.52    1.61
  -2   8  14    2.99    1.67
  -2   8  14    0.62    1.71
  -1   8  14    0.86    1.84
  -1   8  14   -0.80    2.16
   0   8  14    2.06    1.86
   0   8  14   -1.67    2.20
   1   8  14    2.18    1.91
   1   8  14   -1.03    2.18
   2   8  14    1.45    2.67
   3   8  14    0.42    2.63
   4   8  14    0.79    3.14
   5   8  14    5.96    3.64
   7   8  14    3.64    4.10
 -16   9  14   -2.64    1.73
 -15   9  14   -1.68    1.75
 -14   9  14   -2.05    1.85
 -14   9  14    3.36    2.51
 -13   9  14    2.80    1.86
 -13   9  14   -3.23    2.26
 -12   9  14    2.68    1.87
 -12   9  14    5.16    2.31
 -11   9  14    2.48    1.77
 -11   9  14    4.07    2.27
 -10   9  14    0.56    2.11
 -10   9  14   -0.41    1.66
  -9   9  14    3.02    2.15
  -9   9  14    0.66    1.63
  -8   9  14    1.18    1.65
  -8   9  14    1.29    1.94
  -7   9  14    3.30    2.06
  -7   9  14    2.37    1.82
  -6   9  14    1.74    1.98
  -6   9  14    3.10    1.74
  -5   9  14    1.80    1.70
  -5   9  14   -1.54    1.81
  -4   9  14    0.21    1.60
  -4   9  14    2.86    1.67
  -3   9  14    3.74    1.97
  -2   9  14   -1.06    1.82
  -2   9  14   -1.31    1.72
  -1   9  14   -1.22    1.84
  -1   9  14   -2.63    1.88
   0   9  14    0.19    1.74
   1   9  14   -2.88    2.35
   2   9  14   -2.09    2.42
   3   9  14   -3.39    2.65
   4   9  14    3.34    2.91
 -14  10  14    1.18    2.03
 -14  10  14   -1.57    2.60
 -13  10  14   -0.99    1.99
 -13  10  14   -1.37    2.41
 -12  10  14    4.14    2.60
 -12  10  14   -1.28    1.87
 -11  10  14    4.05    2.39
 -11  10  14    1.09    1.79
 -10  10  14    0.76    2.30
 -10  10  14   -0.43    1.85
  -9  10  14    3.89    2.21
  -9  10  14    0.01    1.83
  -8  10  14    0.35    2.17
  -8  10  14    0.46    1.93
  -7  10  14   -0.29    1.80
  -7  10  14    1.77    2.09
  -6  10  14    0.01    1.79
  -6  10  14    2.26    2.02
  -5  10  14    0.22    2.26
  -5  10  14    1.38    1.80
  -4  10  14    1.58    1.80
  -4  10  14    0.68    1.72
  -3  10  14    0.28    1.77
  -2  10  14   -1.21    1.92
  -2  10  14   -0.61    1.89
  -1  10  14    1.29    2.15
   0  10  14   -0.38    2.04
   1  10  14   -0.13    2.04
   2  10  14   -0.41    2.14
   3  10  14    0.15    2.54
   4  10  14   -4.68    3.10
 -15  11  14    2.56    2.17
 -14  11  14   -0.47    2.16
 -14  11  14   -2.38    2.84
 -13  11  14   -0.24    2.69
 -13  11  14    0.06    2.16
 -12  11  14   -2.61    1.94
 -12  11  14    8.24    2.81
 -11  11  14    4.11    2.61
 -11  11  14   -0.91    2.05
 -10  11  14    1.01    2.45
 -10  11  14   -1.55    2.10
  -9  11  14    6.83    2.43
  -9  11  14   -2.11    1.92
  -8  11  14    0.17    2.25
  -8  11  14    2.16    2.02
  -7  11  14    3.07    2.06
  -7  11  14    1.82    2.11
  -6  11  14    0.63    2.14
  -6  11  14    2.87    1.92
  -5  11  14   -2.55    1.95
  -5  11  14    1.79    1.96
  -4  11  14    1.67    1.93
  -4  11  14    3.63    2.32
  -3  11  14    2.29    1.72
  -3  11  14   -0.08    2.02
  -2  11  14    1.01    2.10
  -1  11  14    0.90    2.38
   0  11  14   -0.01    2.46
   1  11  14    1.97    2.52
 -13  12  14   -0.33    2.77
 -13  12  14   -4.89    2.32
 -12  12  14    5.29    2.91
 -12  12  14   -1.33    2.44
 -11  12  14    3.55    2.81
 -11  12  14    1.19    2.24
 -10  12  14   -1.29    2.23
 -10  12  14    0.44    2.79
  -9  12  14    3.86    2.63
  -9  12  14    0.77    2.26
  -8  12  14    7.50    2.66
  -8  12  14    2.50    2.22
  -7  12  14   -0.09    2.28
  -7  12  14   -3.77    2.06
  -6  12  14    0.32    2.12
  -6  12  14   -2.10    2.10
  -5  12  14   -1.25    2.13
  -5  12  14    4.67    2.16
  -4  12  14    0.94    2.25
  -4  12  14   -1.46    1.97
  -3  12  14   -2.22    2.33
  -2  12  14    1.24    2.19
  -1  12  14    0.43    1.95
   0  12  14    0.00    2.64
   1  12  14   -4.27    2.60
 -12  13  14   -5.59    2.54
 -12  13  14    7.37    3.17
 -11  13  14   -3.48    2.42
 -11  13  14    0.81    3.00
 -10  13  14   -3.67    2.29
 -10  13  14    2.05    2.80
  -9  13  14    4.34    2.87
  -9  13  14   -0.60    2.33
  -8  13  14   -0.18    2.34
  -8  13  14    6.68    2.83
  -7  13  14   -1.19    2.52
  -7  13  14   -3.77    2.19
  -6  13  14    5.32    2.54
  -6  13  14   -4.26    2.27
  -5  13  14    1.59    2.36
  -4  13  14    5.21    2.51
  -3  13  14   -0.02    2.35
  -1  13  14   -0.40    2.65
 -10  14  14    4.71    2.88
  -9  14  14    4.50    2.85
  -9  14  14   -5.62    2.62
  -8  14  14   -5.37    2.56
  -8  14  14    8.62    2.94
  -7  14  14    6.40    2.69
  -7  14  14    1.45    2.52
  -6  14  14    3.90    2.85
  -4  14  14    1.39    2.54
  -3  14  14    2.50    2.71
   2  16 -15    1.96    1.98
  -2 -16  15   -2.46    2.38
  -1 -16  15    1.96    2.39
   0 -16  15    5.92    2.45
   1 -16  15   -1.22    2.17
   2 -16  15    4.06    2.34
   3 -16  15    2.92    2.24
   4 -16  15    2.08    2.33
   5  15 -15   -3.28    1.52
  -5 -15  15    2.33    2.42
   4  15 -15   -0.18    1.62
  -4 -15  15    4.28    2.52
   3  15 -15    1.34    1.58
  -3 -15  15   -0.20    2.30
   2  15 -15   -1.82    1.70
  -2 -15  15    0.79    2.29
  -1 -15  15   -1.08    2.26
   0 -15  15    4.46    2.24
   1 -15  15    1.75    2.20
   2 -15  15    1.37    2.12
   3 -15  15   -0.17    2.21
   4 -15  15   -0.90    1.93
   5 -15  15   -1.23    2.08
   7 -15  15   -2.36    2.01
   7  14 -15    0.82    1.73
  -7 -14  15   -3.16    2.23
   6  14 -15   -0.41    1.36
  -6 -14  15    1.56    2.21
  -5 -14  15   -0.67    2.26
   4  14 -15   -0.30    1.48
  -4 -14  15    3.11    2.19
   3  14 -15    0.58    1.41
  -3 -14  15   -0.83    1.93
   2  14 -15    0.36    1.52
  -2 -14  15    1.38    2.03
  -1 -14  15    1.22    2.00
   0 -14  15    0.53    1.89
   1 -14  15    1.04    1.85
   2 -14  15   -0.53    1.91
   3 -14  15    0.84    1.96
   4 -14  15   -0.63    1.87
   5 -14  15   -0.52    2.01
   6 -14  15   -1.76    1.89
   7 -14  15   -0.24    2.25
   8 -14  15   -0.30    2.30
  -8 -13  15    3.15    2.39
   7  13 -15    1.08    1.52
  -7 -13  15    0.04    2.14
   6  13 -15    0.70    1.31
  -6 -13  15    2.21    2.09
   5  13 -15   -0.72    1.43
  -5 -13  15    2.26    2.20
   4  13 -15   -0.42    1.34
  -4 -13  15    1.06    1.95
   3  13 -15    1.16    1.36
  -3 -13  15    0.50    1.90
   2  13 -15    1.39    1.41
  -2 -13  15    1.69    1.81
  -1 -13  15    1.57    1.88
   0 -13  15    0.08    1.67
   1 -13  15    2.78    1.85
   2 -13  15    1.11    1.68
   3 -13  15    0.23    1.77
   4 -13  15   -0.16    1.71
   5 -13  15    1.05    1.78
   6 -13  15   -1.44    1.76
   7 -13  15    1.43    2.14
   8 -13  15   -1.28    1.97
   9 -13  15   -4.16    2.19
 -10 -12  15    1.03    2.40
  -9 -12  15    1.30    2.24
   8  12 -15   -2.33    1.21
  -8 -12  15    1.91    2.05
   7  12 -15    0.41    1.25
  -7 -12  15    0.28    1.94
   6  12 -15    0.82    1.26
  -6 -12  15    0.98    2.01
   5  12 -15   -2.06    1.12
  -5 -12  15    2.26    1.87
   4  12 -15    0.62    1.26
  -4 -12  15   -0.64    1.79
   3  12 -15    2.38    1.26
  -3 -12  15    1.89    1.66
   2  12 -15    0.24    1.39
  -2 -12  15    1.69    1.77
  -1 -12  15    3.58    1.78
   0 -12  15    3.11    1.75
   1 -12  15    2.19    1.66
   2 -12  15   -0.03    1.60
   3 -12  15    2.69    1.74
   4 -12  15    0.40    1.64
   5 -12  15   -1.94    1.72
   6 -12  15   -1.23    1.64
   7 -12  15    0.41    1.94
   8 -12  15   -2.26    1.85
  10 -12  15    1.61    2.04
  11  11 -15   -0.52    1.50
 -11 -11  15    1.38    2.52
 -10 -11  15    2.01    2.26
   9  11 -15   -1.74    1.31
  -9 -11  15    2.13    2.12
   8  11 -15   -1.46    1.21
  -8 -11  15    0.54    1.89
   7  11 -15    0.27    1.13
  -7 -11  15    4.55    1.96
   6  11 -15   -0.64    1.18
  -6 -11  15   -0.73    1.77
   5  11 -15   -0.32    1.29
  -5 -11  15   -0.77    1.68
   4  11 -15    2.59    1.17
  -4 -11  15    2.40    1.69
   3  11 -15    1.14    1.20
  -3 -11  15    0.68    1.63
  -2 -11  15   -0.28    1.68
  -1 -11  15    5.61    1.80
   0 -11  15   -1.60    1.53
   1 -11  15    1.58    1.55
   2 -11  15    1.06    1.52
   3 -11  15    1.08    1.62
   4 -11  15   -1.85    1.48
   5 -11  15   -1.19    1.52
   6 -11  15    1.89    1.71
   7 -11  15   -0.13    1.66
   8 -11  15   -3.31    1.74
   9 -11  15   -0.59    1.83
  11 -11  15   -2.69    2.21
  12  10 -15   -1.94    1.47
 -12 -10  15    1.25    2.46
 -11 -10  15    6.34    2.34
  10  10 -15    0.31    1.29
 -10 -10  15   -0.29    2.08
   9  10 -15   -0.39    1.18
  -9 -10  15    1.90    2.04
   8  10 -15    0.10    1.13
  -8 -10  15   -1.30    1.71
  -7 -10  15    5.26    2.04
   6  10 -15   -1.73    0.95
  -6 -10  15   -0.09    1.61
   5  10 -15    0.40    1.04
  -5 -10  15    0.40    1.63
   4  10 -15    3.51    1.16
  -4 -10  15    3.95    1.71
   3  10 -15   -0.28    1.02
  -3 -10  15   -1.24    1.52
  -2 -10  15    0.75    1.50
  -1 -10  15    4.43    1.57
   0 -10  15    1.00    1.54
   1 -10  15    2.75    1.50
   2 -10  15    0.39    1.56
   3 -10  15    1.39    1.48
   4 -10  15   -1.09    1.36
   5 -10  15   -0.29    1.58
   6 -10  15   -0.48    1.55
   7 -10  15    0.41    1.78
   8 -10  15   -0.08    1.92
   9 -10  15   -2.56    1.69
  10 -10  15    0.67    1.89
  11 -10  15    0.32    2.47
 -12  -9  15    2.56    2.32
  11   9 -15    1.23    1.33
 -11  -9  15    4.36    2.14
  10   9 -15    0.71    1.18
 -10  -9  15    2.52    2.03
   9   9 -15   -1.04    1.15
  -9  -9  15   -0.08    1.73
   8   9 -15    1.64    1.18
  -8  -9  15    0.18    1.78
   7   9 -15    0.18    1.02
  -7  -9  15    2.98    1.63
   6   9 -15   -0.62    0.99
  -6  -9  15    2.51    1.66
   5   9 -15    4.56    1.38
  -5  -9  15    6.66    1.71
   4   9 -15   -0.05    1.01
  -4  -9  15    0.30    1.45
   3   9 -15    1.32    1.01
  -3  -9  15    0.30    1.38
  -2  -9  15    1.07    1.44
  -1  -9  15    5.31    1.60
   0  -9  15    0.91    1.41
   1  -9  15    1.31    1.39
   2  -9  15   -0.88    1.36
   3  -9  15    0.13    1.35
   4  -9  15    1.97    1.49
   5  -9  15    1.37    1.55
   6  -9  15    0.20    1.59
   7  -9  15    3.67    1.87
   8  -9  15   -1.79    1.71
   9  -9  15   -0.45    1.73
  10  -9  15    1.27    1.96
  11  -9  15    0.64    2.14
  13   8 -15   -1.82    1.38
 -13  -8  15    0.78    2.32
  12   8 -15   -0.28    1.20
 -12  -8  15    4.33    2.16
  11   8 -15   -0.41    1.10
 -11  -8  15    4.62    1.98
  10   8 -15   -0.67    1.06
 -10  -8  15    2.23    1.78
   9   8 -15    0.81    1.10
  -9  -8  15    2.74    1.80
   8   8 -15    1.82    1.08
  -8  -8  15    0.98    1.72
   7   8 -15   -0.17    0.92
  -7  -8  15    2.41    1.75
   6   8 -15    0.23    1.03
  -6  -8  15    0.97    1.37
   5   8 -15    1.06    0.95
  -5  -8  15    0.35    1.37
   4   8 -15    0.35    1.05
  -4  -8  15   -0.09    1.32
  -3  -8  15    2.81    1.45
  -2  -8  15    2.08    1.44
  -1  -8  15    2.28    1.38
   0  -8  15    0.56    1.45
   1  -8  15    2.12    1.47
   2  -8  15    3.84    1.51
   3  -8  15    0.53    1.46
   4  -8  15    1.14    1.48
   5  -8  15    1.13    1.44
   6  -8  15   -1.56    1.55
   7  -8  15    1.27    1.69
   8  -8  15   -0.81    1.80
   9  -8  15   -1.68    1.67
  10  -8  15    2.62    1.87
  11  -8  15    1.19    1.94
  14   7 -15   -1.10    1.31
 -14  -7  15    3.74    2.38
  13   7 -15    0.95    1.33
 -13  -7  15    2.90    2.23
  12   7 -15    0.58    1.26
 -12  -7  15    3.31    1.83
  11   7 -15    0.12    1.06
 -11  -7  15    2.63    1.86
  10   7 -15    0.35    1.14
 -10  -7  15    2.68    1.74
   9   7 -15    0.29    1.08
  -9  -7  15    1.31    1.65
   8   7 -15   -0.62    0.94
  -8  -7  15   -0.83    1.49
  -7  -7  15    0.52    1.59
   6   7 -15    2.27    1.01
  -6  -7  15    1.11    1.40
   5   7 -15    0.70    1.00
  -5  -7  15    0.24    1.36
   4   7 -15    4.43    1.13
  -4  -7  15    6.05    1.56
  -3  -7  15    4.26    1.45
  -2  -7  15    3.71    1.45
  -1  -7  15    1.91    1.41
   0  -7  15    3.00    1.57
   1  -7  15    0.61    1.40
   2  -7  15    0.18    1.29
   3  -7  15    6.46    1.70
   4  -7  15    4.09    1.56
   5  -7  15    5.17    1.60
   6  -7  15    1.06    1.42
   7  -7  15    0.24    1.60
   8  -7  15   -0.90    1.82
   9  -7  15   -0.24    1.77
  10  -7  15    0.84    1.91
  11  -7  15   -0.02    1.91
  12  -7  15   -1.63    2.16
  14   6 -15    1.37    1.39
 -14  -6  15    3.93    2.23
  13   6 -15    1.37    1.26
 -13  -6  15    2.49    2.02
  12   6 -15    0.44    1.11
 -12  -6  15    4.09    1.85
  11   6 -15   -0.62    0.95
 -11  -6  15    2.65    1.69
  10   6 -15    0.73    1.01
 -10  -6  15    2.70    1.67
   9   6 -15    0.36    1.03
  -9  -6  15   -0.08    1.44
  -8  -6  15    0.65    1.51
   7   6 -15    2.50    1.03
  -7  -6  15    4.27    1.48
   6   6 -15    2.19    0.98
  -6  -6  15    0.33    1.36
   5   6 -15    0.38    0.98
  -5  -6  15   -0.25    1.23
  -4  -6  15   13.14    1.87
  -3  -6  15    5.49    1.44
  -2  -6  15   -0.18    1.27
  -1  -6  15    1.00    1.41
   0  -6  15   -0.29    1.35
   1  -6  15    1.50    1.38
   2  -6  15    4.43    1.56
   3  -6  15    1.57    1.41
   4  -6  15    4.79    1.51
   5  -6  15   -0.87    1.43
   6  -6  15    1.57    1.59
   7  -6  15    1.59    1.60
   8  -6  15    1.84    1.66
   9  -6  15    0.42    1.72
  10  -6  15   -1.77    1.80
  11  -6  15   -0.38    1.93
  12  -6  15   -1.68    2.09
 -15  -5  15    4.93    2.39
  14   5 -15    0.47    1.19
 -14  -5  15    3.32    2.00
  13   5 -15   -0.40    1.26
 -13  -5  15    0.30    1.76
  12   5 -15   -0.72    1.19
 -12  -5  15    2.17    1.58
  11   5 -15    2.23    1.13
 -11  -5  15    8.69    1.83
  10   5 -15    2.50    0.99
 -10  -5  15    5.27    1.64
   9   5 -15   -1.27    0.88
  -9  -5  15    1.43    1.43
   8   5 -15   -0.02    0.87
  -8  -5  15    1.70    1.44
   7   5 -15    3.07    0.91
  -7  -5  15    3.96    1.55
   6   5 -15   -0.06    0.92
  -6  -5  15    1.88    1.26
  -5  -5  15    1.67    1.28
  -4  -5  15    4.60    1.48
  -3  -5  15    4.60    1.40
  -2  -5  15    0.69    1.24
  -1  -5  15    0.57    1.29
   0  -5  15    1.26    1.44
   1  -5  15    4.58    1.62
   2  -5  15    5.01    1.56
   3  -5  15    8.17    1.70
   4  -5  15    0.62    1.38
   5  -5  15    1.75    1.47
   6  -5  15   -0.53    1.41
   7  -5  15   -2.21    1.38
   8  -5  15    0.90    1.66
   9  -5  15    5.85    1.86
  10  -5  15   -1.26    1.85
  11  -5  15   -0.73    2.02
  12  -5  15   -0.89    2.26
  15   4 -15   -0.11    1.45
 -15  -4  15    3.08    2.32
  14   4 -15   -0.98    1.21
 -14  -4  15    1.01    1.70
  13   4 -15   -0.60    1.14
 -13  -4  15   -0.76    1.55
  12   4 -15    0.16    1.15
 -12  -4  15    0.90    1.55
  11   4 -15    1.81    1.12
 -11  -4  15    4.19    1.59
  10   4 -15   -0.57    0.92
 -10  -4  15    1.99    1.44
   9   4 -15    0.62    0.95
  -9  -4  15    0.64    1.33
   8   4 -15    0.71    0.98
  -8  -4  15    2.19    1.55
   7   4 -15    3.65    1.06
  -7  -4  15    5.33    1.61
   6   4 -15    3.98    1.08
  -6  -4  15    4.53    1.62
  -5  -4  15    1.64    1.29
  -5  -4  15    3.40    1.18
  -4  -4  15    1.69    1.23
  -3  -4  15   -1.29    1.16
  -2  -4  15   -0.52    1.25
  -1  -4  15    0.25    1.32
   0  -4  15    3.13    1.44
   1  -4  15    4.84    1.63
   2  -4  15    6.23    1.59
   3  -4  15    1.26    1.40
   4  -4  15    4.11    1.51
   5  -4  15    3.92    1.52
   6  -4  15    0.37    1.50
   7  -4  15    0.33    1.47
   8  -4  15   -1.78    1.41
   9  -4  15    1.26    1.75
  10  -4  15    0.94    1.88
  11  -4  15    4.07    2.08
  12  -4  15    6.51    2.31
  12  -4  15    1.26    2.30
  16   3 -15   -0.59    1.47
 -16  -3  15    1.53    2.37
  15   3 -15   -0.51    1.32
 -15  -3  15    1.02    2.07
  14   3 -15   -0.47    1.13
 -14  -3  15    0.30    1.77
  13   3 -15    0.70    1.04
 -13  -3  15    2.25    1.62
  12   3 -15   -0.79    1.14
 -12  -3  15    2.11    1.55
  11   3 -15   -0.56    1.12
 -11  -3  15    1.35    1.43
  10   3 -15   -0.94    0.89
 -10  -3  15    1.37    1.33
   9   3 -15    0.35    0.99
  -9  -3  15    0.93    1.28
   8   3 -15    1.03    0.99
  -8  -3  15    0.90    1.27
   7   3 -15    1.26    0.94
  -7  -3  15   -2.48    1.29
  -6  -3  15    8.41    1.86
  -5  -3  15    1.51    1.23
  -5  -3  15    2.53    1.13
  -4  -3  15    1.26    1.14
  -4  -3  15   -0.34    1.26
  -3  -3  15    0.09    1.19
  -3  -3  15    2.38    1.30
  -2  -3  15   -0.09    1.19
  -1  -3  15    1.32    1.21
   0  -3  15    3.71    1.44
   1  -3  15   -0.30    1.33
   2  -3  15    1.54    1.49
   3  -3  15    1.71    1.32
   4  -3  15    4.13    1.51
   5  -3  15    3.65    1.55
   6  -3  15    1.22    1.44
   7  -3  15    0.88    1.55
   8  -3  15   -1.21    1.59
   9  -3  15    0.24    1.80
  10  -3  15    5.75    2.09
  10  -3  15   -2.91    1.80
  11  -3  15   -1.74    2.16
  12  -3  15   -0.43    2.31
  16   2 -15   -0.06    1.36
 -16  -2  15    0.19    2.18
  15   2 -15    0.16    1.23
 -15  -2  15    1.83    1.95
  14   2 -15    0.08    1.14
 -14  -2  15   -0.47    1.69
  13   2 -15   -1.05    1.00
 -13  -2  15    2.39    1.64
  12   2 -15    0.43    1.04
 -12  -2  15    1.18    1.43
  11   2 -15    0.20    0.97
 -11  -2  15    1.27    1.34
  10   2 -15    2.94    1.05
 -10  -2  15    4.45    1.38
   9   2 -15    1.30    0.96
  -9  -2  15   -0.44    1.30
   8   2 -15    0.70    1.02
  -8  -2  15    0.62    1.25
  -7  -2  15    2.97    1.34
  -6  -2  15    2.97    1.44
  -5  -2  15   -0.33    1.19
  -5  -2  15    0.66    1.07
  -4  -2  15    0.33    1.09
  -4  -2  15   -0.27    1.18
  -3  -2  15    0.07    1.11
  -3  -2  15    0.99    1.19
  -2  -2  15   -0.60    1.19
  -2  -2  15   -0.35    1.18
  -1  -2  15    8.16    1.50
  -1  -2  15    4.93    1.43
   0  -2  15    1.56    1.33
   0  -2  15    2.59    1.22
   1  -2  15    2.00    1.24
   1  -2  15    2.60    1.42
   2  -2  15    0.45    1.31
   3  -2  15    4.00    1.44
   4  -2  15   -0.28    1.32
   5  -2  15    2.98    1.41
   6  -2  15    3.38    1.48
   6  -2  15    4.70    1.67
   7  -2  15    5.62    1.76
   7  -2  15    2.48    1.68
   8  -2  15    2.92    1.78
   8  -2  15   -0.30    1.59
   9  -2  15    2.48    1.90
   9  -2  15    0.72    1.85
  10  -2  15   -1.38    1.98
  10  -2  15    1.28    1.93
  11  -2  15   -0.12    2.14
  16   1 -15   -1.08    1.38
 -16  -1  15    0.24    2.14
  15   1 -15   -2.13    1.21
 -15  -1  15    3.56    1.88
  14   1 -15   -1.20    1.24
 -14  -1  15    0.77    1.55
  13   1 -15    0.54    1.11
 -13  -1  15    1.79    1.46
  12   1 -15   -0.44    0.96
 -12  -1  15    1.57    1.38
  11   1 -15    0.80    0.98
 -11  -1  15    1.18    1.26
  10   1 -15    1.94    1.02
 -10  -1  15    4.09    1.35
   9   1 -15    0.71    0.93
  -9  -1  15    0.30    1.14
  -8  -1  15    4.76    1.46
  -7  -1  15    1.81    1.35
  -6  -1  15    1.19    1.31
  -6  -1  15    3.51    1.13
  -5  -1  15    1.79    1.10
  -5  -1  15    2.32    1.28
  -4  -1  15   -0.69    1.13
  -4  -1  15    1.12    1.15
  -3  -1  15    1.44    1.22
  -3  -1  15   -0.38    1.16
  -2  -1  15    5.61    1.36
  -2  -1  15    4.89    1.39
  -1  -1  15    1.33    1.31
   0  -1  15    1.23    1.24
   0  -1  15    0.03    1.24
   1  -1  15    0.03    1.17
   1  -1  15   -0.01    1.36
   2  -1  15    2.67    1.32
   2  -1  15    1.33    1.33
   3  -1  15    2.38    1.36
   3  -1  15    1.11    1.36
   4  -1  15    1.81    1.31
   4  -1  15    0.91    1.30
   5  -1  15    0.44    1.48
   5  -1  15    0.68    1.40
   6  -1  15    0.27    1.42
   6  -1  15    0.70    1.41
   7  -1  15    1.21    1.58
   7  -1  15   -0.62    1.48
   8  -1  15   -0.11    1.54
   8  -1  15    0.90    1.62
   9  -1  15   -1.43    1.73
   9  -1  15   -0.86    1.57
  10  -1  15    1.98    2.06
  10  -1  15    5.92    2.03
  11  -1  15    4.54    2.09
  11  -1  15    1.49    2.29
  17   0 -15   -2.12    1.46
 -17   0  15    1.33    2.50
  16   0 -15   -0.52    1.34
 -16   0  15   -2.37    1.77
  15   0 -15   -0.06    1.21
 -15   0  15    2.31    1.82
  14   0 -15    0.87    1.20
 -14   0  15    2.85    1.60
  13   0 -15    2.43    1.18
 -13   0  15    2.08    1.40
  12   0 -15    1.60    1.06
 -12   0  15    2.95    1.37
  11   0 -15    1.67    1.08
 -11   0  15    2.15    1.32
 -10   0  15   10.44    1.74
  -9   0  15    1.91    1.18
  -8   0  15    4.86    1.46
  -7   0  15    8.43    1.54
  -6   0  15    2.53    1.21
  -6   0  15   -0.53    1.22
  -5   0  15   -1.78    1.16
  -5   0  15    0.82    1.19
  -4   0  15    0.41    1.14
  -4   0  15    1.11    1.17
  -3   0  15    1.34    1.20
  -3   0  15   -0.05    1.15
  -2   0  15    4.71    1.38
  -2   0  15    5.81    1.43
  -1   0  15    4.61    1.46
  -1   0  15    5.27    1.36
   0   0  15    0.34    1.25
   0   0  15   -0.29    1.17
   1   0  15    0.44    1.30
   1   0  15    1.39    1.30
   2   0  15   -0.47    1.24
   2   0  15    2.23    1.30
   3   0  15    5.00    1.43
   3   0  15    5.03    1.41
   4   0  15    2.90    1.34
   4   0  15    0.80    1.31
   5   0  15    2.07    1.36
   5   0  15    1.10    1.42
   6   0  15    2.96    1.43
   6   0  15    2.45    1.46
   7   0  15    1.00    1.58
   7   0  15    3.15    1.50
   8   0  15    0.50    1.70
   8   0  15    1.51    1.51
   9   0  15    2.84    1.82
   9   0  15   -0.05    1.87
  10   0  15   -0.32    2.02
  10   0  15   -0.08    1.86
  11   0  15    2.02    2.10
  11   0  15    2.47    2.32
  17  -1 -15    0.96    1.52
 -17   1  15   -0.73    2.11
  16  -1 -15    1.70    1.43
 -16   1  15    3.96    1.85
  15  -1 -15    1.39    1.42
 -15   1  15    2.83    1.83
  14  -1 -15    0.71    1.19
 -14   1  15    0.49    1.53
  13  -1 -15   -0.44    1.12
 -13   1  15    0.81    1.47
  12  -1 -15    3.10    1.19
 -12   1  15    3.30    1.39
 -11   1  15    0.40    1.15
 -10   1  15    2.92    1.29
  -9   1  15    2.96    1.28
  -8   1  15    7.55    1.40
  -7   1  15    0.30    1.17
  -7   1  15    1.49    1.14
  -6   1  15   -0.70    1.29
  -6   1  15    1.09    1.12
  -5   1  15    1.18    1.35
  -5   1  15    3.36    1.30
  -4   1  15   -0.57    1.16
  -4   1  15    0.44    1.22
  -3   1  15    3.11    1.41
  -3   1  15    5.85    1.42
  -2   1  15    1.60    1.21
  -1   1  15    4.83    1.36
  -1   1  15    4.31    1.30
   0   1  15    0.30    1.19
   0   1  15   -0.35    1.16
   1   1  15   -0.03    1.24
   1   1  15    1.50    1.27
   2   1  15    0.81    1.35
   2   1  15    0.97    1.23
   3   1  15   -0.59    1.31
   3   1  15    0.71    1.20
   4   1  15    2.10    1.35
   4   1  15    4.86    1.46
   5   1  15    0.88    1.41
   5   1  15   -1.13    1.28
   6   1  15   -0.24    1.26
   6   1  15   -1.98    1.39
   7   1  15    0.99    1.61
   7   1  15   -0.22    1.52
   8   1  15    0.23    1.62
   8   1  15    2.43    1.76
   9   1  15    2.15    1.87
   9   1  15   -0.37    1.60
  10   1  15   -0.71    2.01
  17  -2 -15    2.32    1.72
 -17   2  15    0.47    1.95
  16  -2 -15    1.30    1.49
 -16   2  15    2.97    1.78
  15  -2 -15   -0.34    1.31
 -15   2  15   -0.83    1.67
 -14   2  15    1.62    1.52
 -13   2  15    1.00    1.41
 -12   2  15    2.85    1.41
 -11   2  15   -0.68    1.14
 -10   2  15    0.37    1.18
  -9   2  15    3.20    1.26
  -8   2  15    1.51    1.23
  -8   2  15   -1.29    1.44
  -7   2  15    1.75    1.23
  -7   2  15    1.23    1.17
  -6   2  15   -0.18    1.20
  -6   2  15    2.84    1.27
  -5   2  15    0.56    1.33
  -5   2  15    0.13    1.36
  -4   2  15   -1.17    1.32
  -4   2  15    1.26    1.30
  -3   2  15    4.21    1.56
  -2   2  15    0.31    1.24
  -2   2  15    0.71    1.29
  -1   2  15    0.20    1.18
  -1   2  15   -0.27    1.17
   0   2  15    0.44    1.23
   0   2  15   -0.20    1.19
   1   2  15    1.60    1.31
   1   2  15    1.10    1.29
   2   2  15    3.41    1.30
   2   2  15    3.63    1.37
   3   2  15    4.62    1.41
   3   2  15    7.66    1.69
   4   2  15    2.56    1.52
   4   2  15    2.16    1.38
   5   2  15    1.10    1.36
   5   2  15   -0.48    1.43
   6   2  15    1.95    1.55
   6   2  15    0.64    1.34
   7   2  15    2.30    1.68
   7   2  15    4.22    1.73
   8   2  15    1.34    1.80
   8   2  15   -0.57    1.53
   9   2  15   -0.40    1.89
   9   2  15    1.18    1.92
  10   2  15   -1.12    1.99
 -17   3  15    4.14    2.11
 -16   3  15    1.97    1.88
 -15   3  15    1.00    1.53
 -14   3  15    1.82    1.48
 -13   3  15    0.05    1.43
 -12   3  15   -0.52    1.33
 -11   3  15    2.17    1.34
 -10   3  15    1.93    1.23
  -9   3  15    0.09    1.16
  -9   3  15    0.43    1.60
  -8   3  15    0.16    1.21
  -8   3  15   -1.12    1.54
  -7   3  15   -1.52    1.27
  -7   3  15    0.20    1.18
  -6   3  15    1.71    1.29
  -6   3  15    1.91    1.37
  -5   3  15    8.74    1.54
  -5   3  15    9.62    1.64
  -4   3  15    3.98    1.56
  -3   3  15    3.88    1.34
  -3   3  15   -0.78    1.27
  -2   3  15    0.72    1.49
  -2   3  15    0.31    1.29
  -1   3  15    3.06    1.26
  -1   3  15    2.66    1.32
   0   3  15    0.06    1.39
   0   3  15    1.73    1.22
   1   3  15    7.21    1.55
   1   3  15    7.50    1.52
   2   3  15    3.26    1.60
   2   3  15    5.21    1.42
   3   3  15    2.40    1.55
   3   3  15    6.43    1.49
   4   3  15    2.61    1.45
   4   3  15   -0.67    1.56
   5   3  15   -1.43    1.47
   5   3  15    0.20    1.47
   6   3  15   -2.33    1.59
   6   3  15    1.29    1.54
   7   3  15   -1.68    1.60
   7   3  15   -1.04    1.64
   8   3  15   -0.25    1.83
   8   3  15   -3.00    1.87
 -17   4  15    1.94    2.12
 -16   4  15   -0.54    1.78
 -15   4  15    0.41    1.51
 -14   4  15   -0.48    1.67
 -13   4  15    0.23    1.33
 -12   4  15    1.01    1.40
 -11   4  15    5.31    1.54
 -10   4  15    0.31    1.22
 -10   4  15    0.68    1.67
  -9   4  15    1.64    1.74
  -9   4  15    0.54    1.23
  -8   4  15   -0.86    1.19
  -8   4  15    0.41    1.74
  -7   4  15    0.36    1.20
  -7   4  15    1.16    1.28
  -6   4  15    1.57    1.36
  -6   4  15    1.34    1.32
  -5   4  15    3.31    1.49
  -4   4  15   10.08    1.76
  -4   4  15   12.87    1.95
  -3   4  15    3.79    1.79
  -3   4  15    0.46    1.44
  -2   4  15    4.76    1.51
  -2   4  15    5.99    1.72
  -1   4  15    0.16    1.44
  -1   4  15    1.04    1.37
   0   4  15    0.74    1.39
   0   4  15    3.18    1.64
   1   4  15    1.92    1.38
   2   4  15   -2.33    1.41
   3   4  15   -0.85    1.50
   4   4  15    0.04    1.51
   5   4  15    0.49    1.65
   6   4  15   -0.07    1.54
   7   4  15   -1.64    1.70
   8   4  15   -0.03    1.91
   9   4  15   -1.06    2.19
 -17   5  15    3.09    2.07
 -16   5  15    1.26    1.96
 -15   5  15    0.87    1.74
 -14   5  15    1.77    1.54
 -13   5  15    0.74    1.53
 -12   5  15    2.67    1.50
 -11   5  15    6.50    1.97
 -11   5  15    5.89    1.59
 -10   5  15   -1.21    1.86
 -10   5  15   -1.03    1.24
  -9   5  15    5.11    2.02
  -9   5  15    4.26    1.48
  -8   5  15   -0.67    1.95
  -8   5  15   -0.09    1.20
  -7   5  15    0.38    1.29
  -6   5  15    4.88    1.51
  -6   5  15    3.12    1.44
  -5   5  15   -1.47    1.28
  -5   5  15    0.78    1.36
  -4   5  15    1.21    1.32
  -4   5  15   -0.54    1.42
  -3   5  15    2.40    1.46
  -3   5  15    3.04    1.65
  -2   5  15   12.54    1.85
  -2   5  15   15.86    2.49
  -1   5  15    0.31    1.79
  -1   5  15   -0.10    1.47
   0   5  15    1.44    1.54
   1   5  15    9.88    2.00
   1   5  15    6.30    1.80
   2   5  15    0.98    1.64
   2   5  15   -0.64    1.87
   3   5  15   -0.93    1.51
   3   5  15    0.60    1.48
   4   5  15    2.73    1.66
   4   5  15    2.38    1.76
   5   5  15    2.62    1.65
   5   5  15    2.08    1.80
   6   5  15   -0.91    1.82
   7   5  15    0.30    2.00
   8   5  15    0.10    2.01
 -17   6  15    2.03    2.07
 -15   6  15    1.55    1.77
 -14   6  15    0.47    1.67
 -13   6  15    1.07    1.55
 -12   6  15    0.81    1.56
 -12   6  15    2.16    2.05
 -11   6  15    1.60    2.13
 -11   6  15    3.99    1.57
 -10   6  15   -0.39    2.22
 -10   6  15    1.47    1.52
  -9   6  15    0.94    1.41
  -8   6  15   -0.06    1.82
  -8   6  15    1.96    1.36
  -7   6  15    1.47    1.86
  -7   6  15    3.17    1.53
  -6   6  15    1.44    1.49
  -6   6  15    2.96    1.53
  -5   6  15    0.35    1.50
  -5   6  15    0.94    1.36
  -4   6  15    1.63    1.53
  -4   6  15    2.02    1.50
  -3   6  15    2.90    1.56
  -3   6  15    0.14    1.84
  -2   6  15    5.43    1.63
  -2   6  15    5.12    2.12
  -1   6  15    1.52    2.17
   0   6  15    2.14    1.81
   0   6  15    4.44    2.53
   1   6  15    5.71    1.96
   1   6  15    4.67    2.11
   2   6  15    0.79    1.92
   2   6  15    1.81    1.68
   3   6  15    2.06    1.85
   3   6  15    0.25    2.09
   4   6  15    0.88    1.77
   4   6  15    4.43    2.44
   5   6  15   -0.87    1.83
   6   6  15   -3.27    2.12
 -16   7  15    1.99    1.95
 -15   7  15    0.19    1.91
 -14   7  15    0.51    1.80
 -13   7  15    1.68    1.74
 -12   7  15    3.72    1.62
 -12   7  15    3.53    2.06
 -11   7  15    2.89    2.00
 -11   7  15    0.35    1.62
 -10   7  15    3.42    2.04
 -10   7  15    3.59    1.65
  -9   7  15   -2.32    1.91
  -9   7  15    3.45    1.60
  -8   7  15    1.09    1.47
  -8   7  15    2.80    2.01
  -7   7  15    2.24    1.95
  -7   7  15    2.61    1.51
  -6   7  15    3.25    1.57
  -6   7  15    1.54    1.39
  -5   7  15    0.41    1.51
  -5   7  15    0.66    1.68
  -4   7  15    0.88    1.57
  -4   7  15    1.96    1.62
  -3   7  15    4.62    1.76
  -3   7  15    6.25    1.73
  -2   7  15    1.82    1.64
  -2   7  15    0.87    1.90
  -1   7  15    0.78    2.34
   0   7  15    6.73    2.04
   0   7  15    8.84    2.70
   1   7  15    0.91    2.14
   1   7  15    4.05    2.79
   2   7  15    1.91    2.85
   2   7  15   -1.39    2.13
   3   7  15    3.82    2.92
   4   7  15    1.44    3.11
   5   7  15    1.65    2.41
   7   7  15    0.46    2.98
 -16   8  15   -0.41    2.04
 -15   8  15    3.06    1.92
 -14   8  15    1.46    1.95
 -13   8  15    0.39    1.86
 -13   8  15   -3.80    2.15
 -12   8  15   -1.30    1.75
 -12   8  15    3.82    2.34
 -11   8  15    4.12    2.20
 -11   8  15    3.16    1.71
 -10   8  15    0.69    1.61
 -10   8  15    3.25    2.21
  -9   8  15   -2.33    2.09
  -9   8  15    0.75    1.66
  -8   8  15    2.14    2.08
  -8   8  15    5.14    1.78
  -7   8  15    4.07    2.07
  -7   8  15    3.95    1.77
  -6   8  15    1.94    1.68
  -6   8  15   -1.59    2.19
  -5   8  15    0.16    1.66
  -5   8  15   -0.24    1.66
  -4   8  15    2.84    1.69
  -4   8  15    0.95    1.78
  -3   8  15   -0.67    1.74
  -3   8  15    2.39    1.81
  -2   8  15   -0.84    1.74
  -1   8  15    5.78    2.09
  -1   8  15    2.20    2.19
   0   8  15   -1.32    2.18
   0   8  15    2.55    2.16
   1   8  15    1.90    2.38
   1   8  15   -0.61    2.17
   2   8  15    2.34    2.84
   3   8  15    0.49    2.99
   4   8  15    2.44    3.06
   6   8  15    2.81    3.93
 -14   9  15    1.24    1.95
 -13   9  15   -0.33    2.38
 -13   9  15    2.89    1.97
 -12   9  15    1.88    1.88
 -12   9  15    6.14    2.57
 -11   9  15    3.24    2.40
 -11   9  15   -0.70    1.77
 -10   9  15   -1.95    1.84
 -10   9  15    2.11    2.38
  -9   9  15    1.31    2.19
  -9   9  15    1.71    1.79
  -8   9  15    1.36    1.79
  -8   9  15    1.33    2.21
  -7   9  15    0.52    1.86
  -7   9  15    2.70    2.31
  -6   9  15    3.18    1.94
  -6   9  15   -1.10    2.30
  -5   9  15    4.77    1.90
  -5   9  15    1.39    1.65
  -4   9  15    3.54    1.90
  -4   9  15   -0.53    1.63
  -3   9  15   -0.64    1.97
  -3   9  15    2.93    1.97
  -2   9  15   -0.53    1.87
  -1   9  15    1.82    1.97
  -1   9  15    1.98    2.19
   0   9  15    0.41    1.99
   1   9  15   -4.77    2.56
   2   9  15   -2.30    2.52
   3   9  15   -2.58    2.66
   5   9  15    1.93    3.46
 -15  10  15   -0.88    2.21
 -14  10  15   -2.67    1.98
 -14  10  15   -5.06    2.71
 -13  10  15   -1.84    2.02
 -13  10  15   -0.79    2.61
 -12  10  15    5.22    2.62
 -12  10  15    4.54    2.21
 -11  10  15    2.86    2.01
 -11  10  15    2.28    2.61
 -10  10  15    0.60    2.03
 -10  10  15    3.77    2.57
  -9  10  15    1.76    2.14
  -9  10  15    7.02    2.60
  -8  10  15    0.71    2.00
  -8  10  15    2.36    2.19
  -7  10  15   -0.52    1.86
  -7  10  15    0.78    2.28
  -6  10  15    1.71    2.28
  -6  10  15    3.02    2.07
  -5  10  15   -0.78    2.29
  -5  10  15    5.06    2.03
  -4  10  15    1.52    1.98
  -4  10  15   -0.60    1.50
  -3  10  15    0.17    2.00
  -3  10  15    3.56    1.96
  -2  10  15    3.69    2.20
  -2  10  15   -0.64    2.01
  -1  10  15   -0.72    2.19
   0  10  15   -0.24    2.20
   1  10  15    1.07    2.23
   2  10  15   -0.30    2.30
   3  10  15   -2.21    2.60
 -14  11  15   -3.65    2.93
 -13  11  15   -0.30    2.84
 -13  11  15   -1.21    2.21
 -12  11  15   -1.61    2.31
 -12  11  15    3.78    2.87
 -11  11  15   -0.79    2.19
 -11  11  15    5.85    2.77
 -10  11  15    2.95    2.61
 -10  11  15    1.91    2.26
  -9  11  15    2.15    2.27
  -9  11  15    7.25    2.69
  -8  11  15    4.42    2.24
  -8  11  15   -2.58    2.33
  -7  11  15    3.70    2.17
  -7  11  15   -0.08    2.52
  -6  11  15    1.97    2.18
  -6  11  15    2.48    2.49
  -5  11  15    1.79    2.16
  -5  11  15   -1.61    2.28
  -4  11  15    1.23    2.08
  -4  11  15   -1.14    2.36
  -3  11  15    0.13    1.72
  -2  11  15    0.19    2.23
  -1  11  15   -1.44    2.35
   0  11  15    2.89    3.06
   2  11  15   -3.47    2.51
 -12  12  15   -0.81    2.49
 -12  12  15    4.88    3.02
 -11  12  15   -0.82    2.51
 -11  12  15    5.51    2.97
 -10  12  15   -0.46    2.44
 -10  12  15    1.13    2.88
  -9  12  15   -2.09    2.39
  -9  12  15    8.21    2.82
  -8  12  15    0.25    2.66
  -8  12  15   -1.12    2.42
  -7  12  15    2.98    2.49
  -6  12  15   -2.07    2.34
  -6  12  15    2.97    2.77
  -5  12  15    2.63    2.45
  -5  12  15   -3.14    2.35
  -4  12  15   -0.43    2.37
  -3  12  15   -3.54    2.54
  -2  12  15    1.32    2.00
   0  12  15    0.87    2.44
 -11  13  15    6.18    3.23
 -11  13  15   -1.28    2.64
 -10  13  15    1.10    2.99
 -10  13  15   -0.86    2.75
  -9  13  15   -0.93    2.71
  -9  13  15    4.70    3.12
  -8  13  15    6.83    3.08
  -8  13  15   -4.00    2.60
  -7  13  15   -4.48    2.47
  -7  13  15   -2.80    2.60
  -6  13  15    2.18    2.81
  -6  13  15   -1.88    2.47
  -5  13  15    3.19    2.52
  -3  13  15   -2.16    2.65
  -2  13  15   -0.29    2.81
   0 -16  16    6.90    2.62
   1 -16  16    3.20    2.56
   2 -16  16    2.53    2.55
   4  15 -16    1.60    1.84
  -4 -15  16    4.46    2.51
   3  15 -16    1.78    1.95
  -3 -15  16    0.50    2.33
  -2 -15  16   -1.98    2.19
  -1 -15  16    0.36    2.23
   0 -15  16    5.19    2.29
   1 -15  16    0.44    2.22
   2 -15  16    2.05    2.22
   3 -15  16    1.53    2.26
   4 -15  16   -0.29    2.24
   6 -15  16   -2.07    2.08
  -6 -14  16    0.72    2.44
   5  14 -16    0.02    1.51
  -5 -14  16   -1.43    2.30
   4  14 -16    2.00    1.77
  -4 -14  16   -0.19    2.32
   3  14 -16    1.60    1.60
  -3 -14  16    0.04    2.04
  -2 -14  16    0.92    2.02
  -1 -14  16   -1.26    2.06
   0 -14  16    3.55    2.12
   1 -14  16    0.67    2.08
   2 -14  16    2.07    1.98
   3 -14  16    1.23    1.88
   4 -14  16    0.63    1.90
   5 -14  16    0.01    1.95
   7 -14  16   -1.19    2.01
   8  13 -16    0.20    1.42
  -8 -13  16    4.36    2.48
  -7 -13  16    1.13    2.21
   6  13 -16   -2.42    1.35
  -6 -13  16    0.94    2.25
   5  13 -16    0.47    1.49
  -5 -13  16    2.49    2.36
   4  13 -16    1.68    1.43
  -4 -13  16    2.12    2.04
   3  13 -16    1.67    1.50
  -3 -13  16    2.41    1.90
  -2 -13  16    1.41    1.84
  -1 -13  16    2.52    1.94
   0 -13  16    2.96    1.93
   1 -13  16    2.13    1.95
   2 -13  16    1.53    1.82
   3 -13  16    0.51    1.89
   4 -13  16   -1.50    1.84
   5 -13  16   -0.90    1.90
   6 -13  16    2.53    2.02
   7 -13  16   -0.34    1.95
   8 -13  16   -0.83    2.15
   9  12 -16   -0.44    1.42
  -9 -12  16    0.92    2.37
   8  12 -16    0.21    1.41
  -8 -12  16    2.00    2.16
   7  12 -16   -2.09    1.18
  -7 -12  16    2.85    2.20
   6  12 -16    0.27    1.37
  -6 -12  16    1.46    2.03
   5  12 -16    2.51    1.37
  -5 -12  16    0.92    1.95
   4  12 -16    0.35    1.28
  -4 -12  16   -0.66    1.96
   3  12 -16    0.74    1.29
  -3 -12  16    0.47    1.74
  -2 -12  16    2.07    1.63
  -1 -12  16    5.00    1.97
   0 -12  16   -0.11    1.79
   1 -12  16    0.03    1.75
   2 -12  16    0.86    1.73
   3 -12  16    0.30    1.74
   4 -12  16    0.01    1.73
   5 -12  16   -0.26    1.66
   6 -12  16   -0.17    1.83
   7 -12  16   -3.25    1.65
   9 -12  16   -1.28    2.19
  10  11 -16   -0.61    1.34
 -10 -11  16    4.05    2.50
   9  11 -16    0.64    1.36
  -9 -11  16    2.04    2.28
   8  11 -16    1.44    1.26
  -8 -11  16   -0.48    2.16
   7  11 -16   -1.37    1.19
  -7 -11  16    2.46    2.13
   6  11 -16    0.35    1.19
  -6 -11  16    0.44    1.84
   5  11 -16    1.17    1.29
  -5 -11  16   -0.53    1.74
   4  11 -16   -0.46    1.18
  -4 -11  16    0.88    1.75
   3  11 -16    3.02    1.33
  -3 -11  16    1.04    1.64
  -2 -11  16    2.27    1.76
  -1 -11  16    1.94    1.66
   0 -11  16   -1.95    1.60
   1 -11  16    1.67    1.75
   2 -11  16   -0.30    1.71
   3 -11  16    1.31    1.67
   4 -11  16    0.95    1.72
   5 -11  16   -1.33    1.55
   6 -11  16   -1.97    1.54
   7 -11  16   -0.70    1.83
   8 -11  16    0.26    2.12
  10 -11  16   -1.98    2.21
  11  10 -16   -1.17    1.47
 -11 -10  16    4.11    2.42
  10  10 -16   -1.63    1.27
 -10 -10  16    1.98    2.06
   9  10 -16    0.91    1.25
  -9 -10  16    1.69    2.06
   8  10 -16   -1.14    1.20
  -8 -10  16   -1.49    1.93
  -7 -10  16    5.73    2.11
   6  10 -16    3.79    1.42
  -6 -10  16    1.94    1.81
   5  10 -16    0.89    1.20
  -5 -10  16    0.05    1.57
   4  10 -16    3.26    1.25
  -4 -10  16    2.19    1.66
  -3 -10  16    3.33    1.62
  -2 -10  16    1.96    1.59
  -1 -10  16    2.60    1.69
   0 -10  16    0.04    1.61
   1 -10  16    1.46    1.61
   2 -10  16    0.20    1.59
   3 -10  16    1.97    1.55
   4 -10  16    0.36    1.48
   5 -10  16   -0.83    1.57
   6 -10  16   -1.30    1.54
   7 -10  16    2.60    1.79
   8 -10  16   -0.47    2.07
   9 -10  16   -0.84    1.94
  12   9 -16   -2.01    1.27
 -12  -9  16    4.12    2.40
  11   9 -16   -0.35    1.37
 -11  -9  16    4.35    2.24
  10   9 -16    0.26    1.15
 -10  -9  16    1.53    1.97
   9   9 -16   -0.77    1.10
  -9  -9  16    1.10    1.99
   8   9 -16   -0.45    1.00
  -8  -9  16   -2.13    1.71
   7   9 -16    0.17    1.09
  -7  -9  16    3.64    1.83
   6   9 -16    0.46    1.11
  -6  -9  16    0.38    1.68
   5   9 -16   -0.19    1.04
  -5  -9  16    1.07    1.53
   4   9 -16    1.29    1.25
  -4  -9  16    2.03    1.65
  -3  -9  16   -0.49    1.37
  -2  -9  16    3.75    1.57
  -1  -9  16    2.71    1.50
   0  -9  16    0.98    1.51
   1  -9  16   -0.16    1.53
   2  -9  16    0.54    1.52
   3  -9  16    0.59    1.44
   4  -9  16    1.47    1.55
   5  -9  16    3.81    1.65
   6  -9  16   -0.11    1.60
   7  -9  16   -3.10    1.50
   8  -9  16   -0.52    1.79
   9  -9  16    1.91    2.14
  10  -9  16   -1.61    2.12
  11  -9  16   -4.60    2.20
  13   8 -16   -1.65    1.45
 -13  -8  16    3.11    2.49
 -12  -8  16    3.74    2.16
  11   8 -16    0.16    1.17
 -11  -8  16    4.14    1.88
  10   8 -16   -0.02    1.18
 -10  -8  16    1.63    1.83
   9   8 -16   -1.18    1.17
  -9  -8  16    1.65    1.77
   8   8 -16   -0.30    1.04
  -8  -8  16    2.23    1.89
   7   8 -16    2.35    1.18
  -7  -8  16    2.98    1.76
   6   8 -16    1.57    1.02
  -6  -8  16   -0.92    1.45
   5   8 -16    1.66    1.20
  -5  -8  16    2.87    1.53
  -4  -8  16    0.23    1.39
  -3  -8  16    0.28    1.36
  -2  -8  16   -0.47    1.31
  -1  -8  16    1.97    1.50
   0  -8  16    1.81    1.53
   1  -8  16   -1.13    1.45
   2  -8  16    3.69    1.60
   3  -8  16    0.99    1.50
   4  -8  16    0.78    1.47
   5  -8  16    1.44    1.64
   6  -8  16    0.21    1.53
   7  -8  16   -0.93    1.58
   8  -8  16    0.94    1.98
   9  -8  16    0.06    2.01
  10  -8  16   -0.06    2.17
 -13  -7  16    2.82    2.23
  12   7 -16   -1.03    1.25
 -12  -7  16    4.13    2.14
  11   7 -16   -0.27    1.11
 -11  -7  16    1.94    1.85
  10   7 -16   -0.64    1.13
 -10  -7  16   -0.27    1.73
   9   7 -16   -0.93    0.96
  -9  -7  16    2.07    1.76
   8   7 -16    0.86    1.15
  -8  -7  16    0.63    1.62
   7   7 -16    2.06    1.02
  -7  -7  16    4.51    1.96
   6   7 -16    0.27    1.03
  -6  -7  16   -0.18    1.40
   5   7 -16    0.13    1.00
  -5  -7  16   -1.37    1.35
  -4  -7  16    1.18    1.34
  -3  -7  16    2.80    1.39
  -2  -7  16    1.93    1.42
  -1  -7  16    0.99    1.40
   0  -7  16    0.87    1.37
   1  -7  16    1.23    1.52
   2  -7  16    1.30    1.43
   3  -7  16   -0.33    1.36
   4  -7  16    5.75    1.78
   5  -7  16    0.28    1.51
   6  -7  16    0.10    1.50
   7  -7  16   -1.66    1.58
   8  -7  16    1.43    1.76
   9  -7  16   -0.03    1.94
  10  -7  16    2.99    2.07
  11  -7  16   -2.93    2.28
 -14  -6  16    4.34    2.24
  13   6 -16    0.87    1.19
 -13  -6  16    5.65    2.16
 -12  -6  16    4.79    1.88
  11   6 -16    0.64    1.11
 -11  -6  16    3.30    1.77
  10   6 -16   -0.92    0.98
 -10  -6  16    1.35    1.56
   9   6 -16    0.90    1.10
  -9  -6  16    2.91    1.79
   8   6 -16    0.59    0.97
  -8  -6  16   -1.15    1.55
  -7  -6  16    3.05    1.83
   6   6 -16    0.04    0.94
  -6  -6  16    1.42    1.44
  -5  -6  16    2.93    1.49
  -4  -6  16    0.70    1.40
  -3  -6  16    4.36    1.55
  -2  -6  16    1.71    1.33
  -1  -6  16    2.38    1.49
   0  -6  16    2.06    1.44
   1  -6  16   -0.13    1.37
   2  -6  16    1.84    1.47
   3  -6  16    1.18    1.49
   4  -6  16    0.27    1.48
   5  -6  16   -0.56    1.48
   6  -6  16    3.36    1.71
   7  -6  16    1.12    1.72
   8  -6  16   -1.51    1.67
   9  -6  16    1.33    2.00
  10  -6  16   -0.72    1.99
  11  -6  16    5.54    2.53
  15   5 -16   -0.47    1.41
 -15  -5  16    2.80    2.39
  14   5 -16    0.42    1.32
 -14  -5  16    3.82    2.14
  13   5 -16    0.17    1.32
 -13  -5  16    4.37    2.01
  12   5 -16   -0.47    1.17
 -12  -5  16    3.85    1.71
  11   5 -16   -0.52    1.03
 -11  -5  16    1.01    1.60
  10   5 -16    0.48    1.24
 -10  -5  16    1.96    1.61
   9   5 -16   -0.92    0.90
  -9  -5  16    1.25    1.49
   8   5 -16    0.62    1.00
  -8  -5  16    0.12    1.56
   7   5 -16    2.27    1.14
  -7  -5  16    2.73    1.49
  -6  -5  16    0.01    1.23
  -5  -5  16   -0.53    1.23
  -4  -5  16    3.17    1.47
  -3  -5  16    1.64    1.39
  -2  -5  16   -0.03    1.21
  -1  -5  16   -0.80    1.30
   0  -5  16    3.56    1.51
   1  -5  16    0.20    1.36
   2  -5  16    4.27    1.54
   3  -5  16    1.25    1.41
   4  -5  16    1.35    1.43
   5  -5  16    1.31    1.64
   6  -5  16   -0.26    1.50
   7  -5  16    1.50    1.68
   8  -5  16    0.76    1.69
   9  -5  16    0.41    1.77
  10  -5  16   -0.15    2.04
  11  -5  16   -0.46    2.15
  15   4 -16   -0.29    1.43
 -15  -4  16    0.15    2.25
  14   4 -16    1.04    1.28
 -14  -4  16    4.84    1.93
 -13  -4  16    5.31    1.97
  12   4 -16   -1.42    1.04
 -12  -4  16    2.24    1.62
  11   4 -16    0.55    1.16
 -11  -4  16    3.52    1.59
  10   4 -16    2.22    1.16
 -10  -4  16    4.94    1.66
   9   4 -16    0.15    0.97
  -9  -4  16    0.46    1.38
   8   4 -16   -0.03    0.90
  -8  -4  16    1.02    1.46
   7   4 -16    2.48    1.08
  -7  -4  16    0.28    1.70
  -6  -4  16    1.75    1.43
  -5  -4  16   -0.28    1.17
  -5  -4  16    1.69    1.18
  -4  -4  16    0.30    1.24
  -4  -4  16   -0.06    1.27
  -3  -4  16   -0.70    1.26
  -2  -4  16    0.50    1.29
  -1  -4  16    2.38    1.40
   0  -4  16    0.56    1.40
   1  -4  16    2.22    1.46
   2  -4  16    4.88    1.56
   3  -4  16    3.13    1.50
   4  -4  16    1.12    1.30
   5  -4  16    1.48    1.60
   6  -4  16   -0.23    1.49
   7  -4  16    0.55    1.66
   8  -4  16    0.15    1.63
   9  -4  16    1.37    1.87
  10  -4  16   -0.86    2.06
  11  -4  16    6.77    2.12
  11  -4  16   -1.96    2.19
  15   3 -16   -1.76    1.40
 -15  -3  16    1.91    2.16
  14   3 -16    0.58    1.20
 -14  -3  16    3.83    1.78
  13   3 -16   -1.65    1.14
 -13  -3  16    1.99    1.71
  12   3 -16   -0.68    1.08
 -12  -3  16    1.72    1.59
  11   3 -16    0.30    0.97
 -11  -3  16    1.95    1.45
  10   3 -16    1.81    1.12
 -10  -3  16    3.23    1.48
   9   3 -16    0.76    0.98
  -9  -3  16    0.21    1.25
   8   3 -16    1.88    0.98
  -8  -3  16    2.41    1.39
  -7  -3  16   -1.14    1.37
  -6  -3  16    0.25    1.56
  -5  -3  16   -0.22    1.17
  -5  -3  16    0.37    1.18
  -4  -3  16   -0.61    1.26
  -4  -3  16   -0.57    1.13
  -3  -3  16    0.82    1.31
  -3  -3  16    0.50    1.26
  -2  -3  16    5.87    1.54
  -2  -3  16    6.14    1.51
  -1  -3  16    1.14    1.32
   0  -3  16    0.85    1.29
   1  -3  16    2.31    1.40
   2  -3  16    4.20    1.51
   3  -3  16   -0.75    1.41
   4  -3  16    4.12    1.63
   5  -3  16    5.16    1.68
   6  -3  16    0.37    1.58
   7  -3  16   -1.46    1.57
   8  -3  16    1.82    1.80
   8  -3  16    4.39    1.85
   9  -3  16    3.87    2.00
   9  -3  16    1.25    1.90
  10  -3  16    2.97    1.99
  10  -3  16   -2.57    1.98
  11  -3  16    2.01    2.28
  11  -3  16    0.13    2.28
  15   2 -16   -2.11    1.36
 -15  -2  16    1.33    1.95
  14   2 -16    0.31    1.23
 -14  -2  16    2.17    1.69
  13   2 -16    0.63    1.29
 -13  -2  16    0.59    1.60
  12   2 -16    1.21    1.17
 -12  -2  16    0.71    1.51
  11   2 -16    0.74    1.05
 -11  -2  16    0.85    1.45
  10   2 -16    0.70    1.02
 -10  -2  16    0.86    1.33
  -9  -2  16    1.05    1.28
  -8  -2  16    5.97    1.56
  -7  -2  16   -0.25    1.30
  -6  -2  16    3.04    1.54
  -5  -2  16   -0.71    1.18
  -5  -2  16    0.36    1.12
  -4  -2  16   -0.69    1.09
  -4  -2  16   -1.02    1.19
  -3  -2  16    6.63    1.44
  -3  -2  16    5.94    1.60
  -2  -2  16    7.95    1.54
  -2  -2  16   10.20    1.58
  -1  -2  16   -0.72    1.25
  -1  -2  16   -0.03    1.27
   0  -2  16    0.53    1.30
   0  -2  16    1.01    1.35
   1  -2  16    0.49    1.30
   1  -2  16   -0.39    1.25
   2  -2  16    4.53    1.45
   2  -2  16    4.09    1.41
   3  -2  16    0.72    1.41
   3  -2  16    1.98    1.41
   4  -2  16    5.00    1.61
   4  -2  16    5.39    1.70
   5  -2  16    3.06    1.56
   5  -2  16    4.53    1.61
   6  -2  16    3.28    1.62
   6  -2  16    2.52    1.70
   7  -2  16    2.14    1.61
   7  -2  16    3.09    1.79
   8  -2  16    0.31    1.67
   8  -2  16    0.75    1.62
   9  -2  16   -0.74    1.82
   9  -2  16   -0.86    1.74
  10  -2  16   -0.11    2.04
  11  -2  16    0.74    2.26
  11  -2  16    2.25    1.93
  16   1 -16    0.47    1.46
  15   1 -16   -0.04    1.36
 -15  -1  16    1.15    1.72
  14   1 -16    1.44    1.23
 -14  -1  16   -0.07    1.65
  13   1 -16    2.22    1.33
 -13  -1  16   -0.42    1.45
  12   1 -16    0.96    1.23
 -12  -1  16    1.59    1.39
  11   1 -16   -0.69    1.08
 -11  -1  16    2.36    1.37
 -10  -1  16    3.37    1.44
  -9  -1  16    2.77    1.39
  -8  -1  16    1.20    1.30
  -7  -1  16    1.01    1.25
  -6  -1  16   -0.82    1.40
  -6  -1  16    3.61    1.24
  -5  -1  16   -0.62    1.18
  -5  -1  16    0.38    1.32
  -4  -1  16    2.06    1.43
  -4  -1  16    3.91    1.31
  -3  -1  16    0.70    1.32
  -3  -1  16    0.10    1.22
  -2  -1  16    0.87    1.23
  -1  -1  16    0.48    1.26
  -1  -1  16    1.99    1.28
   0  -1  16    2.23    1.37
   0  -1  16    4.36    1.32
   1  -1  16    2.23    1.38
   1  -1  16   -0.05    1.24
   2  -1  16    0.01    1.32
   2  -1  16    0.31    1.27
   3  -1  16    9.41    1.65
   3  -1  16    6.35    1.58
   4  -1  16    2.69    1.46
   4  -1  16    0.68    1.47
   5  -1  16    0.08    1.40
   5  -1  16   -0.16    1.55
   6  -1  16    2.82    1.73
   6  -1  16    4.11    1.65
   7  -1  16    2.42    1.71
   7  -1  16    1.80    1.78
   8  -1  16    1.28    1.80
   8  -1  16    2.38    1.65
   9  -1  16    3.25    1.74
   9  -1  16   -0.02    1.94
  10  -1  16    1.29    2.15
  16   0 -16    2.13    1.47
 -16   0  16    1.06    2.10
  15   0 -16    2.09    1.38
 -15   0  16    2.34    1.80
  14   0 -16    0.10    1.20
 -14   0  16    0.07    1.45
  13   0 -16    0.89    1.19
 -13   0  16    2.08    1.44
  12   0 -16    1.53    1.32
 -12   0  16    2.49    1.50
 -11   0  16    1.17    1.31
 -10   0  16    0.31    1.27
  -9   0  16    0.66    1.18
  -8   0  16    2.77    1.29
  -7   0  16    2.59    1.30
  -6   0  16   -1.31    1.27
  -6   0  16    1.76    1.36
  -5   0  16   -0.37    1.29
  -5   0  16    1.10    1.28
  -4   0  16    2.90    1.38
  -4   0  16    3.01    1.54
  -3   0  16    4.16    1.37
  -3   0  16    1.76    1.28
  -2   0  16    1.67    1.22
  -2   0  16   -0.25    1.27
  -1   0  16    1.70    1.35
  -1   0  16   -0.73    1.18
   0   0  16    3.64    1.39
   0   0  16    3.06    1.33
   1   0  16   -0.98    1.17
   1   0  16    1.17    1.30
   2   0  16    5.23    1.54
   2   0  16    3.81    1.34
   3   0  16    8.80    1.76
   3   0  16    7.79    1.65
   4   0  16    1.97    1.40
   4   0  16    0.72    1.42
   5   0  16    0.05    1.56
   5   0  16    3.58    1.55
   6   0  16    0.36    1.56
   6   0  16    1.88    1.56
   7   0  16    0.35    1.59
   7   0  16    1.11    1.74
   8   0  16    2.00    1.81
   8   0  16    1.16    1.56
   9   0  16   -2.98    1.65
   9   0  16    2.92    2.04
  10   0  16   -0.78    1.93
  10   0  16   -1.61    2.10
  16  -1 -16   -1.75    1.45
  15  -1 -16    0.77    1.45
 -15   1  16    1.25    1.69
  14  -1 -16    0.53    1.36
 -14   1  16    2.57    1.58
 -13   1  16    3.05    1.58
 -12   1  16    0.06    1.22
 -11   1  16    0.92    1.14
 -10   1  16    0.89    1.25
  -9   1  16    0.60    1.21
  -8   1  16    1.70    1.28
  -7   1  16    1.81    1.21
  -7   1  16    0.43    1.19
  -6   1  16    1.12    1.34
  -6   1  16    0.34    1.20
  -5   1  16    2.05    1.42
  -5   1  16    3.21    1.40
  -4   1  16    1.51    1.39
  -4   1  16    1.39    1.36
  -3   1  16   -0.32    1.21
  -2   1  16    0.81    1.24
  -2   1  16    2.76    1.37
  -1   1  16    4.32    1.39
  -1   1  16    4.36    1.39
   0   1  16    0.17    1.14
   0   1  16    0.80    1.31
   1   1  16    0.88    1.32
   1   1  16    0.47    1.25
   2   1  16    3.10    1.32
   2   1  16    3.94    1.51
   3   1  16    4.82    1.62
   3   1  16    5.52    1.51
   4   1  16    0.93    1.44
   4   1  16    0.15    1.50
   5   1  16   -0.48    1.38
   5   1  16    1.09    1.52
   6   1  16    0.45    1.61
   6   1  16    2.69    1.61
   7   1  16    1.39    1.74
   7   1  16   -0.37    1.52
   8   1  16    1.55    1.68
   8   1  16    0.54    1.84
   9   1  16   -2.31    2.05
  10   1  16    1.28    2.36
  10   1  16    0.45    1.79
 -15   2  16    3.81    1.86
 -14   2  16    1.73    1.63
 -13   2  16    0.73    1.55
 -12   2  16    2.02    1.36
 -11   2  16    1.29    1.24
 -10   2  16    0.64    1.25
  -9   2  16   -0.87    1.12
  -8   2  16    1.28    1.21
  -8   2  16   -1.44    1.67
  -7   2  16   -1.36    1.28
  -7   2  16    0.60    1.23
  -6   2  16    6.38    1.42
  -6   2  16    0.63    1.40
  -5   2  16    4.06    1.44
  -5   2  16    3.55    1.61
  -4   2  16    5.64    1.73
  -3   2  16    0.07    1.26
  -3   2  16   -0.80    1.35
  -2   2  16    3.35    1.41
  -2   2  16    2.36    1.35
  -1   2  16    1.11    1.36
  -1   2  16    0.29    1.19
   0   2  16    0.01    1.35
   0   2  16    0.62    1.24
   1   2  16    0.82    1.30
   1   2  16   -1.34    1.38
   2   2  16    0.18    1.28
   2   2  16    0.69    1.34
   3   2  16   -0.68    1.28
   3   2  16   -0.80    1.38
   4   2  16    2.74    1.62
   4   2  16    1.21    1.50
   5   2  16    1.23    1.40
   5   2  16    0.91    1.54
   6   2  16   -0.68    1.39
   6   2  16    1.88    1.68
   7   2  16    2.63    1.79
   7   2  16    0.23    1.72
   8   2  16   -0.16    1.80
   8   2  16    2.59    2.01
   9   2  16    7.68    2.28
   9   2  16   -2.49    1.98
 -15   3  16   -0.38    1.73
 -14   3  16    1.05    1.58
 -13   3  16    1.94    1.50
 -12   3  16    1.47    1.37
 -11   3  16    0.41    1.39
 -10   3  16    0.98    1.26
  -9   3  16   -0.43    1.73
  -9   3  16    0.50    1.26
  -8   3  16   -0.66    1.23
  -8   3  16   -0.69    1.77
  -7   3  16    1.20    1.22
  -7   3  16    0.99    1.33
  -6   3  16    7.99    1.68
  -6   3  16    6.60    1.52
  -5   3  16   -0.28    1.34
  -4   3  16    0.84    1.52
  -3   3  16   -1.10    1.40
  -3   3  16    1.89    1.38
  -2   3  16    0.25    1.33
  -2   3  16    0.66    1.47
  -1   3  16    1.79    1.31
  -1   3  16    2.06    1.38
   0   3  16    0.89    1.45
   0   3  16    2.09    1.38
   1   3  16   -0.04    1.45
   1   3  16    0.62    1.27
   2   3  16    0.29    1.29
   2   3  16   -0.56    1.33
   3   3  16    1.37    1.64
   3   3  16    3.60    1.53
   4   3  16    1.69    1.61
   4   3  16    4.02    1.58
   5   3  16    1.00    1.54
   6   3  16    1.18    1.69
   6   3  16   -2.22    1.59
   7   3  16   -2.67    1.69
   7   3  16    1.44    1.83
   9   3  16   -2.77    2.07
 -15   4  16    1.14    1.68
 -14   4  16    1.19    1.66
 -13   4  16    2.63    1.53
 -12   4  16    0.59    1.49
 -11   4  16    1.30    1.37
 -10   4  16    1.82    1.92
 -10   4  16    0.90    1.39
  -9   4  16   -0.51    1.95
  -9   4  16    0.71    1.37
  -8   4  16    1.84    1.95
  -8   4  16    0.42    1.26
  -7   4  16    4.85    1.49
  -7   4  16    4.88    1.57
  -6   4  16    3.17    1.42
  -6   4  16    0.03    1.36
  -5   4  16    0.60    1.44
  -5   4  16   -1.18    1.36
  -4   4  16    5.83    1.65
  -4   4  16    4.48    1.50
  -3   4  16    3.09    1.50
  -3   4  16    5.06    1.93
  -2   4  16    2.95    1.73
  -2   4  16    2.22    1.52
  -1   4  16    1.77    1.66
  -1   4  16   -1.14    1.50
   0   4  16    0.30    1.56
   0   4  16   -1.51    1.48
   1   4  16   -0.96    1.42
   1   4  16    1.36    1.36
   2   4  16   -0.21    1.41
   2   4  16   -0.30    1.46
   3   4  16    0.29    1.48
   3   4  16    3.71    1.55
   4   4  16    0.27    1.64
   4   4  16    0.95    1.55
   5   4  16    0.63    1.60
   5   4  16   -2.36    1.57
   6   4  16    2.28    1.80
   6   4  16   -1.78    1.74
   7   4  16   -1.01    1.83
   8   4  16   -1.12    2.10
 -16   5  16   -1.08    1.81
 -15   5  16    1.77    1.72
 -14   5  16    1.01    1.54
 -13   5  16    1.36    1.40
 -12   5  16    1.30    1.50
 -11   5  16   -1.04    2.13
 -11   5  16    2.27    1.53
 -10   5  16    1.49    1.36
 -10   5  16    1.11    2.24
  -9   5  16    2.00    1.54
  -9   5  16   -1.14    2.13
  -8   5  16    2.02    1.38
  -7   5  16    3.22    1.52
  -7   5  16    0.88    1.29
  -6   5  16    0.45    1.42
  -6   5  16    0.19    1.47
  -5   5  16    1.50    1.45
  -5   5  16    1.74    1.54
  -4   5  16    2.46    1.46
  -4   5  16    1.59    1.69
  -3   5  16    5.26    1.67
  -3   5  16    5.87    2.02
  -2   5  16    4.79    1.66
  -2   5  16    7.47    2.25
  -1   5  16    7.46    2.08
  -1   5  16    6.78    1.77
   0   5  16    2.13    1.61
   0   5  16    1.08    1.69
   1   5  16   -3.02    1.63
   1   5  16   -0.55    1.73
   2   5  16   -1.58    1.75
   2   5  16   -1.00    1.84
   3   5  16    3.83    2.11
   3   5  16    0.40    1.72
   4   5  16    1.37    1.61
   5   5  16    0.40    1.78
   6   5  16   -0.42    1.92
   7   5  16    1.83    2.15
 -16   6  16    1.06    1.95
 -15   6  16   -0.57    1.73
 -14   6  16    1.92    1.63
 -13   6  16    2.32    1.69
 -12   6  16    2.14    1.57
 -12   6  16    1.81    2.27
 -11   6  16    0.55    1.58
 -10   6  16    0.53    1.53
 -10   6  16    6.58    2.16
  -9   6  16    3.43    1.54
  -9   6  16    4.74    2.07
  -8   6  16    6.72    2.12
  -8   6  16    5.19    1.59
  -7   6  16   -1.83    1.94
  -7   6  16    0.96    1.56
  -6   6  16    0.23    1.41
  -6   6  16   -0.43    1.45
  -5   6  16   -0.45    1.46
  -5   6  16    1.96    1.64
  -4   6  16    1.63    1.69
  -4   6  16    0.25    1.63
  -3   6  16   -2.30    1.62
  -3   6  16    1.41    1.69
  -2   6  16    8.20    1.85
  -1   6  16    4.48    1.86
  -1   6  16    3.27    2.21
   0   6  16   -0.25    1.77
   0   6  16    3.10    2.44
   1   6  16    1.34    2.08
   2   6  16    1.82    2.19
   3   6  16   -0.25    2.44
   3   6  16    0.95    1.96
   4   6  16    0.21    1.88
   5   6  16    0.36    2.04
 -16   7  16    1.86    2.05
 -14   7  16   -2.63    1.78
 -13   7  16    1.39    1.70
 -12   7  16    5.42    2.35
 -12   7  16   -1.27    1.46
 -11   7  16    3.50    1.80
 -11   7  16    5.42    2.21
 -10   7  16    3.19    1.69
 -10   7  16    5.73    2.20
  -9   7  16    0.95    1.56
  -9   7  16    0.87    2.10
  -8   7  16    2.90    1.73
  -8   7  16    4.26    2.24
  -7   7  16    0.96    1.58
  -7   7  16   -2.44    2.11
  -6   7  16    0.96    1.72
  -6   7  16    1.98    1.57
  -5   7  16   -1.15    1.74
  -5   7  16   -1.79    1.67
  -4   7  16    0.40    1.70
  -4   7  16   -1.11    1.73
  -3   7  16    2.33    1.79
  -3   7  16    0.76    1.63
  -2   7  16   -1.08    1.92
  -2   7  16    5.99    1.89
  -1   7  16   -0.27    2.22
  -1   7  16    2.45    1.92
   0   7  16    3.31    2.43
   1   7  16    1.46    2.36
   1   7  16    5.43    2.87
   2   7  16    2.82    2.99
   2   7  16   -0.68    2.51
   3   7  16   -1.09    3.13
   4   7  16    2.51    3.24
   6   7  16   -1.76    3.03
 -14   8  16    2.14    1.96
 -13   8  16   -0.16    2.50
 -13   8  16    1.70    1.96
 -12   8  16    5.45    2.49
 -12   8  16    3.79    1.89
 -11   8  16    1.75    2.28
 -11   8  16    2.21    1.89
 -10   8  16    7.68    2.43
 -10   8  16    0.68    1.86
  -9   8  16    4.41    1.81
  -9   8  16   -0.01    2.31
  -8   8  16    1.60    1.80
  -8   8  16    0.16    2.31
  -7   8  16    3.74    1.89
  -7   8  16   -0.66    2.13
  -6   8  16    1.64    1.87
  -6   8  16    0.28    2.17
  -5   8  16    0.06    1.81
  -5   8  16   -1.27    1.67
  -4   8  16    3.58    1.89
  -4   8  16    0.47    1.80
  -3   8  16    1.48    1.86
  -3   8  16    3.91    1.99
  -2   8  16    1.01    2.04
  -2   8  16   -0.14    1.77
  -1   8  16    0.11    2.05
  -1   8  16   -3.74    2.11
   0   8  16    4.25    2.55
   0   8  16   -3.34    2.27
   1   8  16   -1.51    2.57
   2   8  16    3.01    2.80
   3   8  16   -1.70    2.93
   5   8  16    3.07    3.69
 -15   9  16    1.81    2.23
 -14   9  16    2.27    2.10
 -13   9  16    1.72    2.21
 -13   9  16    1.59    2.66
 -12   9  16    1.94    2.10
 -12   9  16    1.89    2.52
 -11   9  16    1.97    1.98
 -11   9  16    3.66    2.57
 -10   9  16    2.48    2.15
 -10   9  16    8.07    2.62
  -9   9  16    2.15    2.01
  -9   9  16    0.14    2.46
  -8   9  16    1.98    2.36
  -8   9  16    0.81    2.08
  -7   9  16    6.43    2.22
  -7   9  16    6.06    2.37
  -6   9  16    5.79    2.15
  -6   9  16   -1.93    2.28
  -5   9  16    0.28    1.65
  -5   9  16    5.11    2.19
  -4   9  16   -1.01    1.74
  -4   9  16    3.36    2.13
  -3   9  16    1.55    2.18
  -3   9  16    5.64    2.22
  -2   9  16    3.96    2.13
  -2   9  16   -1.24    1.91
  -1   9  16    2.98    2.08
   0   9  16   -1.22    2.14
   1   9  16   -0.24    2.98
   2   9  16   -5.78    2.73
   3   9  16   -4.05    3.16
 -13  10  16   -0.11    2.78
 -13  10  16    2.44    2.22
 -12  10  16    2.12    2.19
 -12  10  16    5.49    3.00
 -11  10  16    3.63    2.77
 -11  10  16   -0.14    2.28
 -10  10  16    4.11    2.80
 -10  10  16    2.09    2.20
  -9  10  16    2.11    2.62
  -9  10  16   -0.58    2.18
  -8  10  16    4.10    2.57
  -8  10  16    0.23    2.11
  -7  10  16    3.20    2.23
  -7  10  16    4.38    2.58
  -6  10  16   -1.46    2.39
  -6  10  16    3.36    2.21
  -5  10  16   -1.17    2.61
  -5  10  16    4.90    2.24
  -4  10  16    4.09    2.28
  -4  10  16    0.20    1.80
  -3  10  16    0.25    1.95
  -3  10  16    5.18    2.30
  -2  10  16   -0.09    2.32
  -1  10  16   -1.33    2.17
   0  10  16   -0.73    2.34
   2  10  16    0.37    2.41
 -13  11  16   -1.58    2.99
 -13  11  16   -2.43    2.33
 -12  11  16    3.02    3.09
 -12  11  16   -5.25    2.41
 -11  11  16    3.10    2.89
 -11  11  16    0.84    2.43
 -10  11  16    2.92    2.37
 -10  11  16    6.51    2.91
  -9  11  16    3.31    2.86
  -9  11  16    3.54    2.42
  -8  11  16    3.76    2.47
  -8  11  16    1.97    2.57
  -7  11  16    0.82    2.42
  -7  11  16    1.99    2.61
  -6  11  16    0.55    2.37
  -6  11  16    2.54    2.61
  -5  11  16    3.54    2.44
  -5  11  16    1.84    2.53
  -4  11  16    2.95    2.51
  -4  11  16   -0.20    2.41
  -3  11  16    0.34    1.97
  -2  11  16    0.18    2.15
  -1  11  16    1.47    3.04
   0  11  16   -1.89    2.91
 -11  12  16    4.60    3.12
 -11  12  16   -2.87    2.60
 -10  12  16    3.02    3.15
 -10  12  16   -4.34    2.55
  -9  12  16    7.77    3.17
  -9  12  16   -3.62    2.59
  -8  12  16   -3.97    2.52
  -8  12  16   -3.51    2.71
  -7  12  16    3.99    3.00
  -7  12  16   -3.66    2.52
  -6  12  16   -4.80    2.45
  -6  12  16    0.33    2.70
  -5  12  16    2.84    2.64
  -4  12  16    1.54    2.90
  -2  12  16    0.99    2.28
  -8  13  16   -1.19    2.88
  -8  13  16    5.58    3.17
  -7  13  16    0.81    2.82
  -7  13  16   -1.02    2.83
  -2 -15  17   -0.88    2.40
  -1 -15  17    1.49    2.34
   0 -15  17    5.58    2.47
   1 -15  17    1.50    2.24
   2 -15  17    0.09    2.33
   4 -15  17    1.91    2.15
  -5 -14  17    0.53    2.47
   4  14 -17    2.11    1.69
  -4 -14  17    3.01    2.42
  -3 -14  17    0.38    2.17
  -2 -14  17    4.30    2.39
  -1 -14  17   -0.03    2.17
   0 -14  17    5.30    2.28
   1 -14  17   -1.08    2.07
   2 -14  17    0.63    2.19
   3 -14  17   -0.68    2.00
   4 -14  17    0.00    2.40
   6 -14  17   -1.27    2.16
   7  13 -17   -0.95    1.47
  -7 -13  17    3.98    2.46
   6  13 -17   -0.17    1.52
  -6 -13  17   -0.81    2.34
   5  13 -17    2.23    1.55
  -5 -13  17   -0.51    2.26
   4  13 -17    0.27    1.47
  -4 -13  17    1.30    2.27
  -3 -13  17   -0.98    2.12
  -2 -13  17    2.32    2.05
  -1 -13  17    0.20    1.93
   0 -13  17    4.37    1.91
   1 -13  17   -0.04    1.77
   2 -13  17    0.32    1.91
   3 -13  17    1.60    1.92
   4 -13  17    1.28    1.91
   5 -13  17   -1.08    1.94
   7 -13  17   -0.25    2.08
   8  12 -17   -2.64    1.28
  -8 -12  17   -1.61    2.27
   7  12 -17    2.20    1.63
  -7 -12  17    4.39    2.37
   6  12 -17    1.98    1.48
  -6 -12  17   -1.33    2.02
   5  12 -17    0.72    1.35
  -5 -12  17   -0.81    2.15
   4  12 -17   -0.75    1.30
  -4 -12  17    2.75    2.12
  -3 -12  17    3.66    1.98
  -2 -12  17    0.58    1.75
  -1 -12  17    2.12    1.85
   0 -12  17    2.80    1.83
   1 -12  17   -0.41    1.73
   2 -12  17    1.44    1.84
   3 -12  17    4.15    1.97
   4 -12  17   -0.36    1.85
   5 -12  17    2.50    1.99
   6 -12  17    0.83    1.99
   8 -12  17   -1.96    2.02
 -10 -11  17    2.82    2.46
  -9 -11  17    1.33    2.41
   8  11 -17   -1.84    1.28
  -8 -11  17   -2.61    2.11
   7  11 -17    0.25    1.40
  -7 -11  17    5.48    2.12
   6  11 -17    0.44    1.24
  -6 -11  17    0.18    1.98
   5  11 -17    0.02    1.38
  -5 -11  17    0.67    1.85
   4  11 -17    0.71    1.36
  -4 -11  17    1.61    1.88
  -3 -11  17    1.65    1.64
  -2 -11  17    1.21    1.73
  -1 -11  17    1.77    1.79
   0 -11  17    0.57    1.70
   1 -11  17    1.72    1.81
   2 -11  17    3.65    1.74
   3 -11  17    2.67    1.67
   4 -11  17   -2.12    1.62
   5 -11  17   -1.16    1.66
   6 -11  17   -1.56    1.79
   7 -11  17   -2.16    1.82
   9 -11  17    0.47    2.09
 -11 -10  17    3.35    2.47
 -10 -10  17   -0.11    2.21
   9  10 -17   -1.49    1.19
  -9 -10  17    2.64    2.28
   8  10 -17   -0.16    1.23
  -8 -10  17   -1.79    1.81
  -7 -10  17    5.60    2.05
   6  10 -17    1.66    1.36
  -6 -10  17    1.59    1.88
   5  10 -17    1.48    1.33
  -5 -10  17   -0.48    1.79
  -4 -10  17    1.01    1.76
  -3 -10  17   -0.23    1.66
  -2 -10  17   -0.15    1.54
  -1 -10  17    4.48    1.76
   0 -10  17    2.02    1.70
   1 -10  17    1.14    1.65
   2 -10  17    2.14    1.66
   3 -10  17    0.51    1.53
   4 -10  17    0.26    1.67
   5 -10  17    0.08    1.63
   6 -10  17   -0.21    1.76
   7 -10  17   -0.28    1.92
   8 -10  17   -0.92    1.91
 -12  -9  17    0.72    2.42
 -11  -9  17    2.15    2.27
  10   9 -17   -2.37    1.26
 -10  -9  17   -0.50    1.93
   9   9 -17   -2.31    1.24
  -9  -9  17    0.27    2.01
   8   9 -17    0.36    1.15
  -8  -9  17   -2.73    1.87
   7   9 -17    1.38    1.08
  -7  -9  17    4.44    1.87
   6   9 -17    2.04    1.32
  -6  -9  17    2.17    1.85
   5   9 -17    1.38    1.19
  -5  -9  17    1.35    1.76
  -4  -9  17    0.00    1.68
  -3  -9  17   -0.72    1.38
  -2  -9  17    1.11    1.60
  -1  -9  17    1.56    1.74
   0  -9  17    1.96    1.64
   1  -9  17    1.22    1.55
   2  -9  17    1.49    1.53
   3  -9  17    1.40    1.63
   4  -9  17    1.05    1.72
   5  -9  17   -1.85    1.54
   6  -9  17    1.12    1.71
   7  -9  17    2.69    1.90
   8  -9  17    0.90    1.86
   9  -9  17   -1.90    1.99
  10  -9  17   -1.46    2.12
  12   8 -17    0.51    1.42
 -12  -8  17    2.08    2.37
  11   8 -17   -1.15    1.24
 -11  -8  17    2.67    2.02
  10   8 -17   -1.93    1.24
 -10  -8  17    2.59    1.98
   9   8 -17   -0.42    1.23
  -9  -8  17    2.60    1.94
   8   8 -17    0.74    1.03
  -8  -8  17   -1.93    1.62
   7   8 -17    2.29    1.25
  -7  -8  17    4.08    1.87
   6   8 -17    1.04    1.15
  -6  -8  17    0.48    1.53
  -5  -8  17   -2.43    1.45
  -4  -8  17    0.37    1.50
  -3  -8  17    0.40    1.46
  -2  -8  17    3.19    1.53
  -1  -8  17   -0.81    1.45
   0  -8  17    6.12    1.70
   1  -8  17    3.23    1.68
   2  -8  17    2.47    1.60
   3  -8  17    0.13    1.46
   4  -8  17    0.27    1.49
   5  -8  17    1.99    1.70
   6  -8  17    0.14    1.69
   7  -8  17   -0.91    1.77
   8  -8  17   -0.78    1.79
   9  -8  17   -0.12    2.06
  13   7 -17    0.86    1.44
 -13  -7  17    0.75    2.17
  12   7 -17   -1.38    1.39
 -12  -7  17   -0.07    2.16
  11   7 -17   -0.83    1.20
 -11  -7  17    3.15    1.88
  10   7 -17   -0.59    1.25
 -10  -7  17    1.55    1.78
   9   7 -17    0.56    1.04
  -9  -7  17    1.29    1.81
   8   7 -17    2.61    1.11
  -8  -7  17   -0.34    1.80
  -7  -7  17   11.71    2.24
   6   7 -17    0.40    1.17
  -6  -7  17   -0.11    1.39
  -5  -7  17    0.68    1.52
  -4  -7  17    0.41    1.42
  -3  -7  17    0.90    1.39
  -2  -7  17    1.09    1.44
  -1  -7  17    2.12    1.65
   0  -7  17    6.03    1.65
   1  -7  17   -0.44    1.36
   2  -7  17    2.20    1.57
   3  -7  17    1.55    1.54
   4  -7  17    1.64    1.70
   5  -7  17    2.06    1.73
   6  -7  17    2.11    1.70
   7  -7  17   -1.55    1.61
   8  -7  17   -0.03    1.85
   9  -7  17   -2.58    1.99
  10  -7  17   -2.27    2.16
  14   6 -17    0.32    1.36
 -14  -6  17    1.79    2.31
  13   6 -17   -1.38    1.34
 -13  -6  17   -0.09    1.98
  12   6 -17   -2.31    1.10
 -12  -6  17    0.13    1.92
  11   6 -17   -0.60    1.28
 -11  -6  17    3.89    1.78
  10   6 -17    0.24    1.20
 -10  -6  17    0.23    1.68
   9   6 -17    2.20    1.06
  -9  -6  17    3.45    1.86
   8   6 -17    0.07    1.00
  -8  -6  17   -1.31    1.73
   7   6 -17    3.24    1.20
  -7  -6  17    6.40    2.11
  -6  -6  17    2.27    1.64
  -5  -6  17   -0.75    1.41
  -4  -6  17   -0.21    1.34
  -3  -6  17    2.23    1.43
  -2  -6  17    4.03    1.50
  -1  -6  17    0.76    1.40
   0  -6  17    0.62    1.40
   1  -6  17    0.69    1.53
   2  -6  17    0.82    1.60
   3  -6  17    0.00    1.46
   4  -6  17    3.73    1.64
   5  -6  17    0.81    1.59
   6  -6  17   -2.38    1.49
   7  -6  17    0.97    1.76
   8  -6  17    1.00    1.91
   9  -6  17    0.04    1.92
  10  -6  17   -1.16    2.18
 -14  -5  17   -0.26    2.12
  13   5 -17   -2.46    1.33
 -13  -5  17    0.72    1.87
 -12  -5  17    1.28    1.83
  11   5 -17    1.02    1.24
 -11  -5  17    3.18    1.66
  10   5 -17    0.43    1.06
 -10  -5  17    3.26    1.60
   9   5 -17    2.61    1.24
  -9  -5  17    4.34    1.71
   8   5 -17    0.19    1.05
  -8  -5  17   -0.76    1.52
  -7  -5  17    0.59    1.43
  -6  -5  17    0.06    1.29
  -5  -5  17    1.30    1.41
  -5  -5  17    1.59    1.40
  -4  -5  17    0.91    1.29
  -3  -5  17    5.40    1.63
  -2  -5  17    1.53    1.30
  -1  -5  17    0.61    1.36
   0  -5  17    0.22    1.40
   1  -5  17    4.06    1.56
   2  -5  17    1.39    1.52
   3  -5  17    3.35    1.60
   4  -5  17    1.28    1.59
   5  -5  17    0.75    1.61
   6  -5  17    0.34    1.64
   7  -5  17   -1.48    1.54
   8  -5  17    3.73    1.97
   9  -5  17   -1.00    2.06
  10  -5  17   -0.23    2.06
  14   4 -17   -2.34    1.34
 -14  -4  17    1.44    2.12
  13   4 -17   -0.59    1.33
 -13  -4  17    3.06    1.77
  12   4 -17   -0.63    1.07
 -12  -4  17    2.08    1.71
  11   4 -17    1.26    1.02
 -11  -4  17    2.95    1.62
  10   4 -17    1.33    1.20
 -10  -4  17    3.04    1.70
   9   4 -17    0.35    1.14
  -9  -4  17    0.93    1.47
  -8  -4  17    1.55    1.43
  -7  -4  17   -0.20    1.52
  -6  -4  17    5.04    1.77
  -5  -4  17    1.34    1.33
  -5  -4  17   -1.15    1.13
  -4  -4  17    0.70    1.35
  -4  -4  17    2.12    1.50
  -3  -4  17    2.26    1.43
  -3  -4  17    2.08    1.43
  -2  -4  17    1.22    1.33
  -1  -4  17   -0.60    1.22
   0  -4  17    1.03    1.41
   1  -4  17    3.05    1.44
   2  -4  17    0.02    1.44
   3  -4  17    1.55    1.59
   4  -4  17    4.41    1.68
   5  -4  17    0.89    1.70
   6  -4  17   -0.36    1.57
   7  -4  17   -0.09    1.68
   8  -4  17   -0.78    1.85
   9  -4  17   -0.09    2.01
  10  -4  17    1.06    2.19
  10  -4  17    6.99    2.15
  15   3 -17   -1.09    1.51
 -15  -3  17   -0.32    2.02
  14   3 -17    0.15    1.28
 -14  -3  17    1.53    1.70
  13   3 -17    1.95    1.25
 -13  -3  17    4.29    1.70
  12   3 -17    1.26    1.13
 -12  -3  17    1.95    1.57
  11   3 -17   -0.68    1.06
 -11  -3  17    1.95    1.53
  10   3 -17   -0.02    1.05
 -10  -3  17    0.56    1.49
  -9  -3  17    0.01    1.32
  -8  -3  17    1.53    1.46
  -7  -3  17   -0.56    1.37
  -6  -3  17    2.71    1.74
  -5  -3  17   -0.02    1.29
  -5  -3  17    0.50    1.18
  -4  -3  17    1.62    1.38
  -4  -3  17    0.85    1.37
  -3  -3  17    1.75    1.37
  -3  -3  17    0.00    1.32
  -2  -3  17    0.54    1.36
  -1  -3  17    2.60    1.40
  -1  -3  17    4.60    1.43
   0  -3  17    1.04    1.33
   0  -3  17    3.62    1.36
   1  -3  17   -0.35    1.43
   2  -3  17    1.10    1.36
   3  -3  17    3.89    1.58
   4  -3  17    1.53    1.56
   5  -3  17    0.87    1.55
   6  -3  17    4.48    1.67
   6  -3  17    2.11    1.69
   7  -3  17   -1.26    1.68
   7  -3  17    5.15    1.94
   8  -3  17    3.13    1.82
   8  -3  17    2.21    2.00
   9  -3  17   -0.94    2.05
   9  -3  17    2.76    1.79
  10  -3  17   -0.37    2.00
  10  -3  17    0.39    2.18
  15   2 -17    0.98    1.40
 -15  -2  17    1.01    1.96
  14   2 -17    2.19    1.35
 -14  -2  17    3.61    1.77
  13   2 -17    1.86    1.33
 -13  -2  17    3.34    1.75
  12   2 -17   -0.30    1.27
 -12  -2  17    1.44    1.58
  11   2 -17    0.29    1.13
 -11  -2  17    1.51    1.49
 -10  -2  17    4.18    1.38
  -9  -2  17    0.09    1.45
  -8  -2  17    1.38    1.48
  -7  -2  17    0.33    1.46
  -6  -2  17    1.44    1.35
  -6  -2  17    1.04    1.45
  -5  -2  17    2.31    1.33
  -5  -2  17   -0.52    1.39
  -4  -2  17    2.34    1.26
  -4  -2  17    1.02    1.37
  -3  -2  17   -0.16    1.28
  -3  -2  17   -0.19    1.29
  -2  -2  17   13.28    2.06
  -2  -2  17   11.04    1.77
  -1  -2  17    2.64    1.38
  -1  -2  17    1.39    1.38
   0  -2  17    1.08    1.43
   0  -2  17    0.95    1.36
   1  -2  17    1.69    1.39
   1  -2  17    2.55    1.58
   2  -2  17    3.35    1.42
   2  -2  17    4.18    1.57
   3  -2  17    0.87    1.50
   3  -2  17    1.90    1.49
   4  -2  17    0.41    1.50
   4  -2  17    1.12    1.64
   5  -2  17    3.53    1.75
   5  -2  17    3.24    1.80
   6  -2  17    2.61    1.62
   6  -2  17   -0.05    1.63
   7  -2  17   -1.24    1.69
   7  -2  17   -1.35    1.66
   8  -2  17    1.84    1.97
   8  -2  17    0.80    1.78
   9  -2  17   -0.65    2.03
   9  -2  17    0.58    2.04
  10  -2  17    0.53    2.37
  10  -2  17    0.62    2.07
  16   1 -17    2.32    1.53
 -16  -1  17    2.96    2.09
  15   1 -17    1.34    1.45
 -15  -1  17    3.78    1.98
  14   1 -17    0.88    1.35
 -14  -1  17    3.07    1.61
  13   1 -17    0.67    1.35
 -13  -1  17    1.09    1.49
  12   1 -17    0.58    1.21
 -12  -1  17   -0.42    1.33
 -11  -1  17    1.18    1.40
 -10  -1  17    1.41    1.29
  -9  -1  17    4.53    1.55
  -8  -1  17    5.44    1.64
  -7  -1  17    3.04    1.55
  -6  -1  17    4.11    1.44
  -6  -1  17    3.47    1.67
  -5  -1  17    5.12    1.47
  -5  -1  17    6.42    1.92
  -4  -1  17    3.03    1.38
  -4  -1  17   -0.45    1.39
  -3  -1  17    0.02    1.33
  -2  -1  17    5.38    1.45
  -2  -1  17    5.34    1.40
  -1  -1  17   -0.34    1.26
  -1  -1  17    0.22    1.24
   0  -1  17    1.55    1.32
   0  -1  17    0.18    1.30
   1  -1  17    5.83    1.44
   1  -1  17    3.34    1.55
   2  -1  17    3.16    1.51
   2  -1  17    3.67    1.40
   3  -1  17    1.90    1.45
   3  -1  17   -0.42    1.40
   4  -1  17    1.25    1.44
   4  -1  17    3.01    1.61
   5  -1  17    1.63    1.40
   5  -1  17    1.67    1.67
   6  -1  17   -0.03    1.54
   6  -1  17   -0.15    1.69
   7  -1  17    3.07    1.72
   7  -1  17    1.83    1.79
   8  -1  17    4.52    1.89
   8  -1  17    0.98    1.87
   9  -1  17   -0.34    2.13
  16   0 -17    0.58    1.56
 -16   0  17    5.21    1.93
  15   0 -17   -1.17    1.38
 -15   0  17    2.02    1.94
  14   0 -17    0.40    1.34
 -14   0  17    1.61    1.70
 -13   0  17    1.31    1.65
 -12   0  17    1.58    1.51
 -11   0  17    1.83    1.29
 -10   0  17    3.70    1.42
  -9   0  17    3.13    1.35
  -8   0  17   -0.88    1.26
  -7   0  17    1.82    1.46
  -6   0  17    9.41    1.65
  -6   0  17    7.36    1.64
  -5   0  17    2.86    1.44
  -5   0  17    1.18    1.51
  -4   0  17    1.43    1.40
  -4   0  17    1.66    1.40
  -3   0  17    2.69    1.47
  -3   0  17    0.90    1.37
  -2   0  17   -0.52    1.19
  -2   0  17   -0.91    1.26
  -1   0  17    1.40    1.34
  -1   0  17    0.79    1.18
   0   0  17    2.88    1.42
   0   0  17    3.05    1.39
   1   0  17    4.58    1.55
   1   0  17    5.23    1.50
   2   0  17    0.78    1.37
   2   0  17    0.15    1.37
   3   0  17    1.18    1.50
   3   0  17    0.62    1.48
   4   0  17    0.67    1.48
   4   0  17    2.48    1.65
   5   0  17   -0.69    1.47
   5   0  17    3.30    1.65
   6   0  17   -0.45    1.43
   6   0  17    2.88    1.76
   7   0  17   -0.92    1.76
   7   0  17    0.46    1.66
   8   0  17   -0.94    1.73
   8   0  17   -3.00    1.89
   9   0  17   -0.84    2.16
   9   0  17    0.21    1.78
 -16   1  17    1.05    1.93
 -15   1  17    2.13    1.78
 -14   1  17    0.16    1.59
 -13   1  17    2.86    1.50
 -12   1  17    1.92    1.43
 -11   1  17   -1.55    1.22
 -10   1  17    0.12    1.35
  -9   1  17    1.58    1.29
  -8   1  17    2.83    1.45
  -7   1  17    0.95    1.37
  -7   1  17    0.63    1.24
  -6   1  17    7.91    1.68
  -6   1  17    6.41    1.54
  -5   1  17    0.27    1.44
  -5   1  17    0.31    1.43
  -4   1  17    0.59    1.46
  -3   1  17    3.59    1.47
  -3   1  17    0.01    1.37
  -2   1  17   -0.18    1.27
  -2   1  17    3.49    1.38
  -1   1  17   -0.21    1.27
  -1   1  17   -0.69    1.27
   0   1  17    3.67    1.47
   0   1  17    2.03    1.53
   1   1  17    1.77    1.45
   1   1  17    0.88    1.40
   2   1  17    0.59    1.48
   2   1  17    1.27    1.43
   3   1  17    4.19    1.63
   3   1  17    4.81    1.62
   4   1  17    1.47    1.60
   4   1  17    1.16    1.57
   5   1  17    1.03    1.62
   5   1  17   -0.40    1.45
   6   1  17    1.01    1.78
   6   1  17   -0.72    1.51
   7   1  17    0.62    1.90
   7   1  17    4.13    1.89
   8   1  17    6.22    2.10
   9   1  17    4.24    2.26
   9   1  17    2.38    1.95
 -16   2  17    0.43    1.80
 -15   2  17    2.97    1.79
 -14   2  17    3.05    1.69
 -13   2  17    2.13    1.59
 -12   2  17    1.32    1.43
 -11   2  17    2.20    1.32
 -10   2  17    4.07    1.47
  -9   2  17   -1.02    1.28
  -8   2  17    2.25    1.94
  -8   2  17    3.19    1.41
  -7   2  17    0.89    1.45
  -7   2  17    2.77    1.47
  -6   2  17    2.48    1.50
  -6   2  17   -0.11    1.31
  -5   2  17    1.40    1.47
  -4   2  17    5.35    1.52
  -4   2  17    3.46    1.63
  -3   2  17    2.48    1.63
  -3   2  17    0.95    1.42
  -2   2  17    0.96    1.32
  -2   2  17    0.04    1.38
  -1   2  17    0.15    1.41
  -1   2  17    0.69    1.35
   0   2  17    2.44    1.47
   0   2  17    2.74    1.64
   1   2  17    1.39    1.44
   1   2  17    0.01    1.55
   2   2  17    0.96    1.64
   2   2  17    5.07    1.54
   3   2  17    1.92    1.60
   3   2  17    3.89    1.62
   4   2  17   -0.08    1.49
   4   2  17    0.19    1.50
   5   2  17   -0.68    1.69
   5   2  17   -1.43    1.60
   6   2  17    1.32    1.80
   6   2  17   -0.96    1.75
   7   2  17   -2.16    1.67
   7   2  17    1.18    1.94
   8   2  17   -1.82    1.98
   8   2  17    4.14    2.20
 -16   3  17    1.96    1.85
 -15   3  17    4.02    1.86
 -14   3  17    2.09    1.66
 -13   3  17   -1.24    1.39
 -12   3  17    2.14    1.55
 -11   3  17    1.53    1.37
 -10   3  17    2.72    1.44
  -9   3  17    1.87    1.32
  -9   3  17   -0.61    2.06
  -8   3  17    4.73    2.16
  -8   3  17    5.38    1.53
  -7   3  17    4.69    1.48
  -7   3  17    2.32    1.49
  -6   3  17    1.67    1.49
  -5   3  17    3.20    1.45
  -5   3  17    2.86    1.49
  -4   3  17    2.19    1.69
  -4   3  17    2.43    1.67
  -3   3  17    2.74    1.47
  -3   3  17   -2.62    1.49
  -2   3  17    0.10    1.52
  -2   3  17   -1.39    1.66
  -1   3  17   -0.52    1.39
  -1   3  17    2.11    1.37
   0   3  17    0.29    1.43
   0   3  17   -2.37    1.36
   1   3  17    0.61    1.37
   1   3  17   -1.58    1.46
   2   3  17    4.46    1.70
   2   3  17    3.11    1.60
   3   3  17    0.95    1.65
   3   3  17    2.50    1.59
   4   3  17    3.73    1.69
   4   3  17   -1.14    1.51
   5   3  17   -0.70    1.66
   5   3  17   -2.13    1.72
   6   3  17   -0.63    1.82
   6   3  17   -2.10    1.84
   7   3  17    0.66    2.02
   8   3  17   -1.60    2.21
 -16   4  17    0.34    1.97
 -15   4  17    0.50    1.91
 -14   4  17    0.84    1.56
 -13   4  17    1.57    1.58
 -12   4  17   -0.01    1.44
 -11   4  17    3.35    1.47
 -10   4  17    2.80    1.48
 -10   4  17   -0.73    2.23
  -9   4  17    1.07    1.28
  -9   4  17    0.68    2.34
  -8   4  17    3.48    2.31
  -8   4  17    3.40    1.54
  -7   4  17   -1.02    1.35
  -7   4  17   -0.93    1.29
  -6   4  17    3.89    1.54
  -6   4  17    3.79    1.58
  -5   4  17    2.42    1.54
  -5   4  17    3.75    1.67
  -4   4  17    0.68    1.54
  -4   4  17   -0.34    1.60
  -3   4  17    1.48    1.73
  -3   4  17    5.33    2.00
  -2   4  17    1.67    1.73
  -2   4  17    1.62    1.74
  -1   4  17    2.48    1.84
  -1   4  17   -0.49    1.68
   0   4  17   -0.80    1.52
   0   4  17   -1.40    1.76
   1   4  17    2.75    1.70
   1   4  17    5.03    1.57
   2   4  17   -0.12    1.66
   2   4  17   -0.98    1.46
   3   4  17   -0.06    1.71
   3   4  17   -0.34    1.56
   4   4  17    1.00    1.69
   4   4  17   -0.73    1.82
   5   4  17   -1.06    1.81
   5   4  17    0.99    1.83
   6   4  17   -3.54    1.96
   7   4  17   -4.07    2.06
 -16   5  17   -0.45    1.91
 -14   5  17    1.62    1.79
 -13   5  17    1.96    1.65
 -12   5  17    1.16    1.59
 -11   5  17    3.29    1.68
 -11   5  17    0.17    2.37
 -10   5  17   -2.77    2.39
 -10   5  17    2.52    1.49
  -9   5  17    1.81    1.44
  -8   5  17   -0.81    1.97
  -8   5  17    0.40    1.39
  -7   5  17    1.29    1.40
  -7   5  17    1.62    1.51
  -6   5  17    1.09    1.66
  -6   5  17    1.90    1.52
  -5   5  17   -0.32    1.57
  -5   5  17    1.48    1.62
  -4   5  17    0.18    1.60
  -4   5  17   -1.52    1.57
  -3   5  17   10.38    2.04
  -3   5  17    9.75    2.22
  -2   5  17    2.00    1.67
  -2   5  17    8.91    2.26
  -1   5  17    3.69    2.50
  -1   5  17    3.32    1.90
   0   5  17    1.88    1.89
   0   5  17    0.90    1.60
   1   5  17    0.90    1.73
   1   5  17    3.39    1.99
   2   5  17   -2.53    2.00
   2   5  17   -0.03    2.07
   3   5  17   -1.21    1.77
   3   5  17   -0.54    2.10
   4   5  17    0.22    1.97
   4   5  17    6.13    2.37
   5   5  17   -0.43    1.94
   6   5  17    2.41    2.16
 -14   6  17    0.99    1.70
 -13   6  17    0.51    1.79
 -12   6  17    1.50    1.61
 -11   6  17    1.92    1.72
 -10   6  17    7.37    2.25
 -10   6  17    0.32    1.56
  -9   6  17    0.94    1.46
  -9   6  17    2.69    2.19
  -8   6  17    1.09    2.12
  -8   6  17    1.50    1.66
  -7   6  17    2.02    2.19
  -7   6  17    5.44    1.80
  -6   6  17   -1.84    1.50
  -6   6  17    0.38    1.65
  -5   6  17   -0.93    1.63
  -5   6  17    1.41    1.70
  -4   6  17    1.32    1.65
  -4   6  17    1.08    1.85
  -3   6  17    4.80    1.89
  -3   6  17   -0.69    1.81
  -2   6  17    2.06    1.82
  -2   6  17    5.62    2.14
  -1   6  17    3.72    2.48
  -1   6  17    1.57    1.99
   0   6  17    4.57    2.73
   0   6  17    2.05    1.99
   1   6  17    0.40    1.99
   1   6  17    1.20    2.76
   2   6  17    1.10    2.35
   2   6  17    0.82    2.17
   3   6  17    2.50    2.08
   4   6  17    0.40    2.02
   5   6  17   -0.21    2.31
 -15   7  17    1.72    2.05
 -14   7  17    0.59    1.97
 -13   7  17    3.47    1.80
 -12   7  17    3.46    2.46
 -12   7  17    1.02    1.82
 -11   7  17    2.35    2.45
 -11   7  17    3.80    1.70
 -10   7  17    4.15    1.88
 -10   7  17    7.69    2.48
  -9   7  17    2.42    1.86
  -9   7  17    4.39    2.43
  -8   7  17    4.17    1.89
  -8   7  17    7.13    2.45
  -7   7  17    0.42    2.33
  -7   7  17    6.21    1.84
  -6   7  17    0.32    1.84
  -6   7  17   -0.93    1.52
  -5   7  17    0.91    1.90
  -5   7  17   -2.05    1.74
  -4   7  17   -0.92    1.73
  -4   7  17   -0.46    1.91
  -3   7  17    2.56    1.91
  -3   7  17    0.36    1.77
  -2   7  17    1.36    2.00
  -2   7  17   -1.42    1.99
  -1   7  17    2.16    2.15
  -1   7  17   -1.48    2.23
   0   7  17    2.84    2.53
   0   7  17    3.68    2.23
   1   7  17    2.64    2.94
   1   7  17    4.36    2.26
   2   7  17    8.06    3.16
   3   7  17    5.62    3.40
 -13   8  17   -0.83    1.96
 -12   8  17    3.31    2.06
 -12   8  17    4.21    2.74
 -11   8  17    1.18    2.01
 -11   8  17   -1.53    2.57
 -10   8  17    6.70    2.68
 -10   8  17    0.87    1.99
  -9   8  17   -1.43    2.34
  -9   8  17    4.17    2.11
  -8   8  17    2.72    2.01
  -8   8  17    3.04    2.57
  -7   8  17   -0.15    2.32
  -7   8  17    0.83    1.94
  -6   8  17    1.45    2.06
  -6   8  17    1.69    1.70
  -5   8  17    3.95    2.06
  -5   8  17    0.59    1.96
  -4   8  17    1.59    2.05
  -4   8  17   -1.38    1.88
  -3   8  17    0.68    2.13
  -3   8  17   -1.27    1.98
  -2   8  17    0.46    1.85
  -2   8  17    3.17    2.32
  -1   8  17   -2.63    2.23
  -1   8  17    2.91    2.26
   0   8  17    5.34    2.38
   0   8  17   -4.55    2.53
   1   8  17   -2.64    2.62
   2   8  17   -1.33    3.06
   3   8  17   -0.04    3.39
 -13   9  17    3.25    2.38
 -12   9  17   -1.45    2.11
 -12   9  17    3.67    3.03
 -11   9  17   -0.13    2.08
 -11   9  17    0.34    2.84
 -10   9  17    9.57    2.77
  -9   9  17   -2.07    2.63
  -9   9  17    0.62    2.11
  -8   9  17    0.82    2.09
  -8   9  17    1.72    2.69
  -7   9  17    1.66    2.46
  -7   9  17    3.08    2.25
  -6   9  17   -2.74    2.49
  -6   9  17    6.07    2.44
  -5   9  17    3.76    2.33
  -5   9  17   -0.94    1.75
  -4   9  17    4.67    2.40
  -4   9  17   -0.17    2.05
  -3   9  17    4.38    2.45
  -3   9  17    0.67    2.25
  -2   9  17    2.84    2.35
  -2   9  17   -2.12    1.99
  -1   9  17    0.49    2.12
   0   9  17    2.54    2.21
   1   9  17   -2.95    2.74
 -13  10  17    3.28    2.75
 -12  10  17    2.50    3.21
 -12  10  17    3.47    2.56
 -11  10  17    1.14    3.13
 -11  10  17    1.80    2.59
 -10  10  17    9.14    3.09
 -10  10  17    0.10    2.38
  -9  10  17   -0.01    2.45
  -9  10  17    0.37    2.74
  -8  10  17    2.52    2.44
  -8  10  17    3.45    2.95
  -7  10  17    5.04    2.84
  -7  10  17    6.44    2.47
  -6  10  17    4.70    2.49
  -6  10  17   -2.17    2.48
  -5  10  17   -2.73    2.52
  -5  10  17   -0.01    2.36
  -4  10  17    2.13    2.49
  -4  10  17   -1.52    2.01
  -3  10  17    3.68    2.56
  -3  10  17   -1.58    2.27
  -2  10  17   -1.98    2.37
  -1  10  17   -3.35    2.25
   1  10  17   -1.66    2.23
 -11  11  17    3.09    3.20
 -11  11  17    4.16    2.82
 -10  11  17    2.53    2.70
 -10  11  17    7.57    3.25
  -9  11  17    3.73    2.68
  -9  11  17    4.00    3.01
  -8  11  17    2.96    2.80
  -8  11  17    3.01    2.95
  -7  11  17    2.75    2.69
  -7  11  17    3.29    3.09
  -6  11  17    2.17    2.63
  -6  11  17    4.34    2.88
  -5  11  17    0.60    2.55
  -5  11  17   -0.01    3.04
  -4  11  17   -0.96    2.80
  -3  11  17    2.09    2.26
  -1  11  17   -0.22    2.78
  -9  12  17    2.23    3.27
  -9  12  17   -3.97    2.83
  -8  12  17    0.22    3.04
  -8  12  17   -4.02    2.86
  -7  12  17    2.24    3.15
  -7  12  17   -5.90    2.76
  -6  12  17    2.57    2.99
  -4 -14  18    4.45    2.45
  -3 -14  18   -0.60    2.46
  -2 -14  18    1.11    2.26
  -1 -14  18    2.20    2.30
   0 -14  18    4.53    2.24
   1 -14  18    1.25    2.15
   4 -14  18    0.20    2.20
   6  13 -18   -0.56    1.54
  -6 -13  18   -1.88    2.46
   5  13 -18   -0.28    1.79
  -5 -13  18   -2.15    2.32
  -4 -13  18    1.03    2.35
  -3 -13  18    1.51    2.12
  -2 -13  18   -0.44    1.93
  -1 -13  18    1.28    2.05
   0 -13  18    2.55    2.05
   1 -13  18    0.55    2.05
   2 -13  18    0.31    2.13
   3 -13  18    0.43    2.07
   5 -13  18   -0.71    2.08
   6 -13  18   -1.56    2.10
  -8 -12  18   -1.05    2.32
  -7 -12  18    3.92    2.61
   6  12 -18    0.39    1.44
  -6 -12  18   -0.53    2.23
   5  12 -18    1.36    1.65
  -5 -12  18   -0.60    2.16
  -4 -12  18    2.98    2.30
  -3 -12  18    1.55    1.93
  -2 -12  18    0.63    1.68
  -1 -12  18    2.13    1.86
   0 -12  18    4.15    2.02
   1 -12  18   -0.58    1.86
   2 -12  18   -0.36    1.79
   3 -12  18    3.01    1.91
   4 -12  18   -0.10    1.95
   5 -12  18   -0.73    2.04
   6 -12  18   -2.70    2.08
   7 -12  18    0.20    2.16
   9  11 -18    0.13    1.58
  -9 -11  18    4.71    2.56
  -8 -11  18   -3.32    1.90
   7  11 -18    0.00    1.33
  -7 -11  18    2.02    2.26
   6  11 -18   -0.24    1.47
  -6 -11  18    2.26    2.23
   5  11 -18    0.48    1.30
  -5 -11  18   -1.39    2.07
  -4 -11  18    3.23    1.91
  -3 -11  18    2.44    1.96
  -2 -11  18   -0.71    1.69
  -1 -11  18    1.54    1.77
   0 -11  18    4.56    1.90
   1 -11  18   -0.23    1.69
   2 -11  18    0.93    1.86
   3 -11  18    2.54    1.92
   4 -11  18    0.39    1.80
   5 -11  18   -1.08    1.86
   6 -11  18    0.33    1.92
   7 -11  18    2.30    2.45
   8 -11  18   -1.95    2.04
  10  10 -18   -0.35    1.36
 -10 -10  18    1.09    2.25
  -9 -10  18    1.58    2.32
   8  10 -18    1.57    1.27
  -8 -10  18   -2.67    2.04
   7  10 -18    0.01    1.29
  -7 -10  18    3.55    2.08
   6  10 -18    1.02    1.29
  -6 -10  18   -0.32    1.79
  -5 -10  18   -0.20    1.85
  -4 -10  18    0.90    1.78
  -3 -10  18    3.15    1.77
  -2 -10  18    2.14    1.74
  -1 -10  18    1.34    1.70
   0 -10  18    3.18    1.78
   1 -10  18    0.52    1.71
   2 -10  18    0.10    1.81
   3 -10  18    0.20    1.74
   4 -10  18    0.91    1.69
   5 -10  18   -1.30    1.75
   6 -10  18    0.05    1.81
   7 -10  18    1.04    2.10
   8 -10  18   -2.93    2.06
  11   9 -18   -1.57    1.40
 -11  -9  18    1.79    2.30
 -10  -9  18    2.79    2.36
  -9  -9  18    3.95    2.23
   8   9 -18    0.43    1.19
  -8  -9  18   -2.11    1.83
   7   9 -18    0.45    1.25
  -7  -9  18    3.45    1.92
   6   9 -18    2.16    1.42
  -6  -9  18   -0.15    1.68
  -5  -9  18   -0.01    1.83
  -4  -9  18   -0.42    1.66
  -3  -9  18   -0.07    1.54
  -2  -9  18   -0.51    1.55
  -1  -9  18    3.97    1.73
   0  -9  18    2.29    1.65
   1  -9  18   -0.53    1.61
   2  -9  18    1.73    1.73
   3  -9  18    0.54    1.68
   4  -9  18    1.83    1.69
   5  -9  18   -0.24    1.69
   6  -9  18   -1.66    1.77
   7  -9  18   -0.76    1.96
   9  -9  18   -0.17    2.19
  12   8 -18   -1.43    1.28
 -12  -8  18    1.35    2.28
 -11  -8  18    1.86    2.15
  10   8 -18    0.53    1.25
 -10  -8  18    0.49    2.04
   9   8 -18    1.11    1.24
  -9  -8  18    2.48    2.07
   8   8 -18    1.41    1.19
  -8  -8  18   -1.85    1.82
   7   8 -18    0.21    1.26
  -7  -8  18    2.19    1.99
  -6  -8  18   -0.33    1.68
  -5  -8  18    0.26    1.62
  -4  -8  18    2.43    1.74
  -3  -8  18    1.62    1.63
  -2  -8  18    1.37    1.57
  -1  -8  18    2.00    1.59
   0  -8  18    2.01    1.52
   1  -8  18    2.84    1.70
   2  -8  18    1.48    1.73
   3  -8  18    3.06    1.72
   4  -8  18   -0.08    1.70
   5  -8  18   -0.05    1.68
   6  -8  18   -0.92    1.70
   7  -8  18    0.29    1.85
   8  -8  18   -0.03    1.90
 -12  -7  18    3.81    2.16
  11   7 -18    0.56    1.36
 -11  -7  18    0.60    1.83
  10   7 -18    0.49    1.26
 -10  -7  18    0.59    1.74
   9   7 -18    1.25    1.16
  -9  -7  18    1.82    1.81
   8   7 -18    0.51    1.17
  -8  -7  18   -1.89    1.72
   7   7 -18    1.63    1.15
  -7  -7  18    3.22    2.12
  -6  -7  18   -0.88    1.64
  -5  -7  18    0.11    1.57
  -4  -7  18    0.94    1.55
  -3  -7  18    0.21    1.59
  -2  -7  18    2.67    1.53
  -1  -7  18    1.09    1.48
   0  -7  18    3.18    1.59
   1  -7  18    2.67    1.68
   2  -7  18   -1.37    1.51
   3  -7  18    0.83    1.64
   4  -7  18    0.31    1.62
   5  -7  18    1.98    1.75
   6  -7  18    0.67    1.85
   7  -7  18    0.34    1.77
   8  -7  18   -0.03    2.00
   9  -7  18   -1.60    2.19
  13   6 -18   -0.74    1.53
 -13  -6  18    2.01    2.15
  12   6 -18    0.43    1.43
 -12  -6  18   -0.33    1.96
  11   6 -18    0.66    1.13
 -11  -6  18    1.26    1.84
  10   6 -18   -1.15    1.10
 -10  -6  18    1.31    1.79
   9   6 -18   -0.11    1.08
  -9  -6  18    2.22    1.70
   8   6 -18    1.04    1.10
  -8  -6  18   -1.29    1.69
  -7  -6  18    1.33    2.00
  -6  -6  18    2.46    1.64
  -5  -6  18    0.28    1.50
  -4  -6  18    2.24    1.51
  -3  -6  18    0.27    1.39
  -2  -6  18    0.14    1.41
  -1  -6  18    2.13    1.54
   0  -6  18    2.61    1.57
   1  -6  18    2.56    1.50
   2  -6  18    2.12    1.52
   3  -6  18    6.38    1.88
   4  -6  18    2.25    1.62
   5  -6  18   -0.02    1.63
   6  -6  18    0.22    1.79
   7  -6  18    0.91    1.87
   8  -6  18   -0.36    1.99
   9  -6  18    0.96    2.32
  14   5 -18    1.50    1.58
  13   5 -18   -1.28    1.27
 -13  -5  18   -2.66    1.95
  12   5 -18    0.12    1.37
 -12  -5  18   -0.12    1.79
  11   5 -18    1.69    1.27
 -11  -5  18    3.48    1.77
  10   5 -18    0.34    1.22
 -10  -5  18    0.09    1.63
   9   5 -18    0.81    1.32
  -9  -5  18    0.79    1.70
  -8  -5  18    1.35    1.67
  -7  -5  18    0.71    1.52
  -6  -5  18    0.75    1.53
  -5  -5  18    1.17    1.37
  -5  -5  18   -0.07    1.53
  -4  -5  18    3.89    1.58
  -4  -5  18    4.66    1.67
  -3  -5  18    0.07    1.38
  -2  -5  18    1.10    1.44
  -1  -5  18    0.88    1.41
   0  -5  18   -0.59    1.43
   1  -5  18    1.02    1.60
   2  -5  18    2.10    1.68
   3  -5  18    0.12    1.62
   4  -5  18    0.51    1.64
   5  -5  18   -2.10    1.64
   6  -5  18    1.66    1.77
   7  -5  18    1.28    1.88
   8  -5  18    1.08    1.97
   9  -5  18   -1.31    1.99
 -14  -4  18    3.78    2.13
  13   4 -18    1.67    1.45
 -13  -4  18    0.39    1.86
  12   4 -18    0.37    1.13
 -12  -4  18    0.03    1.76
  11   4 -18    1.53    1.23
 -11  -4  18    4.41    1.70
  10   4 -18   -1.31    1.23
 -10  -4  18    2.04    1.69
  -9  -4  18    2.88    1.67
  -8  -4  18    1.42    1.49
  -7  -4  18   -0.74    1.76
  -6  -4  18    2.81    1.61
  -5  -4  18    1.65    1.50
  -5  -4  18    0.82    1.39
  -4  -4  18    0.69    1.48
  -4  -4  18    0.66    1.45
  -3  -4  18    0.60    1.37
  -2  -4  18    3.40    1.44
  -2  -4  18    1.06    1.42
  -1  -4  18    1.87    1.44
   0  -4  18    1.24    1.44
   1  -4  18    2.95    1.65
   2  -4  18    8.07    1.80
   3  -4  18    1.07    1.60
   4  -4  18   -0.14    1.65
   5  -4  18    2.62    1.78
   6  -4  18   -0.62    1.72
   7  -4  18    1.25    1.92
   8  -4  18    0.50    2.01
   8  -4  18    4.50    2.04
   9  -4  18    4.22    2.16
   9  -4  18    1.00    2.26
 -15  -3  18    2.00    2.18
  14   3 -18    1.66    1.40
 -14  -3  18    0.82    1.87
  13   3 -18   -1.20    1.21
 -13  -3  18    1.16    1.67
  12   3 -18    1.84    1.32
 -12  -3  18    2.76    1.71
  11   3 -18    1.85    1.33
 -11  -3  18    2.52    1.60
 -10  -3  18    3.10    1.66
  -9  -3  18   -0.13    1.42
  -8  -3  18    2.18    1.54
  -7  -3  18   -1.34    1.44
  -6  -3  18    2.47    1.76
  -5  -3  18    0.05    1.42
  -5  -3  18    1.37    1.53
  -4  -3  18    0.48    1.44
  -4  -3  18    1.45    1.29
  -3  -3  18    2.41    1.42
  -2  -3  18    1.85    1.35
  -2  -3  18    1.65    1.49
  -1  -3  18    0.99    1.39
  -1  -3  18    1.51    1.43
   0  -3  18    0.94    1.39
   0  -3  18    0.35    1.45
   1  -3  18    4.08    1.51
   1  -3  18    3.11    1.60
   2  -3  18    3.41    1.48
   2  -3  18    2.87    1.53
   3  -3  18    2.27    1.67
   3  -3  18    5.36    1.72
   4  -3  18    1.12    1.57
   4  -3  18    5.15    1.76
   5  -3  18    3.84    1.65
   5  -3  18    1.56    1.84
   6  -3  18    0.61    1.67
   6  -3  18    0.47    1.69
   7  -3  18    1.38    1.80
   7  -3  18   -0.85    1.73
   8  -3  18   -0.78    1.81
   8  -3  18   -0.79    1.87
   9  -3  18   -1.17    2.07
   9  -3  18    0.24    2.08
  15   2 -18   -1.06    1.41
 -15  -2  18    1.02    2.16
  14   2 -18    0.85    1.38
 -14  -2  18    2.99    1.72
  13   2 -18    0.36    1.47
 -13  -2  18    3.52    1.63
 -12  -2  18    3.38    1.58
 -11  -2  18    2.54    1.46
 -10  -2  18    1.15    1.33
  -9  -2  18   -0.55    1.33
  -8  -2  18    2.54    1.52
  -7  -2  18    2.78    1.59
  -6  -2  18   -0.60    1.42
  -6  -2  18   -1.70    1.41
  -5  -2  18    1.97    1.48
  -5  -2  18    0.38    1.39
  -4  -2  18    0.30    1.45
  -4  -2  18    0.80    1.45
  -3  -2  18    3.16    1.51
  -3  -2  18    1.83    1.41
  -2  -2  18    0.12    1.41
  -2  -2  18   -0.41    1.34
  -1  -2  18    1.23    1.51
  -1  -2  18    4.61    1.58
   0  -2  18    0.71    1.41
   0  -2  18    2.49    1.51
   1  -2  18    0.93    1.37
   1  -2  18    1.34    1.43
   2  -2  18    1.15    1.50
   2  -2  18   -0.31    1.38
   3  -2  18    2.06    1.51
   3  -2  18    3.01    1.68
   4  -2  18    2.74    1.66
   4  -2  18    4.34    1.75
   5  -2  18   -0.72    1.56
   5  -2  18   -1.13    1.73
   6  -2  18    1.51    1.86
   6  -2  18    2.40    1.70
   7  -2  18   -0.93    1.98
   7  -2  18   -0.03    1.55
   8  -2  18    4.08    2.14
   8  -2  18    0.30    2.02
   9  -2  18    2.73    1.91
   9  -2  18    3.16    2.31
  15   1 -18   -0.63    1.71
  14   1 -18    2.20    1.56
 -14  -1  18    3.88    1.74
 -13  -1  18    2.86    1.65
 -12  -1  18    0.19    1.55
 -11  -1  18    0.78    1.49
 -10  -1  18    4.85    1.50
  -9  -1  18    1.88    1.47
  -8  -1  18    1.01    1.46
  -7  -1  18    2.03    1.59
  -6  -1  18    2.16    1.50
  -6  -1  18   -2.16    1.42
  -5  -1  18    1.63    1.77
  -5  -1  18    1.77    1.56
  -4  -1  18    2.07    1.56
  -3  -1  18    0.75    1.29
  -3  -1  18   -0.14    1.35
  -2  -1  18    1.01    1.39
  -2  -1  18    1.54    1.47
  -1  -1  18    3.51    1.48
  -1  -1  18    2.51    1.46
   0  -1  18    1.99    1.53
   0  -1  18    1.50    1.52
   1  -1  18   -1.21    1.38
   1  -1  18    0.04    1.41
   2  -1  18    1.50    1.51
   2  -1  18    1.37    1.53
   3  -1  18    2.29    1.78
   3  -1  18    4.27    1.61
   4  -1  18    1.93    1.70
   4  -1  18    2.46    1.63
   5  -1  18    2.51    1.74
   5  -1  18    4.88    1.88
   6  -1  18    2.20    1.91
   6  -1  18    2.71    1.69
   7  -1  18   -2.12    1.90
   7  -1  18    2.27    1.89
   8  -1  18   -0.15    2.09
   9  -1  18    1.72    2.33
 -14   0  18    3.40    1.66
 -13   0  18   -0.51    1.52
 -12   0  18    1.17    1.36
 -11   0  18    1.65    1.39
 -10   0  18    0.40    1.39
  -9   0  18    2.50    1.58
  -8   0  18    4.32    1.52
  -7   0  18    2.43    1.49
  -7   0  18    1.53    1.63
  -6   0  18    0.12    1.58
  -6   0  18   -0.30    1.38
  -5   0  18    0.96    1.81
  -5   0  18    2.49    1.60
  -4   0  18    2.96    1.53
  -4   0  18    0.24    1.38
  -3   0  18   -1.39    1.36
  -3   0  18    0.63    1.47
  -2   0  18    1.25    1.37
  -2   0  18   -1.87    1.32
  -1   0  18    2.36    1.43
  -1   0  18    3.20    1.51
   0   0  18    0.06    1.43
   0   0  18    1.28    1.43
   1   0  18    1.49    1.54
   1   0  18    2.80    1.55
   2   0  18    2.88    1.62
   2   0  18    3.17    1.70
   3   0  18   -0.10    1.53
   3   0  18    0.04    1.51
   4   0  18    1.93    1.68
   4   0  18    0.75    1.57
   5   0  18    0.17    1.62
   5   0  18    0.49    1.81
   6   0  18    0.64    1.66
   6   0  18    2.28    1.90
   7   0  18    5.77    2.07
   7   0  18    1.18    1.82
   8   0  18    3.64    2.25
   8   0  18   -0.61    1.91
 -14   1  18    2.62    1.67
 -13   1  18    3.72    1.62
 -12   1  18    2.79    1.52
 -11   1  18    3.59    1.45
 -10   1  18    0.80    1.41
  -9   1  18    2.83    1.35
  -8   1  18    1.93    1.57
  -7   1  18   -0.66    1.44
  -7   1  18   -0.13    1.29
  -6   1  18    4.22    1.62
  -6   1  18    6.49    1.72
  -5   1  18    5.52    1.78
  -4   1  18    0.09    1.64
  -4   1  18   -0.01    1.46
  -3   1  18   -0.42    1.39
  -3   1  18    0.78    1.51
  -2   1  18    3.77    1.57
  -2   1  18    4.13    1.51
  -1   1  18    3.28    1.50
  -1   1  18    4.35    1.73
   0   1  18   -1.74    1.37
   0   1  18   -1.02    1.33
   1   1  18   -1.37    1.32
   1   1  18    1.29    1.46
   2   1  18    1.52    1.44
   2   1  18    1.35    1.53
   3   1  18    2.00    1.53
   3   1  18   -0.69    1.46
   4   1  18   -0.19    1.57
   4   1  18    0.72    1.52
   5   1  18    1.12    1.78
   5   1  18    0.25    1.50
   6   1  18    1.75    1.70
   6   1  18    1.57    1.89
   7   1  18    2.36    2.17
   8   1  18    1.45    1.86
   8   1  18    2.27    2.34
 -15   2  18    2.86    2.13
 -14   2  18    3.01    1.87
 -13   2  18    3.51    1.55
 -12   2  18    4.99    1.58
 -11   2  18    1.27    1.27
 -10   2  18    2.82    1.35
  -9   2  18    1.57    1.41
  -8   2  18    1.39    1.44
  -8   2  18   -0.91    1.43
  -7   2  18    0.37    1.54
  -7   2  18    2.27    1.49
  -6   2  18    4.34    1.56
  -5   2  18    5.37    1.71
  -5   2  18    4.37    1.66
  -4   2  18    0.29    1.55
  -4   2  18   -1.53    1.64
  -3   2  18    2.48    1.71
  -3   2  18    3.08    1.79
  -2   2  18    3.78    1.54
  -2   2  18    1.85    1.58
  -1   2  18   -2.72    1.49
  -1   2  18    1.52    1.58
   0   2  18    1.30    1.70
   0   2  18    2.69    1.52
   1   2  18   -1.49    1.48
   1   2  18    1.27    1.57
   2   2  18   -2.71    1.54
   2   2  18    2.25    1.57
   3   2  18    2.55    1.67
   3   2  18   -1.24    1.47
   4   2  18   -2.84    1.49
   4   2  18    0.79    1.73
   5   2  18   -1.63    1.65
   5   2  18    1.46    1.78
   6   2  18   -1.53    1.85
   6   2  18   -2.70    1.75
   7   2  18   -2.76    1.73
   7   2  18   -0.94    2.10
 -15   3  18    2.09    1.89
 -14   3  18    3.37    1.86
 -13   3  18    1.18    1.51
 -12   3  18    3.42    1.55
 -11   3  18    0.58    1.46
 -10   3  18    4.48    1.54
  -9   3  18    1.86    2.37
  -9   3  18    3.37    1.43
  -8   3  18    0.65    2.24
  -8   3  18    1.48    1.46
  -7   3  18    1.86    1.46
  -6   3  18    2.40    1.54
  -6   3  18    5.44    1.76
  -5   3  18   -0.59    1.51
  -5   3  18    0.29    1.51
  -4   3  18    0.96    1.61
  -4   3  18    3.98    1.89
  -3   3  18    4.90    1.79
  -3   3  18    1.61    1.91
  -2   3  18   -0.12    1.57
  -2   3  18   -0.50    1.88
  -1   3  18    2.28    1.93
  -1   3  18    1.58    1.78
   0   3  18    0.62    1.55
   0   3  18    1.79    1.52
   1   3  18   -1.40    1.54
   1   3  18   -2.07    1.51
   2   3  18    2.65    1.62
   2   3  18    0.88    1.69
   3   3  18    2.74    1.83
   3   3  18    1.74    1.72
   4   3  18    2.85    1.80
   4   3  18   -1.89    1.67
   5   3  18    3.11    1.95
   5   3  18   -1.15    1.74
   6   3  18    4.72    2.18
   7   3  18    0.10    1.99
 -15   4  18    1.59    2.12
 -14   4  18    2.79    1.87
 -13   4  18    2.52    1.68
 -12   4  18    1.41    1.60
 -11   4  18    3.73    1.59
 -10   4  18    2.47    2.61
 -10   4  18    3.54    1.63
  -9   4  18    0.00    2.57
  -9   4  18   -0.32    1.51
  -8   4  18    1.18    2.13
  -8   4  18    3.42    1.58
  -7   4  18    5.06    1.67
  -7   4  18    3.40    1.60
  -6   4  18    1.91    1.57
  -6   4  18   -0.33    1.54
  -5   4  18    1.35    1.70
  -5   4  18   -2.49    1.53
  -4   4  18    3.35    1.74
  -4   4  18    3.73    1.84
  -3   4  18    3.92    2.02
  -3   4  18   -0.28    1.77
  -2   4  18   -1.19    1.75
  -2   4  18    2.14    1.94
  -1   4  18   -1.50    1.84
  -1   4  18    2.83    1.87
   0   4  18   -1.22    1.61
   0   4  18   -2.73    1.88
   1   4  18   -0.40    1.55
   1   4  18    2.30    1.99
   2   4  18    2.28    1.69
   2   4  18    1.07    1.67
   3   4  18   -0.15    1.71
   3   4  18   -0.91    1.80
   4   4  18   -1.72    1.76
   4   4  18    0.60    1.90
   5   4  18   -1.73    2.13
   5   4  18    1.44    1.96
   6   4  18   -1.70    2.05
 -15   5  18    1.50    1.80
 -14   5  18    1.43    1.86
 -13   5  18    1.54    1.79
 -12   5  18    3.66    1.78
 -11   5  18    3.60    1.83
 -10   5  18    1.97    1.55
  -9   5  18    1.95    1.73
  -9   5  18    4.17    2.33
  -8   5  18    0.50    2.15
  -8   5  18    0.63    1.50
  -7   5  18    1.91    1.67
  -7   5  18    2.98    1.72
  -6   5  18   -0.35    1.64
  -6   5  18    0.39    1.60
  -5   5  18    3.86    1.87
  -5   5  18    1.08    1.67
  -4   5  18   -1.49    1.76
  -4   5  18    1.31    1.74
  -3   5  18    2.03    1.94
  -3   5  18    2.13    1.91
  -2   5  18    2.37    1.99
  -2   5  18    7.86    2.39
  -1   5  18    1.12    1.94
  -1   5  18    0.93    2.52
   0   5  18    2.15    2.09
   0   5  18    1.01    2.04
   1   5  18    2.43    2.11
   1   5  18    1.65    1.84
   2   5  18   -4.42    2.14
   2   5  18    1.53    2.03
   3   5  18   -1.64    1.86
   4   5  18   -0.25    2.06
   5   5  18   -1.80    2.08
 -15   6  18    0.20    1.84
 -13   6  18    0.82    1.78
 -12   6  18    3.28    1.91
 -11   6  18    5.40    1.93
 -11   6  18    5.29    2.51
 -10   6  18    3.03    2.40
 -10   6  18   -0.43    1.72
  -9   6  18    4.08    2.43
  -9   6  18    2.78    1.70
  -8   6  18    0.52    1.80
  -8   6  18    1.01    2.38
  -7   6  18    2.08    1.89
  -7   6  18   -1.14    1.49
  -6   6  18    0.08    1.77
  -6   6  18   -0.49    1.63
  -5   6  18   -0.26    1.70
  -5   6  18    2.78    1.89
  -4   6  18   -1.21    1.85
  -4   6  18   -0.75    1.71
  -3   6  18   -2.30    1.90
  -3   6  18    5.72    2.14
  -2   6  18    4.70    2.17
  -2   6  18    4.42    2.15
  -1   6  18   -0.67    2.19
  -1   6  18    2.12    2.35
   0   6  18    0.34    2.14
   0   6  18    2.76    2.92
   1   6  18    0.51    2.85
   1   6  18    1.29    2.25
   2   6  18    0.84    2.42
   2   6  18    1.05    2.68
   3   6  18    2.01    2.67
   4   6  18    0.50    2.28
 -14   7  18    2.47    2.38
 -13   7  18    1.22    2.14
 -12   7  18    2.97    2.10
 -11   7  18    5.45    2.66
 -11   7  18    3.85    2.11
 -10   7  18    3.65    2.06
 -10   7  18    7.09    2.68
  -9   7  18    2.36    2.61
  -9   7  18    1.28    1.89
  -8   7  18    1.76    2.43
  -8   7  18    2.00    1.95
  -7   7  18    3.50    1.99
  -7   7  18   -4.13    2.45
  -6   7  18    0.55    1.71
  -6   7  18    2.31    2.00
  -5   7  18    1.90    2.07
  -5   7  18   -0.59    1.78
  -4   7  18   -2.95    1.86
  -4   7  18    0.21    2.06
  -3   7  18   -0.07    1.87
  -3   7  18    3.37    2.17
  -2   7  18   -2.62    2.10
  -2   7  18    3.82    2.29
  -1   7  18   -0.53    2.29
  -1   7  18    1.99    2.35
   0   7  18    1.11    2.45
   0   7  18    5.61    2.48
   1   7  18    3.76    2.88
   2   7  18    2.56    3.22
   3   7  18    5.35    3.89
 -14   8  18   -1.25    2.21
 -13   8  18    1.93    2.36
 -12   8  18    3.26    2.07
 -11   8  18    0.83    2.20
 -11   8  18    2.37    2.89
 -10   8  18    6.89    2.87
 -10   8  18    4.92    2.23
  -9   8  18    5.06    2.78
  -9   8  18    2.53    2.22
  -8   8  18    2.11    2.76
  -8   8  18    3.14    2.18
  -7   8  18    1.45    2.18
  -7   8  18   -1.50    2.63
  -6   8  18    0.58    1.70
  -6   8  18    2.05    2.29
  -5   8  18    3.42    2.31
  -5   8  18   -1.42    1.83
  -4   8  18    0.20    1.95
  -4   8  18    1.02    2.29
  -3   8  18    1.00    2.16
  -3   8  18    4.69    2.49
  -2   8  18   -1.22    1.99
  -2   8  18    1.48    2.50
  -1   8  18    3.75    2.71
  -1   8  18   -4.09    2.34
   0   8  18   -3.93    2.44
   1   8  18   -0.33    2.94
   2   8  18    1.55    3.03
 -12   9  18    2.43    3.12
 -12   9  18    1.62    2.62
 -11   9  18    6.69    3.22
 -11   9  18    3.35    2.42
 -10   9  18    9.47    3.19
 -10   9  18    3.48    2.38
  -9   9  18    0.69    2.44
  -9   9  18    0.39    2.84
  -8   9  18    1.87    2.90
  -8   9  18    3.28    2.47
  -7   9  18    0.89    2.75
  -7   9  18    6.64    2.55
  -6   9  18   -2.12    2.75
  -6   9  18    8.08    2.60
  -5   9  18    5.78    2.63
  -5   9  18    0.24    1.95
  -4   9  18    5.58    2.58
  -4   9  18   -0.60    2.10
  -3   9  18    0.35    2.21
  -3   9  18    0.74    2.56
  -2   9  18    0.13    2.24
  -2   9  18   -0.61    2.71
  -1   9  18    0.84    2.34
   1   9  18   -4.87    3.16
 -11  10  18   -2.26    2.47
 -11  10  18    1.25    3.28
 -10  10  18   -3.17    2.60
 -10  10  18    8.55    3.25
  -9  10  18    2.21    2.67
  -9  10  18    0.71    3.09
  -8  10  18    3.31    2.99
  -8  10  18    4.36    2.53
  -7  10  18    7.45    3.07
  -7  10  18    5.17    2.58
  -6  10  18   -0.62    2.84
  -6  10  18    5.48    2.79
  -5  10  18   -3.48    2.89
  -5  10  18    1.49    2.74
  -4  10  18   -0.02    2.07
  -4  10  18    0.26    2.75
  -3  10  18   -0.95    2.44
  -1  10  18   -2.68    2.33
  -9  11  18    3.12    3.01
  -9  11  18    1.07    3.18
  -8  11  18    7.37    3.48
  -8  11  18    4.55    2.95
  -7  11  18   -1.54    3.21
  -7  11  18    2.14    2.92
  -6  11  18    0.00    2.86
  -6  11  18    1.98    3.12
  -5  11  18   -1.96    3.10
  -5  11  18   -1.51    3.06
   0 -14  19    0.72    2.57
   1 -14  19    4.77    2.16
  -4 -13  19    6.63    2.52
  -3 -13  19    0.16    2.29
  -2 -13  19   -1.26    1.97
  -1 -13  19    0.88    2.03
   0 -13  19    0.93    2.23
   3 -13  19    1.29    2.17
   4 -13  19    1.00    2.13
   6  12 -19   -0.72    1.75
  -6 -12  19    0.87    2.29
  -5 -12  19    0.56    2.27
  -4 -12  19    3.04    2.18
  -3 -12  19    0.87    2.09
  -2 -12  19    0.17    1.94
  -1 -12  19    0.73    2.00
   0 -12  19    1.68    2.01
   1 -12  19    2.73    2.00
   2 -12  19   -1.02    1.81
   3 -12  19    0.52    2.24
   5 -12  19    1.89    2.04
   8  11 -19   -1.12    1.38
  -8 -11  19   -2.13    2.15
  -7 -11  19    3.94    2.30
  -6 -11  19   -0.88    2.05
  -5 -11  19    3.87    2.31
  -4 -11  19   -1.07    1.83
  -3 -11  19   -0.13    1.83
  -2 -11  19    0.93    1.89
  -1 -11  19    2.23    1.90
   0 -11  19   -0.86    1.84
   1 -11  19    2.48    1.91
   2 -11  19    0.92    1.86
   3 -11  19    1.44    1.89
   4 -11  19    2.03    1.98
   6 -11  19    0.01    2.03
   9  10 -19    0.96    1.40
  -9 -10  19    3.18    2.38
  -8 -10  19   -2.17    2.13
   7  10 -19   -0.04    1.55
  -7 -10  19    1.54    2.19
  -6 -10  19    1.93    2.07
  -5 -10  19    0.12    1.88
  -4 -10  19    1.42    1.83
  -3 -10  19    3.84    1.86
  -2 -10  19    1.54    1.76
  -1 -10  19    0.91    1.70
   0 -10  19    2.78    1.93
   1 -10  19    1.91    1.82
   2 -10  19   -1.31    1.75
   3 -10  19    1.62    1.84
   4 -10  19    1.61    1.82
   5 -10  19    1.75    2.07
   7 -10  19    0.97    2.17
  10   9 -19    1.07    1.30
 -10  -9  19    2.78    2.21
  -9  -9  19    2.53    2.12
   8   9 -19    0.62    1.41
  -8  -9  19   -2.27    1.98
  -7  -9  19    5.03    2.14
  -6  -9  19    0.77    1.72
  -5  -9  19    0.74    1.87
  -4  -9  19    3.41    1.92
  -3  -9  19    0.84    1.80
  -2  -9  19    0.15    1.57
  -1  -9  19   -0.69    1.57
   0  -9  19    3.19    1.81
   1  -9  19    1.73    1.74
   2  -9  19    1.30    1.76
   3  -9  19    0.73    1.78
   4  -9  19    2.09    1.77
   5  -9  19   -0.15    1.98
   6  -9  19    0.29    1.90
  11   8 -19    2.29    1.32
 -11  -8  19    2.06    2.46
 -10  -8  19    1.56    1.97
   9   8 -19    0.24    1.25
  -9  -8  19    3.59    2.11
   8   8 -19   -0.45    1.24
  -8  -8  19   -2.61    1.87
  -7  -8  19    3.52    1.91
  -6  -8  19    0.26    1.81
  -5  -8  19    0.90    1.62
  -4  -8  19    2.49    1.68
  -3  -8  19   -0.01    1.59
  -2  -8  19   -0.92    1.56
  -1  -8  19    3.95    1.68
   0  -8  19    0.46    1.62
   1  -8  19    3.96    1.79
   2  -8  19    1.44    1.71
   3  -8  19    0.64    1.81
   4  -8  19    2.56    1.79
   5  -8  19    1.37    1.88
   6  -8  19    0.19    1.78
   7  -8  19   -1.13    2.03
  12   7 -19    1.23    1.41
 -12  -7  19    4.40    2.37
 -11  -7  19    3.31    2.19
  10   7 -19    0.36    1.31
 -10  -7  19    1.80    1.97
   9   7 -19    1.22    1.38
  -9  -7  19    2.13    2.09
  -8  -7  19   -0.97    1.83
  -7  -7  19    6.36    2.44
  -6  -7  19   -0.63    1.73
  -5  -7  19    0.51    1.47
  -4  -7  19    2.90    1.61
  -3  -7  19    0.38    1.61
  -2  -7  19    1.11    1.52
  -1  -7  19    2.20    1.54
   0  -7  19    1.24    1.65
   1  -7  19    3.78    1.64
   2  -7  19    2.55    1.78
   3  -7  19    0.62    1.74
   4  -7  19    3.00    1.78
   5  -7  19   -0.85    1.81
   6  -7  19    1.00    2.06
   7  -7  19    0.62    2.09
   8  -7  19    2.21    2.56
 -12  -6  19    3.82    2.03
  11   6 -19    0.34    1.32
 -11  -6  19    1.35    1.88
  10   6 -19   -0.02    1.21
 -10  -6  19    0.29    1.75
  -9  -6  19    1.67    1.95
  -8  -6  19   -1.76    1.78
  -7  -6  19    4.16    2.02
  -6  -6  19    0.62    1.68
  -5  -6  19    2.02    1.80
  -5  -6  19    1.28    1.54
  -4  -6  19    3.08    1.56
  -3  -6  19    2.37    1.62
  -2  -6  19    4.32    1.59
  -1  -6  19    0.96    1.44
   0  -6  19    0.01    1.54
   1  -6  19    2.64    1.65
   2  -6  19    1.63    1.64
   3  -6  19    0.10    1.61
   4  -6  19   -0.15    1.77
   5  -6  19    3.24    1.91
   6  -6  19   -1.35    1.86
   7  -6  19    2.38    2.10
   8  -6  19    0.16    2.30
  13   5 -19   -0.40    1.48
  12   5 -19    2.67    1.52
 -12  -5  19    2.45    1.95
  11   5 -19    0.46    1.30
 -11  -5  19    0.62    1.77
  10   5 -19    2.54    1.40
 -10  -5  19    1.77    1.78
  -9  -5  19   -2.38    1.72
  -8  -5  19    1.07    1.77
  -7  -5  19    0.59    1.89
  -6  -5  19    4.88    1.85
  -5  -5  19   -0.04    1.70
  -5  -5  19    2.14    1.63
  -4  -5  19    1.79    1.52
  -4  -5  19    1.95    1.81
  -3  -5  19    8.00    1.69
  -3  -5  19    7.44    1.80
  -2  -5  19   -0.19    1.47
  -1  -5  19    0.43    1.48
   0  -5  19    0.57    1.46
   1  -5  19   -0.36    1.57
   2  -5  19    2.41    1.61
   3  -5  19    2.19    1.74
   4  -5  19   -0.71    1.63
   5  -5  19    1.80    1.83
   6  -5  19    3.49    1.97
   7  -5  19   -0.51    2.01
   8  -5  19    1.78    2.22
  13   4 -19    0.57    1.44
 -13  -4  19    1.43    2.01
  12   4 -19   -0.16    1.42
 -12  -4  19   -0.71    1.79
 -11  -4  19    1.77    1.70
 -10  -4  19    3.85    1.74
  -9  -4  19    0.09    1.57
  -8  -4  19    0.90    1.62
  -7  -4  19   -1.11    1.82
  -6  -4  19    2.48    1.65
  -5  -4  19   -0.30    1.48
  -5  -4  19    0.88    1.63
  -4  -4  19    1.66    1.60
  -4  -4  19    2.95    1.70
  -3  -4  19    3.76    1.45
  -3  -4  19    3.81    1.54
  -2  -4  19    0.37    1.49
  -2  -4  19    1.52    1.60
  -1  -4  19    2.40    1.55
  -1  -4  19    1.42    1.44
   0  -4  19    2.66    1.62
   0  -4  19    1.18    1.49
   1  -4  19    2.34    1.50
   1  -4  19    1.43    1.60
   2  -4  19    2.72    1.70
   3  -4  19    3.41    1.66
   4  -4  19    4.03    1.79
   4  -4  19    0.60    1.74
   5  -4  19    0.37    1.84
   5  -4  19    1.88    1.74
   6  -4  19    5.67    2.01
   6  -4  19    2.54    1.96
   7  -4  19    2.79    2.02
   7  -4  19    1.98    2.12
   8  -4  19    0.75    2.21
   8  -4  19    2.39    2.11
  13   3 -19    1.52    1.43
 -13  -3  19    0.70    1.87
 -12  -3  19    0.61    1.75
 -11  -3  19    2.68    1.69
 -10  -3  19    0.55    1.62
  -9  -3  19    1.61    1.55
  -8  -3  19    2.31    1.57
  -7  -3  19    2.86    1.77
  -6  -3  19    0.97    1.96
  -5  -3  19    1.09    1.45
  -5  -3  19    2.66    1.63
  -4  -3  19    2.04    1.44
  -3  -3  19   -0.77    1.39
  -3  -3  19    0.30    1.41
  -2  -3  19    0.73    1.44
  -2  -3  19    2.61    1.43
  -1  -3  19    2.73    1.56
  -1  -3  19    2.48    1.60
   0  -3  19   -0.78    1.45
   0  -3  19   -0.23    1.52
   1  -3  19    1.06    1.54
   1  -3  19    1.43    1.63
   2  -3  19    1.75    1.75
   2  -3  19    2.55    1.62
   3  -3  19    2.18    1.76
   3  -3  19    3.58    1.80
   4  -3  19    2.52    1.72
   4  -3  19    0.51    1.77
   5  -3  19    0.83    1.78
   5  -3  19    0.56    1.66
   6  -3  19    0.43    1.80
   6  -3  19   -0.60    1.88
   7  -3  19   -0.94    1.88
   7  -3  19   -0.93    2.06
   8  -3  19    1.18    2.24
   8  -3  19   -1.42    2.04
 -13  -2  19   -0.06    1.72
 -12  -2  19    1.99    1.66
 -11  -2  19    3.29    1.64
 -10  -2  19   -0.15    1.36
  -9  -2  19    1.75    1.59
  -8  -2  19    0.98    1.45
  -7  -2  19   -0.66    1.63
  -6  -2  19    0.67    1.67
  -6  -2  19   -1.20    1.60
  -5  -2  19    2.27    1.70
  -5  -2  19    2.19    1.63
  -4  -2  19    2.52    1.45
  -4  -2  19   -0.68    1.41
  -3  -2  19   -0.51    1.42
  -3  -2  19    0.06    1.52
  -2  -2  19    4.77    1.65
  -2  -2  19    3.95    1.63
  -1  -2  19   -1.02    1.44
  -1  -2  19   -0.15    1.52
   0  -2  19   -0.10    1.48
   0  -2  19    1.96    1.48
   1  -2  19    2.36    1.65
   1  -2  19    4.08    1.54
   2  -2  19    4.15    1.66
   2  -2  19    0.92    1.49
   3  -2  19   -0.53    1.80
   3  -2  19    0.90    1.47
   4  -2  19    2.57    1.70
   4  -2  19    2.92    1.86
   5  -2  19    1.16    1.66
   5  -2  19    4.85    1.94
   6  -2  19    1.78    1.86
   6  -2  19    0.28    1.99
   7  -2  19    0.55    1.99
   7  -2  19    4.80    2.23
   8  -2  19    4.71    2.04
   8  -2  19   -1.13    2.14
 -13  -1  19    2.21    1.70
 -12  -1  19    2.78    1.61
 -11  -1  19    0.27    1.48
 -10  -1  19    1.75    1.49
  -9  -1  19    1.33    1.61
  -8  -1  19    1.86    1.55
  -7  -1  19    2.46    1.67
  -6  -1  19    0.99    1.68
  -6  -1  19    0.79    1.72
  -5  -1  19   -0.81    1.76
  -5  -1  19    1.51    1.45
  -4  -1  19   -0.69    1.44
  -4  -1  19    0.66    1.42
  -3  -1  19    0.40    1.38
  -3  -1  19   -0.38    1.47
  -2  -1  19    3.13    1.62
  -2  -1  19    1.01    1.51
  -1  -1  19    1.38    1.61
  -1  -1  19    2.63    1.69
   0  -1  19    1.11    1.56
   0  -1  19    0.80    1.49
   1  -1  19    0.66    1.51
   1  -1  19    0.79    1.54
   2  -1  19    1.32    1.59
   2  -1  19    2.00    1.54
   3  -1  19    0.77    1.73
   3  -1  19    0.04    1.52
   4  -1  19    0.07    1.70
   4  -1  19    0.40    1.81
   5  -1  19    0.23    1.78
   5  -1  19    0.12    1.80
   6  -1  19   -0.75    1.57
   6  -1  19    3.73    2.08
   7  -1  19    3.65    2.11
 -15   0  19   -0.08    1.82
 -13   0  19    1.37    1.71
 -12   0  19   -0.30    1.53
 -11   0  19    1.13    1.55
 -10   0  19    0.75    1.54
  -9   0  19    0.64    1.42
  -8   0  19    0.20    1.44
  -7   0  19    3.97    1.69
  -7   0  19    3.14    1.68
  -6   0  19    6.09    1.83
  -6   0  19    3.88    1.89
  -5   0  19   -0.10    1.48
  -5   0  19   -2.41    1.69
  -4   0  19    0.01    1.49
  -4   0  19    1.07    2.00
  -3   0  19    0.53    1.48
  -3   0  19   -1.07    1.42
  -2   0  19    1.37    1.43
  -2   0  19   -3.06    1.55
  -1   0  19   -0.80    1.49
  -1   0  19    0.10    1.51
   0   0  19    2.33    1.60
   0   0  19    1.22    1.67
   1   0  19   -0.84    1.49
   1   0  19    1.93    1.62
   2   0  19    0.35    1.69
   2   0  19    0.40    1.60
   3   0  19    1.38    1.67
   3   0  19    0.84    1.64
   4   0  19    1.36    1.74
   4   0  19    0.39    1.71
   5   0  19    0.79    1.86
   5   0  19    0.68    1.85
   6   0  19   -0.60    1.88
   6   0  19    1.79    2.10
   7   0  19   -0.94    2.02
   7   0  19   -1.03    2.18
 -15   1  19    5.00    1.89
 -13   1  19    1.47    1.69
 -12   1  19    2.04    1.45
 -11   1  19    2.94    1.54
 -10   1  19   -0.27    1.40
  -9   1  19    3.41    1.51
  -8   1  19    4.55    1.68
  -8   1  19    2.87    1.64
  -7   1  19    1.59    1.67
  -7   1  19    2.08    1.48
  -6   1  19    2.47    1.64
  -5   1  19    0.92    1.65
  -5   1  19    0.30    1.59
  -4   1  19   -2.01    1.83
  -4   1  19    0.05    1.69
  -3   1  19    1.06    1.54
  -3   1  19    2.40    1.95
  -2   1  19    0.51    1.56
  -2   1  19   -0.08    1.60
  -1   1  19    2.57    1.60
  -1   1  19    2.05    1.63
   0   1  19   -1.55    1.59
   0   1  19    2.49    1.76
   1   1  19   -2.50    1.53
   1   1  19    2.25    1.55
   2   1  19    1.69    1.75
   2   1  19   -0.60    1.58
   3   1  19    1.14    1.74
   3   1  19    0.61    1.77
   4   1  19    1.51    1.77
   4   1  19    0.18    1.72
   5   1  19    0.91    1.75
   5   1  19   -0.50    1.93
   6   1  19   -0.92    2.00
   7   1  19    1.67    1.95
   7   1  19    1.54    2.27
 -15   2  19    2.89    1.91
 -13   2  19    3.52    1.72
 -12   2  19    4.03    1.63
 -11   2  19    1.68    1.42
 -10   2  19    2.62    1.50
  -9   2  19    1.26    1.56
  -8   2  19    0.32    1.63
  -8   2  19    2.29    1.50
  -7   2  19    0.28    1.54
  -6   2  19   -2.89    1.50
  -6   2  19    0.63    1.48
  -5   2  19    1.36    1.71
  -5   2  19    2.32    1.79
  -4   2  19    1.38    1.84
  -4   2  19    3.74    1.75
  -3   2  19   -3.53    1.70
  -3   2  19   -0.30    1.63
  -2   2  19    2.59    1.84
  -2   2  19    1.93    1.97
  -1   2  19    3.65    1.54
  -1   2  19    2.28    1.68
   0   2  19    0.60    1.64
   0   2  19   -2.11    1.67
   1   2  19   -1.05    1.52
   1   2  19    0.32    1.51
   2   2  19   -0.62    1.68
   2   2  19   -1.46    1.60
   3   2  19    3.05    1.82
   3   2  19   -2.11    1.86
   4   2  19    1.91    1.95
   4   2  19   -2.78    1.81
   5   2  19   -2.76    1.77
   5   2  19   -0.50    1.99
   6   2  19    0.20    2.14
   6   2  19   -3.47    1.82
 -15   3  19    3.54    1.99
 -13   3  19    0.16    1.68
 -12   3  19    3.65    1.79
 -11   3  19    2.08    1.58
 -10   3  19    0.20    1.50
  -9   3  19    2.28    1.69
  -9   3  19   -1.27    2.68
  -8   3  19    2.55    1.67
  -7   3  19    0.97    1.60
  -7   3  19    1.15    1.56
  -6   3  19    0.24    1.55
  -6   3  19    1.47    1.66
  -5   3  19    1.60    1.71
  -5   3  19    1.20    1.67
  -4   3  19   -0.82    1.83
  -4   3  19    2.31    1.89
  -3   3  19   -0.48    1.79
  -3   3  19    0.48    1.82
  -2   3  19   -1.06    1.86
  -2   3  19    1.82    1.99
  -1   3  19    2.12    2.04
  -1   3  19   -1.70    1.68
   0   3  19    2.73    1.64
   0   3  19    1.68    1.82
   1   3  19    0.35    1.70
   1   3  19   -2.41    1.55
   2   3  19    0.21    1.72
   2   3  19   -2.55    1.67
   3   3  19   -0.39    1.88
   3   3  19    1.81    1.79
   4   3  19   -0.05    1.94
   4   3  19   -0.58    1.97
   5   3  19   -1.44    2.11
 -14   4  19    3.52    1.89
 -13   4  19    2.61    1.83
 -12   4  19    3.37    1.76
 -11   4  19    0.11    1.55
 -10   4  19    1.41    1.67
  -9   4  19    1.73    2.45
  -9   4  19    1.08    1.60
  -8   4  19    1.39    1.65
  -8   4  19   -2.51    2.25
  -7   4  19    1.32    1.66
  -7   4  19   -0.39    1.53
  -6   4  19    0.08    1.70
  -6   4  19    3.03    1.72
  -5   4  19   -1.87    1.64
  -5   4  19    1.37    1.87
  -4   4  19    0.24    1.78
  -4   4  19    1.86    1.88
  -3   4  19    4.61    2.23
  -3   4  19    2.35    1.97
  -2   4  19    2.04    2.02
  -2   4  19    1.00    2.19
  -1   4  19    3.04    1.81
  -1   4  19    1.63    2.05
   0   4  19   -2.70    2.03
   0   4  19    2.50    2.04
   1   4  19    1.03    2.25
   1   4  19   -1.46    1.76
   2   4  19    0.83    1.81
   2   4  19    6.17    2.40
   3   4  19    1.44    1.88
   3   4  19    4.14    1.98
   4   4  19    0.96    2.00
   5   4  19   -0.06    2.27
 -14   5  19    1.96    2.01
 -13   5  19    3.00    1.95
 -12   5  19    0.84    1.77
 -11   5  19    0.90    1.76
 -10   5  19    1.18    1.79
 -10   5  19    0.68    2.46
  -9   5  19    0.55    1.77
  -9   5  19    1.97    2.52
  -8   5  19   -2.01    2.38
  -8   5  19   -0.05    1.70
  -7   5  19    5.76    1.90
  -7   5  19    1.90    1.77
  -6   5  19   -0.42    1.69
  -6   5  19   -0.09    1.96
  -5   5  19   -0.11    1.75
  -5   5  19    4.27    1.98
  -4   5  19   -2.11    1.81
  -4   5  19    4.11    1.94
  -3   5  19    1.48    2.03
  -3   5  19    3.68    2.17
  -2   5  19    2.10    2.35
  -2   5  19    1.32    2.13
  -1   5  19    1.79    2.14
  -1   5  19    3.05    2.69
   0   5  19    1.97    2.27
   0   5  19    0.80    2.25
   1   5  19    2.05    2.10
   1   5  19    4.42    2.38
   2   5  19    1.56    2.50
   2   5  19   -0.03    2.01
   3   5  19    1.07    2.31
   3   5  19   -2.79    2.65
   4   5  19   -0.52    2.44
 -14   6  19   -0.41    1.97
 -12   6  19    4.59    2.15
 -11   6  19    3.78    2.03
 -10   6  19   -0.81    2.54
 -10   6  19    2.14    1.90
  -9   6  19    4.70    2.65
  -9   6  19    0.55    1.82
  -8   6  19    0.33    2.58
  -8   6  19    3.68    2.00
  -7   6  19    3.77    1.96
  -7   6  19    0.80    1.65
  -6   6  19   -2.48    1.73
  -6   6  19    1.47    2.01
  -5   6  19   -2.39    1.85
  -5   6  19    3.23    1.99
  -4   6  19    1.57    1.86
  -4   6  19    0.72    2.12
  -3   6  19    3.10    2.28
  -2   6  19    2.26    2.12
  -2   6  19    4.22    2.27
  -1   6  19    2.09    2.50
  -1   6  19    2.94    2.39
   0   6  19    3.07    2.55
   0   6  19    3.31    3.02
   1   6  19    1.35    2.51
   1   6  19    1.23    2.91
   2   6  19    3.58    3.24
   3   6  19    0.43    2.71
 -12   7  19    3.38    2.05
 -11   7  19    2.82    2.22
 -10   7  19    3.46    2.10
 -10   7  19    0.21    2.81
  -9   7  19   -0.41    2.06
  -9   7  19    5.23    2.84
  -8   7  19    0.05    2.69
  -8   7  19    4.72    2.22
  -7   7  19    1.86    2.13
  -7   7  19   -3.35    2.64
  -6   7  19   -0.13    1.86
  -6   7  19    1.94    2.35
  -5   7  19    1.96    2.32
  -5   7  19    0.45    2.00
  -4   7  19    1.04    2.23
  -4   7  19   -0.81    2.03
  -3   7  19    3.76    2.41
  -3   7  19    0.98    2.09
  -2   7  19   -2.05    2.26
  -2   7  19    6.10    2.48
  -1   7  19    6.19    2.74
  -1   7  19   -0.72    2.33
   0   7  19    4.14    2.77
   0   7  19   -2.72    2.49
   1   7  19    1.49    3.06
   2   7  19    4.53    3.28
 -12   8  19    3.04    2.62
 -11   8  19    3.51    2.35
 -11   8  19    4.73    3.11
 -10   8  19    4.03    3.02
 -10   8  19    3.28    2.47
  -9   8  19    8.04    3.18
  -9   8  19    6.10    2.48
  -8   8  19    3.94    3.00
  -8   8  19    4.35    2.52
  -7   8  19    0.56    2.33
  -7   8  19   -1.01    2.90
  -6   8  19    1.57    2.34
  -6   8  19   -0.08    1.89
  -5   8  19    3.70    2.51
  -5   8  19    0.31    2.13
  -4   8  19   -0.57    2.07
  -4   8  19    0.73    2.53
  -3   8  19   -1.54    2.18
  -3   8  19    3.31    2.64
  -2   8  19    3.36    2.78
  -2   8  19   -0.08    2.31
  -1   8  19   -1.21    2.40
 -11   9  19    1.81    2.45
 -11   9  19    5.35    3.33
 -10   9  19    1.21    2.63
 -10   9  19    8.59    3.40
  -9   9  19    3.56    3.21
  -9   9  19    0.54    2.59
  -8   9  19    3.83    3.13
  -8   9  19    7.49    2.73
  -7   9  19    5.38    2.81
  -7   9  19    0.63    3.01
  -6   9  19    4.80    2.82
  -6   9  19   -5.76    3.16
  -5   9  19    2.53    2.79
  -5   9  19    1.09    2.21
  -4   9  19    0.01    2.22
  -4   9  19    4.27    2.88
  -3   9  19    1.43    2.58
  -3   9  19    1.20    2.76
  -2   9  19   -1.92    2.33
  -1   9  19   -2.58    2.63
  -9  10  19    1.42    2.76
  -9  10  19   -1.54    3.24
  -8  10  19    2.45    2.85
  -8  10  19    3.81    3.35
  -7  10  19    5.25    3.31
  -7  10  19    6.59    3.05
  -6  10  19    0.33    3.24
  -6  10  19    0.26    2.98
  -5  10  19   -1.34    3.06
  -5  10  19    2.62    3.03
  -4  10  19   -0.48    2.18
  -2 -13  20    0.02    2.05
  -1 -13  20    1.56    2.15
   0 -13  20   -0.58    2.14
   1 -13  20    2.99    2.24
  -4 -12  20    2.45    2.32
  -3 -12  20    1.41    2.34
  -2 -12  20    0.47    2.03
  -1 -12  20    0.12    1.95
   2 -12  20    0.65    2.15
   3 -12  20   -1.13    2.05
  -6 -11  20   -0.32    2.14
  -5 -11  20    0.18    2.23
  -4 -11  20    3.07    2.15
  -3 -11  20   -0.07    2.03
  -2 -11  20    1.80    1.92
  -1 -11  20    2.28    1.83
   0 -11  20    0.67    1.96
   1 -11  20    4.44    2.09
   2 -11  20    0.51    2.01
   4 -11  20    3.21    2.08
   5 -11  20    0.22    2.11
   8  10 -20    1.54    1.46
  -8 -10  20   -3.27    2.18
  -7 -10  20    4.24    2.16
  -6 -10  20   -1.15    2.26
  -5 -10  20   -1.24    2.03
  -4 -10  20    2.81    2.03
  -3 -10  20   -0.19    1.81
  -2 -10  20    2.01    1.78
  -1 -10  20    3.41    1.86
   0 -10  20    0.67    2.04
   1 -10  20    3.62    1.98
   2 -10  20    1.89    1.95
   3 -10  20   -1.76    1.80
   5 -10  20    3.93    2.23
   6 -10  20    0.70    2.25
   9   9 -20   -0.63    1.56
  -9  -9  20    3.73    2.55
  -8  -9  20   -0.54    2.13
  -7  -9  20    5.12    2.18
  -6  -9  20    0.18    1.99
  -5  -9  20   -0.58    1.76
  -4  -9  20    1.82    1.80
  -3  -9  20    0.19    1.89
  -2  -9  20    2.75    1.78
  -1  -9  20    4.63    1.89
   0  -9  20    0.71    1.82
   1  -9  20    2.80    1.80
   2  -9  20    2.31    1.91
   3  -9  20   -1.20    1.76
   4  -9  20    3.04    1.98
   6  -9  20   -2.30    1.94
  10   8 -20    0.86    1.58
 -10  -8  20    1.42    2.13
  -9  -8  20    2.47    2.17
  -8  -8  20   -3.01    2.12
  -7  -8  20    4.86    2.55
  -6  -8  20    1.60    2.09
  -5  -8  20   -0.22    1.70
  -4  -8  20    3.74    1.74
  -3  -8  20    0.88    1.72
  -2  -8  20    1.24    1.63
  -1  -8  20    3.26    1.75
   0  -8  20    2.45    1.74
   1  -8  20    4.77    1.81
   2  -8  20    2.77    1.76
   3  -8  20    0.19    1.73
   4  -8  20   -1.31    1.83
   5  -8  20    1.15    2.01
   7  -8  20    1.25    2.16
  11   7 -20    0.09    1.45
 -10  -7  20    1.43    1.96
  -9  -7  20    1.34    2.08
  -8  -7  20   -1.66    1.95
  -6  -7  20   -0.35    1.75
  -5  -7  20   -0.28    2.11
  -5  -7  20    0.68    1.73
  -4  -7  20    1.64    1.64
  -3  -7  20    0.24    1.73
  -2  -7  20    1.53    1.68
  -1  -7  20    0.99    1.57
   0  -7  20    1.53    1.70
   1  -7  20   -0.23    1.72
   2  -7  20    1.82    1.73
   3  -7  20    2.11    1.90
   4  -7  20   -1.06    1.90
   5  -7  20    3.26    2.03
   6  -7  20    1.36    2.05
  12   6 -20    0.03    1.56
 -11  -6  20    3.34    2.18
 -10  -6  20    1.91    2.14
  -9  -6  20    3.25    2.13
  -8  -6  20    1.34    2.00
  -7  -6  20    8.87    2.26
  -6  -6  20    1.95    1.79
  -5  -6  20   -0.69    1.91
  -5  -6  20    0.73    1.58
  -4  -6  20    1.62    1.65
  -4  -6  20   -2.20    1.70
  -3  -6  20    1.62    1.63
  -3  -6  20    4.47    1.59
  -2  -6  20    1.31    1.61
  -1  -6  20    1.48    1.67
   0  -6  20    1.53    1.62
   1  -6  20    0.03    1.64
   2  -6  20    6.34    1.97
   3  -6  20    1.67    1.85
   4  -6  20   -0.07    1.95
   5  -6  20    0.19    1.99
   6  -6  20    0.99    2.01
   7  -6  20    1.65    2.18
 -11  -5  20    0.50    1.76
 -10  -5  20    0.49    1.76
  -9  -5  20   -0.79    1.84
  -8  -5  20    1.02    1.81
  -7  -5  20    1.30    1.69
  -6  -5  20    0.83    1.87
  -5  -5  20    0.17    1.51
  -5  -5  20    2.52    1.88
  -4  -5  20   -2.16    1.63
  -4  -5  20    4.76    1.60
  -3  -5  20    3.91    1.77
  -3  -5  20    3.96    1.69
  -2  -5  20    1.30    1.66
  -2  -5  20    3.02    1.66
  -1  -5  20    2.47    1.61
  -1  -5  20    4.09    1.64
   0  -5  20   -0.71    1.55
   1  -5  20    1.36    1.74
   2  -5  20    1.20    1.74
   3  -5  20    1.96    1.66
   4  -5  20    0.11    1.75
   5  -5  20   -1.19    1.86
   6  -5  20   -1.72    1.91
   7  -5  20    1.57    2.26
   7  -5  20    7.24    2.52
 -13  -4  20    0.53    1.89
 -12  -4  20    1.90    2.06
 -11  -4  20    2.00    1.76
 -10  -4  20    0.99    1.74
  -9  -4  20    1.28    1.81
  -8  -4  20    1.45    1.61
  -7  -4  20   -2.76    1.74
  -6  -4  20    4.16    1.85
  -5  -4  20    3.12    1.89
  -5  -4  20    2.12    1.77
  -4  -4  20   -1.01    1.55
  -4  -4  20   -0.03    1.45
  -3  -4  20    4.78    1.69
  -3  -4  20    5.71    1.73
  -2  -4  20    1.23    1.55
  -2  -4  20   -0.17    1.52
  -1  -4  20   -0.70    1.63
  -1  -4  20    0.47    1.56
   0  -4  20   -0.62    1.58
   0  -4  20   -1.49    1.53
   1  -4  20    1.46    1.77
   1  -4  20    1.94    1.75
   2  -4  20    0.52    1.68
   2  -4  20    1.65    1.76
   3  -4  20    2.40    1.76
   3  -4  20    1.32    1.75
   4  -4  20    2.11    1.73
   4  -4  20    2.90    1.83
   5  -4  20    2.44    2.02
   5  -4  20    1.82    1.92
   6  -4  20   -2.42    1.86
   6  -4  20   -0.36    1.97
   7  -4  20    0.11    2.16
   7  -4  20    0.77    2.30
 -13  -3  20    0.88    1.93
 -12  -3  20    0.23    1.87
 -11  -3  20    2.95    1.82
 -10  -3  20    2.26    1.74
  -9  -3  20    1.98    1.62
  -8  -3  20    2.06    1.67
  -7  -3  20    0.32    1.66
  -6  -3  20   -0.01    1.84
  -6  -3  20    1.83    1.76
  -5  -3  20    0.30    1.46
  -5  -3  20    2.26    1.77
  -4  -3  20    2.16    1.46
  -4  -3  20    1.59    1.59
  -3  -3  20    0.91    1.60
  -3  -3  20    0.53    1.59
  -2  -3  20   -0.74    1.55
  -2  -3  20    1.33    1.67
  -1  -3  20    2.88    1.63
  -1  -3  20   -0.29    1.55
   0  -3  20    1.88    1.57
   0  -3  20    3.44    1.72
   1  -3  20    1.23    1.60
   1  -3  20   -0.04    1.68
   2  -3  20   -0.69    1.65
   2  -3  20    0.79    1.82
   3  -3  20    2.14    1.96
   3  -3  20    1.93    1.78
   4  -3  20    0.48    1.90
   4  -3  20    1.80    1.81
   5  -3  20   -1.23    1.83
   5  -3  20    4.33    2.08
   6  -3  20    1.50    2.04
   6  -3  20    0.46    1.96
   7  -3  20   -0.36    2.32
   7  -3  20    1.17    2.10
 -12  -2  20    1.16    1.74
 -11  -2  20    1.17    1.72
 -10  -2  20    1.31    1.56
  -9  -2  20    0.72    1.63
  -8  -2  20    2.25    1.65
  -7  -2  20    7.76    2.02
  -6  -2  20   -1.53    1.92
  -6  -2  20   -0.21    1.85
  -5  -2  20   -0.07    1.65
  -4  -2  20    1.25    1.81
  -3  -2  20   -0.97    1.44
  -3  -2  20    0.69    1.61
  -2  -2  20    2.63    1.71
  -2  -2  20    0.06    1.48
  -1  -2  20    2.80    1.68
  -1  -2  20    0.32    1.56
   0  -2  20    1.31    1.64
   0  -2  20    0.45    1.56
   1  -2  20    0.55    1.53
   1  -2  20    0.80    1.64
   2  -2  20    1.21    1.60
   2  -2  20    0.68    1.68
   3  -2  20    3.31    1.85
   3  -2  20    4.51    1.87
   4  -2  20    2.28    1.69
   4  -2  20   -0.94    1.88
   5  -2  20    1.86    1.99
   5  -2  20    4.44    2.00
   6  -2  20    4.80    2.18
   7  -2  20    4.91    2.30
   7  -2  20    2.72    2.13
 -14  -1  20    0.69    1.87
 -12  -1  20    1.88    1.63
 -11  -1  20    2.41    1.67
 -10  -1  20    0.59    1.57
  -9  -1  20    4.45    1.74
  -8  -1  20    0.48    1.52
  -7  -1  20    2.21    1.71
  -7  -1  20    1.22    1.68
  -6  -1  20   -2.45    1.70
  -6  -1  20    0.03    1.81
  -5  -1  20    3.29    1.75
  -5  -1  20    1.45    1.62
  -4  -1  20    3.81    1.87
  -4  -1  20    0.52    1.62
  -3  -1  20    0.05    1.57
  -3  -1  20   -2.82    1.53
  -2  -1  20    2.10    1.69
  -2  -1  20    3.22    1.71
  -1  -1  20    0.54    1.56
  -1  -1  20    1.90    1.69
   0  -1  20    0.56    1.63
   0  -1  20    0.35    1.78
   1  -1  20    1.02    1.75
   1  -1  20   -0.67    1.61
   2  -1  20    2.26    1.80
   2  -1  20    2.37    1.85
   3  -1  20    1.22    1.83
   3  -1  20   -1.61    1.67
   4  -1  20    0.43    1.62
   4  -1  20    2.05    1.87
   5  -1  20    0.66    1.74
   5  -1  20    2.22    1.98
   6  -1  20    1.26    2.23
 -14   0  20    3.94    1.92
 -12   0  20   -0.50    1.59
 -11   0  20    1.52    1.71
 -10   0  20    1.68    1.58
  -9   0  20    4.01    1.62
  -8   0  20    0.66    1.54
  -7   0  20    1.57    1.78
  -7   0  20    2.45    1.70
  -6   0  20    5.15    1.82
  -5   0  20    4.10    1.74
  -5   0  20   -0.16    1.81
  -4   0  20    1.98    1.99
  -4   0  20    2.19    1.75
  -3   0  20   -1.71    1.65
  -3   0  20    1.44    1.66
  -2   0  20   -0.83    1.59
  -2   0  20    0.38    1.52
  -1   0  20   -2.26    1.58
  -1   0  20   -1.36    1.50
   0   0  20    0.01    1.68
   0   0  20   -0.94    1.67
   1   0  20    3.80    1.78
   1   0  20    2.81    1.80
   2   0  20    0.72    1.77
   2   0  20    1.38    1.79
   3   0  20    0.68    1.77
   3   0  20    1.56    1.79
   4   0  20    2.76    1.97
   4   0  20   -1.27    1.80
   5   0  20    1.18    1.97
   5   0  20   -0.48    1.97
   6   0  20    0.16    2.07
   6   0  20    1.94    2.25
 -14   1  20    4.75    1.86
 -12   1  20    3.70    1.58
 -11   1  20    3.02    1.57
 -10   1  20   -0.37    1.64
  -9   1  20    1.40    1.55
  -8   1  20    1.70    1.60
  -8   1  20    0.22    1.80
  -7   1  20    0.85    1.59
  -6   1  20    2.92    1.89
  -6   1  20    2.82    1.72
  -5   1  20    2.83    1.75
  -5   1  20    0.91    1.76
  -4   1  20   -2.33    1.74
  -4   1  20    0.39    1.72
  -3   1  20    5.10    2.20
  -3   1  20    2.57    1.80
  -2   1  20   -2.54    1.65
  -2   1  20    1.77    1.52
  -1   1  20   -0.08    1.73
  -1   1  20   -0.86    1.62
   0   1  20    1.19    1.63
   0   1  20    1.04    1.66
   1   1  20   -1.35    1.78
   1   1  20    0.00    1.74
   2   1  20    0.55    1.75
   2   1  20   -1.64    1.88
   3   1  20    0.16    1.69
   3   1  20    4.01    2.02
   4   1  20   -2.87    1.87
   4   1  20    0.08    1.96
   5   1  20    1.87    2.10
 -14   2  20    2.38    1.89
 -12   2  20    0.72    1.81
 -11   2  20    0.12    1.67
 -10   2  20    3.12    1.74
  -9   2  20    1.22    1.59
  -8   2  20    1.48    1.61
  -8   2  20    0.30    1.96
  -7   2  20    1.93    1.78
  -7   2  20   -1.25    1.65
  -6   2  20    3.14    1.79
  -6   2  20   -1.49    1.64
  -5   2  20    1.95    1.92
  -5   2  20    2.24    1.86
  -4   2  20    0.61    1.74
  -4   2  20    1.75    1.94
  -3   2  20    1.34    2.04
  -3   2  20    1.45    1.93
  -2   2  20    1.27    1.98
  -2   2  20   -1.80    1.65
  -1   2  20    2.46    1.74
  -1   2  20   -0.63    1.70
   0   2  20    2.52    1.70
   0   2  20    0.33    1.88
   1   2  20   -2.02    1.76
   1   2  20   -0.81    1.59
   2   2  20   -1.32    1.80
   2   2  20   -0.22    1.78
   3   2  20   -2.77    1.91
   3   2  20   -0.55    1.83
   4   2  20    2.48    2.08
   4   2  20   -1.09    1.75
   5   2  20   -2.94    2.02
   5   2  20    2.14    2.22
 -14   3  20    3.50    1.91
 -12   3  20    1.71    1.75
 -11   3  20    0.93    1.63
 -10   3  20    1.88    1.71
  -9   3  20    0.52    1.67
  -8   3  20    1.96    1.77
  -8   3  20   -0.23    1.58
  -7   3  20    3.86    1.79
  -7   3  20   -0.02    1.70
  -6   3  20    0.19    1.80
  -6   3  20    0.32    1.74
  -5   3  20   -0.19    1.79
  -5   3  20    1.38    1.80
  -4   3  20    1.23    1.98
  -4   3  20    4.39    2.07
  -3   3  20    0.93    2.02
  -3   3  20    4.22    2.08
  -2   3  20   -3.44    2.05
  -2   3  20    2.29    1.84
  -1   3  20   -3.16    2.13
  -1   3  20   -0.92    1.87
   0   3  20    3.49    2.36
   0   3  20    0.14    1.90
   1   3  20    0.88    1.82
   1   3  20    2.99    1.79
   2   3  20    0.02    1.88
   2   3  20    0.04    1.76
   3   3  20   -1.36    2.01
   4   3  20    1.25    2.13
 -14   4  20    1.47    2.07
 -12   4  20    1.56    1.71
 -11   4  20    1.63    1.77
 -10   4  20    3.62    1.96
  -9   4  20    0.64    1.74
  -9   4  20    5.69    2.63
  -8   4  20    1.67    2.55
  -8   4  20    3.63    1.94
  -7   4  20   -1.83    1.73
  -7   4  20    3.05    1.85
  -6   4  20    3.46    1.92
  -5   4  20    2.07    2.10
  -5   4  20   -2.13    1.82
  -4   4  20    0.76    2.06
  -4   4  20    5.36    2.01
  -3   4  20    2.57    2.04
  -3   4  20    2.99    2.29
  -2   4  20    1.99    2.45
  -2   4  20    2.02    2.15
  -1   4  20    1.81    2.43
  -1   4  20    3.31    2.27
   0   4  20   -2.46    2.24
   0   4  20    2.95    2.13
   1   4  20    0.86    2.30
   1   4  20   -2.33    2.39
   2   4  20    1.85    2.65
   2   4  20    0.11    2.20
   3   4  20    4.61    2.81
 -13   5  20    1.86    1.93
 -12   5  20   -0.08    1.86
 -11   5  20    2.35    1.85
 -10   5  20    0.37    1.84
  -9   5  20    6.39    2.75
  -9   5  20    4.22    2.06
  -8   5  20   -2.84    2.69
  -8   5  20    0.02    1.93
  -7   5  20    2.31    1.88
  -7   5  20   -0.31    1.84
  -6   5  20    0.77    1.94
  -6   5  20   -0.03    2.05
  -5   5  20    2.42    2.18
  -5   5  20    0.66    1.90
  -4   5  20    0.63    2.01
  -4   5  20   -3.10    1.91
  -3   5  20    3.52    2.35
  -3   5  20    2.50    2.22
  -2   5  20    3.24    2.43
  -2   5  20    0.43    2.30
  -1   5  20    1.12    2.38
  -1   5  20    1.95    2.57
   0   5  20    0.59    2.50
   0   5  20    1.05    2.92
   1   5  20    5.92    2.76
   1   5  20    0.64    2.43
   2   5  20    5.25    2.76
 -13   6  20    4.05    2.09
 -11   6  20    1.13    2.06
 -10   6  20    1.63    2.09
 -10   6  20   -1.63    2.96
  -9   6  20    4.18    3.02
  -9   6  20    2.74    2.09
  -8   6  20   -0.70    2.79
  -8   6  20    1.46    2.19
  -7   6  20    6.49    2.32
  -7   6  20    1.78    1.93
  -6   6  20    0.16    2.11
  -6   6  20   -1.61    1.93
  -5   6  20    2.56    2.25
  -5   6  20   -0.32    2.01
  -4   6  20   -0.04    2.12
  -4   6  20   -0.18    2.43
  -3   6  20    3.50    2.46
  -2   6  20    3.12    2.48
  -2   6  20    0.67    2.19
  -1   6  20    3.89    2.65
  -1   6  20    2.39    2.51
   0   6  20    2.26    2.77
   0   6  20    3.82    2.81
 -11   7  20    4.02    2.41
 -10   7  20    3.62    2.37
 -10   7  20    0.75    3.11
  -9   7  20    0.99    3.06
  -9   7  20    2.27    2.42
  -8   7  20    4.20    2.31
  -8   7  20    0.21    3.09
  -7   7  20   -2.44    2.90
  -7   7  20    3.66    2.59
  -6   7  20    2.45    2.53
  -6   7  20   -1.81    2.01
  -5   7  20   -0.26    2.02
  -5   7  20    2.17    2.52
  -4   7  20   -0.97    2.48
  -4   7  20    0.39    2.12
  -3   7  20    0.60    2.11
  -3   7  20    5.27    2.60
  -2   7  20   -1.97    2.53
  -2   7  20    6.75    2.77
  -1   7  20    2.77    2.84
  -1   7  20   -0.89    2.48
 -11   8  20    5.19    2.65
 -10   8  20    3.63    2.62
 -10   8  20   -0.22    3.27
  -9   8  20    4.34    2.79
  -9   8  20    5.91    3.43
  -8   8  20    3.40    2.59
  -8   8  20    5.63    3.34
  -7   8  20    1.21    2.63
  -7   8  20   -1.61    3.16
  -6   8  20    0.14    2.04
  -6   8  20    2.69    2.69
  -5   8  20   -0.86    2.15
  -5   8  20    5.25    2.74
  -4   8  20    1.75    2.90
  -4   8  20    0.56    2.25
  -3   8  20    4.18    3.04
  -3   8  20   -2.23    2.42
  -2   8  20    0.67    3.19
  -2   8  20    0.45    2.35
  -9   9  20    0.33    2.91
  -8   9  20    5.89    3.56
  -8   9  20    4.15    2.84
  -7   9  20    5.12    2.94
  -7   9  20   -0.64    3.29
  -6   9  20   -5.02    3.32
  -6   9  20    5.11    3.11
  -5   9  20   -2.33    2.33
  -5   9  20    4.80    3.13
  -4   9  20    2.06    3.07
  -4   9  20    1.07    2.48
  -2 -12  21   -0.34    2.11
  -1 -12  21    0.77    2.07
   0 -12  21    1.60    2.01
   1 -11  21    2.06    2.13
   2 -11  21    4.53    2.21
   3 -11  21    1.24    2.16
  -5 -10  21   -0.31    1.96
  -4 -10  21    2.30    2.14
  -3 -10  21    2.03    1.99
  -2 -10  21    0.00    1.85
  -1 -10  21    2.78    1.99
   0 -10  21    1.75    2.05
   3 -10  21    0.87    2.01
   4 -10  21   -1.26    2.07
  -7  -9  21    3.21    2.83
  -6  -9  21   -0.86    2.06
  -5  -9  21    1.48    1.84
  -4  -9  21    3.94    1.95
  -3  -9  21   -0.07    1.94
  -2  -9  21    1.78    1.84
  -1  -9  21    2.08    1.79
   0  -9  21    0.24    1.67
   1  -9  21   -1.06    1.83
   2  -9  21    2.89    1.98
   4  -9  21   -1.10    1.96
   5  -9  21   -0.20    2.32
  -8  -8  21   -2.10    2.04
  -7  -8  21    6.81    2.55
  -6  -8  21    1.21    2.05
  -5  -8  21    2.89    1.83
  -4  -8  21    0.72    1.89
  -3  -8  21    1.94    1.95
  -2  -8  21    2.01    1.84
  -1  -8  21    3.27    1.74
   0  -8  21    2.26    1.78
   1  -8  21    2.07    1.96
   2  -8  21    2.39    1.90
   3  -8  21    1.87    1.99
   5  -8  21   -0.33    2.11
  -9  -7  21    1.41    2.26
  -8  -7  21   -1.89    2.06
  -7  -7  21    2.13    2.47
  -6  -7  21    1.85    1.97
  -5  -7  21    0.54    1.66
  -4  -7  21   -0.02    1.81
  -4  -7  21    1.10    1.80
  -3  -7  21    1.38    1.77
  -2  -7  21    1.46    1.76
  -1  -7  21    0.21    1.75
   0  -7  21    3.56    1.84
   1  -7  21    3.98    2.04
   2  -7  21    3.47    1.98
   3  -7  21    3.15    2.06
   4  -7  21    1.50    2.04
 -11  -6  21    2.75    2.17
  -9  -6  21    3.68    2.21
  -8  -6  21    2.70    2.01
  -7  -6  21    1.39    1.91
  -6  -6  21    5.72    1.96
  -5  -6  21   -0.07    1.69
  -4  -6  21   -0.59    1.63
  -4  -6  21    2.35    1.74
  -3  -6  21    0.70    1.76
  -3  -6  21    1.81    1.74
  -2  -6  21   -1.04    1.60
  -2  -6  21    3.96    1.84
  -1  -6  21    0.73    1.76
   0  -6  21    0.27    1.65
   1  -6  21    2.25    1.79
   2  -6  21   -0.22    1.84
   3  -6  21    4.96    2.09
   4  -6  21    2.66    1.94
   5  -6  21   -1.75    2.04
 -10  -5  21    0.78    2.08
  -9  -5  21    2.54    2.04
  -8  -5  21    2.58    2.12
  -7  -5  21    0.81    1.82
  -6  -5  21    5.06    2.29
  -5  -5  21    0.82    1.74
  -4  -5  21    2.81    1.83
  -4  -5  21    2.72    1.72
  -3  -5  21   -0.05    1.69
  -3  -5  21    3.81    1.71
  -2  -5  21    1.91    1.86
  -2  -5  21    0.23    1.70
  -1  -5  21    1.77    1.76
  -1  -5  21    1.43    1.77
   0  -5  21   -0.70    1.58
   0  -5  21    2.04    1.88
   1  -5  21    0.88    1.68
   1  -5  21    3.77    1.87
   2  -5  21    2.82    1.94
   2  -5  21    7.32    1.98
   3  -5  21    4.74    1.95
   3  -5  21    1.34    1.86
   4  -5  21    4.02    2.17
   4  -5  21    4.77    2.06
   5  -5  21    3.66    2.19
   5  -5  21    2.52    2.23
   6  -5  21    2.97    2.31
   6  -5  21   -0.21    2.27
 -12  -4  21    3.15    2.06
 -10  -4  21    3.08    1.97
  -9  -4  21    0.15    1.80
  -8  -4  21    1.34    1.88
  -7  -4  21   -0.99    1.88
  -6  -4  21    6.19    2.20
  -5  -4  21    0.94    1.78
  -4  -4  21    2.04    1.75
  -4  -4  21    1.78    1.52
  -3  -4  21   -0.66    1.74
  -3  -4  21    0.50    1.67
  -2  -4  21    2.26    1.76
  -2  -4  21    1.32    1.73
  -1  -4  21    2.23    1.74
  -1  -4  21    1.67    1.89
   0  -4  21    0.94    1.79
   0  -4  21   -0.12    1.70
   1  -4  21    0.69    1.66
   1  -4  21   -0.04    1.74
   2  -4  21    4.10    1.80
   2  -4  21    2.94    1.94
   3  -4  21    0.36    1.87
   3  -4  21   -0.58    1.89
   4  -4  21    2.18    2.22
   4  -4  21   -0.01    1.81
   5  -4  21    4.99    2.21
   5  -4  21   -1.05    2.18
   6  -4  21    1.89    2.20
   6  -4  21   -0.42    2.09
 -12  -3  21    0.57    1.91
 -11  -3  21    3.37    1.95
 -10  -3  21    1.16    1.90
  -9  -3  21    1.50    1.75
  -8  -3  21    2.27    1.87
  -7  -3  21    0.00    1.81
  -6  -3  21    1.11    2.12
  -6  -3  21    3.63    2.03
  -5  -3  21    3.76    2.15
  -5  -3  21    1.80    1.78
  -4  -3  21   -2.11    1.50
  -4  -3  21   -3.68    1.72
  -3  -3  21    2.47    1.79
  -3  -3  21   -0.28    1.50
  -2  -3  21    2.49    1.67
  -2  -3  21   -1.96    1.66
  -1  -3  21    0.44    1.69
  -1  -3  21    2.36    1.75
   0  -3  21    1.42    1.79
   0  -3  21    1.23    1.71
   1  -3  21    2.76    1.84
   1  -3  21    2.35    1.85
   2  -3  21    2.21    1.82
   2  -3  21    2.81    1.93
   3  -3  21    2.04    1.93
   3  -3  21   -0.18    1.85
   4  -3  21    4.62    2.13
   4  -3  21    0.98    2.03
   5  -3  21    2.38    2.24
   5  -3  21    3.68    2.08
   6  -3  21    2.64    2.42
 -13  -2  21    1.29    1.97
 -11  -2  21    0.83    1.69
 -10  -2  21    2.20    1.83
  -9  -2  21   -0.30    1.78
  -8  -2  21    2.49    1.92
  -7  -2  21    1.90    1.75
  -6  -2  21   -1.95    1.90
  -6  -2  21    0.46    2.17
  -5  -2  21    2.95    2.22
  -5  -2  21   -2.06    1.69
  -4  -2  21    1.52    1.64
  -4  -2  21   -1.52    1.71
  -3  -2  21    0.85    1.66
  -3  -2  21   -2.25    1.71
  -2  -2  21    2.16    1.76
  -2  -2  21   -0.05    1.74
  -1  -2  21   -1.27    1.70
  -1  -2  21    1.34    1.69
   0  -2  21    0.19    1.73
   0  -2  21    0.91    1.65
   1  -2  21    2.83    2.00
   1  -2  21    1.66    1.82
   2  -2  21    0.75    1.72
   2  -2  21   -0.27    1.81
   3  -2  21    0.51    1.83
   3  -2  21   -0.20    1.78
   4  -2  21   -0.01    1.92
   4  -2  21    3.02    2.07
   5  -2  21    1.60    2.33
 -13  -1  21    4.08    1.86
 -11  -1  21    2.78    1.69
 -10  -1  21    2.67    1.76
  -9  -1  21    2.42    1.75
  -8  -1  21    1.56    1.79
  -7  -1  21    4.74    1.86
  -6  -1  21    0.23    1.88
  -6  -1  21   -0.32    1.85
  -5  -1  21   -0.91    1.77
  -5  -1  21   -1.94    1.90
  -4  -1  21   -1.29    1.79
  -4  -1  21    1.71    1.76
  -3  -1  21   -0.05    1.71
  -3  -1  21   -0.30    1.67
  -2  -1  21    1.83    1.68
  -1  -1  21   -0.16    1.60
  -1  -1  21   -0.33    1.76
   0  -1  21    0.73    1.76
   0  -1  21    1.36    1.76
   1  -1  21   -0.03    1.93
   1  -1  21    3.61    1.86
   2  -1  21    0.17    1.77
   2  -1  21    1.63    1.99
   3  -1  21    1.03    1.86
   3  -1  21    1.44    1.95
   4  -1  21   -1.17    1.95
   4  -1  21   -0.22    2.01
   5  -1  21   -0.26    2.10
 -13   0  21    3.56    1.88
 -11   0  21    0.20    1.72
 -10   0  21    1.43    1.67
  -9   0  21    3.47    1.76
  -8   0  21    2.49    1.81
  -7   0  21    1.01    1.83
  -6   0  21    1.73    1.85
  -6   0  21    3.13    1.95
  -5   0  21   -0.62    1.91
  -5   0  21    2.19    1.89
  -4   0  21    4.75    2.21
  -4   0  21    2.81    1.90
  -3   0  21    1.09    1.80
  -3   0  21   -3.13    1.73
  -2   0  21    0.35    1.78
  -2   0  21    0.37    1.84
  -1   0  21   -1.60    1.72
  -1   0  21    1.65    1.62
   0   0  21   -1.12    1.79
   0   0  21   -3.51    1.72
   1   0  21    2.04    1.85
   2   0  21    0.74    1.98
   2   0  21    1.83    2.06
   3   0  21   -0.66    1.91
   3   0  21    1.04    2.06
   4   0  21    0.44    1.99
   4   0  21    1.95    1.87
   5   0  21    2.82    2.26
   5   0  21    0.36    2.01
 -13   1  21    2.80    2.00
 -11   1  21    3.20    1.66
 -10   1  21    2.51    1.82
  -9   1  21    3.29    1.71
  -8   1  21    0.62    1.81
  -7   1  21    0.73    1.83
  -7   1  21    0.27    1.73
  -6   1  21    2.42    1.81
  -6   1  21    1.13    2.00
  -5   1  21    5.66    2.15
  -5   1  21    5.22    2.12
  -4   1  21   -2.20    1.91
  -4   1  21    2.44    1.89
  -3   1  21   -0.32    1.80
  -3   1  21    1.33    2.10
  -2   1  21    1.66    1.70
  -2   1  21   -0.40    1.85
  -1   1  21   -1.55    1.82
  -1   1  21    0.03    1.73
   0   1  21    0.77    1.72
   0   1  21   -0.53    1.99
   1   1  21   -0.73    1.83
   1   1  21   -2.61    1.85
   2   1  21   -1.67    1.88
   2   1  21   -2.59    1.77
   3   1  21    2.23    2.04
   4   1  21    1.92    2.25
 -13   2  21    4.02    1.91
 -11   2  21    0.76    1.84
 -10   2  21    2.21    1.73
  -9   2  21    1.71    1.75
  -8   2  21   -1.03    1.76
  -8   2  21    0.70    1.72
  -7   2  21    2.44    1.99
  -7   2  21   -0.02    1.85
  -6   2  21    1.79    1.92
  -6   2  21   -2.33    1.75
  -5   2  21    1.85    2.08
  -5   2  21    3.06    2.02
  -4   2  21    3.63    2.08
  -4   2  21   -0.03    1.98
  -3   2  21    0.86    2.13
  -3   2  21    2.86    2.02
  -2   2  21   -0.50    2.13
  -2   2  21   -0.50    2.09
  -1   2  21    0.09    2.01
  -1   2  21    3.79    2.49
   0   2  21   -0.55    1.88
   0   2  21    2.03    1.93
   1   2  21   -3.21    1.95
   1   2  21   -1.11    1.88
   2   2  21   -0.46    1.99
   2   2  21   -1.97    1.97
   3   2  21   -0.59    2.43
   3   2  21    0.74    2.12
   4   2  21   -0.99    2.25
 -13   3  21    3.90    1.94
 -11   3  21    2.74    1.90
 -10   3  21    0.80    1.85
  -9   3  21    3.17    2.00
  -8   3  21    4.12    1.92
  -8   3  21    0.92    1.76
  -7   3  21    0.27    1.86
  -7   3  21    2.31    1.92
  -6   3  21    4.52    2.11
  -6   3  21    3.08    2.02
  -5   3  21   -0.55    1.97
  -5   3  21    0.79    2.04
  -4   3  21   -0.04    2.02
  -4   3  21    4.84    2.30
  -3   3  21    2.67    2.22
  -3   3  21    0.85    2.14
  -2   3  21    1.89    1.99
  -2   3  21    1.39    2.31
  -1   3  21   -2.08    2.35
  -1   3  21    1.70    2.10
   0   3  21    1.84    2.47
   0   3  21   -2.30    2.18
   1   3  21   -0.56    1.91
   1   3  21    5.92    2.58
   2   3  21    3.54    2.06
   2   3  21   -2.10    1.93
   3   3  21    0.61    2.16
   3   3  21    0.12    2.24
 -12   4  21    1.78    2.05
 -11   4  21    1.96    1.93
 -10   4  21    5.60    2.02
  -9   4  21    0.75    2.04
  -8   4  21    2.35    2.12
  -8   4  21   -1.48    2.79
  -7   4  21    3.61    2.06
  -7   4  21   -0.63    1.95
  -6   4  21   -1.59    1.95
  -6   4  21    3.93    2.12
  -5   4  21    3.58    2.31
  -5   4  21   -1.85    2.03
  -4   4  21    1.38    2.13
  -4   4  21    4.35    2.30
  -3   4  21    0.35    2.30
  -3   4  21    2.80    2.27
  -2   4  21    2.32    2.35
  -2   4  21    2.00    2.49
  -1   4  21    2.77    2.51
  -1   4  21    2.38    2.35
   0   4  21   -0.16    2.56
   0   4  21    1.75    2.15
   1   4  21   -0.11    2.45
   2   4  21   -3.13    2.82
 -12   5  21    1.61    2.18
 -11   5  21    6.01    2.19
 -10   5  21    3.33    2.20
  -9   5  21    6.72    3.26
  -9   5  21    3.23    2.11
  -8   5  21   -5.49    2.91
  -8   5  21    1.37    2.14
  -7   5  21   -1.08    2.00
  -7   5  21    3.77    2.15
  -6   5  21   -0.42    2.19
  -6   5  21   -0.04    2.04
  -5   5  21    0.08    2.06
  -5   5  21    4.64    2.48
  -4   5  21    2.46    2.46
  -4   5  21   -2.24    2.09
  -3   5  21   -1.33    2.28
  -3   5  21    2.09    2.55
  -2   5  21    1.12    2.35
  -2   5  21    5.10    2.48
  -1   5  21    4.36    2.91
  -1   5  21   -0.30    2.58
   0   5  21    1.18    2.79
   0   5  21   -0.06    2.73
   1   5  21    0.00    2.84
 -10   6  21    3.68    2.25
  -9   6  21    0.48    3.20
  -9   6  21    2.37    2.21
  -8   6  21   -2.64    3.12
  -8   6  21    2.30    2.40
  -7   6  21   -0.87    2.09
  -7   6  21    3.33    2.47
  -6   6  21   -2.88    2.02
  -6   6  21   -0.09    2.41
  -5   6  21   -2.45    2.08
  -5   6  21    2.80    2.50
  -4   6  21   -1.83    2.61
  -4   6  21    0.34    2.24
  -3   6  21    6.16    2.83
  -3   6  21   -2.34    2.25
  -2   6  21   -0.59    2.36
  -2   6  21    7.89    2.81
  -1   6  21    3.80    2.83
  -1   6  21   -1.04    2.57
   0   6  21    3.73    3.04
 -10   7  21    0.83    2.46
  -9   7  21    4.45    3.47
  -9   7  21    0.49    2.46
  -8   7  21    6.30    2.62
  -8   7  21    0.99    3.36
  -7   7  21   -4.42    3.08
  -7   7  21    0.73    2.67
  -6   7  21   -1.37    2.25
  -6   7  21    0.95    2.80
  -5   7  21   -2.69    2.25
  -5   7  21    4.27    2.98
  -4   7  21    0.65    2.83
  -4   7  21   -3.98    2.34
  -3   7  21    4.24    2.94
  -3   7  21    0.74    2.43
  -2   7  21    5.18    2.97
  -2   7  21   -3.64    2.74
  -7   8  21   -0.46    2.92
  -7   8  21   -1.70    3.47
  -6   8  21    0.33    2.26
  -6   8  21    3.68    2.85
  -5   8  21    5.04    3.04
  -5 -10  22    2.03    2.12
  -4 -10  22   -0.96    2.05
  -3 -10  22    0.03    2.17
  -2 -10  22    2.64    2.16
  -1 -10  22   -2.23    1.93
   0 -10  22    2.01    2.00
   1 -10  22    3.88    2.22
  -6  -9  22   -0.28    2.08
   1  -9  22    1.23    2.29
   2  -9  22   -0.96    1.93
   3  -9  22    4.31    2.22
  -8  -8  22   -2.82    2.48
  -7  -8  22    2.86    2.83
  -5  -8  22    1.50    2.24
  -4  -8  22    1.01    2.12
  -3  -8  22    1.05    1.87
  -2  -8  22    0.70    1.92
  -1  -8  22    2.13    1.82
   0  -8  22    2.55    1.88
   3  -8  22    2.45    2.17
  -9  -7  22    3.99    2.21
  -8  -7  22    0.87    2.44
  -6  -7  22    1.80    2.04
  -5  -7  22   -1.56    1.87
  -4  -7  22    0.60    1.90
  -3  -7  22    3.32    1.83
  -3  -7  22    0.92    2.06
  -2  -7  22    0.62    1.86
  -2  -7  22    6.67    2.13
  -1  -7  22    3.80    2.00
   0  -7  22   -0.03    1.81
   1  -7  22    1.48    1.86
   2  -7  22    0.99    2.06
   4  -7  22    5.32    2.12
 -10  -6  22   -0.48    2.17
  -9  -6  22    3.03    2.16
  -7  -6  22   -0.14    1.99
  -6  -6  22    1.96    2.11
  -5  -6  22    0.02    1.78
  -4  -6  22    3.20    1.94
  -4  -6  22   -0.48    1.77
  -3  -6  22    0.92    1.78
  -3  -6  22   -0.04    1.87
  -2  -6  22    3.27    2.02
  -2  -6  22    1.55    1.98
  -1  -6  22    1.78    1.97
  -1  -6  22    3.00    1.96
   0  -6  22    2.31    1.86
   0  -6  22    3.52    2.03
   1  -6  22    7.69    2.19
   1  -6  22    2.44    1.96
   2  -6  22    0.09    1.91
   2  -6  22    7.95    2.25
   3  -6  22   -1.26    2.07
   3  -6  22    4.53    2.11
   4  -6  22    6.70    2.38
 -10  -5  22    2.68    2.19
  -8  -5  22    1.13    1.93
  -7  -5  22   -2.79    1.99
  -6  -5  22    5.69    2.05
  -5  -5  22    0.95    1.98
  -4  -5  22    1.97    1.73
  -4  -5  22   -1.36    1.86
  -3  -5  22    1.79    1.87
  -3  -5  22    2.26    2.00
  -2  -5  22    1.86    2.00
  -2  -5  22    3.86    1.89
  -1  -5  22   -0.29    1.88
  -1  -5  22   -0.18    1.85
   0  -5  22   -0.57    2.01
   0  -5  22   -0.94    1.68
   1  -5  22    1.19    1.87
   1  -5  22    2.88    1.99
   2  -5  22    0.51    1.90
   2  -5  22   -0.21    2.04
   3  -5  22    3.96    2.11
   3  -5  22    2.80    2.22
   4  -5  22   -0.52    2.19
   4  -5  22    2.96    2.37
 -11  -4  22    3.12    2.14
 -10  -4  22    1.13    2.22
  -9  -4  22    0.45    1.92
  -8  -4  22    4.06    2.07
  -7  -4  22    1.48    1.94
  -6  -4  22    4.88    1.93
  -5  -4  22    0.26    1.70
  -4  -4  22    2.89    2.05
  -4  -4  22    2.90    1.84
  -3  -4  22    0.86    1.96
  -3  -4  22   -1.96    1.70
  -2  -4  22    0.75    1.72
  -2  -4  22   -0.69    1.89
  -1  -4  22   -0.60    1.82
  -1  -4  22    0.84    1.84
   0  -4  22    0.70    1.93
   0  -4  22    2.97    1.87
   1  -4  22    3.64    2.03
   1  -4  22    2.55    1.97
   2  -4  22    1.59    1.97
   2  -4  22    1.11    2.02
   3  -4  22    0.99    2.10
   3  -4  22    2.09    1.97
   4  -4  22    1.14    2.18
   4  -4  22    0.78    1.97
 -11  -3  22    4.49    1.97
  -9  -3  22    1.63    1.79
  -8  -3  22    4.62    2.09
  -7  -3  22    4.78    2.31
  -6  -3  22   -0.26    2.04
  -5  -3  22   -2.62    1.77
  -5  -3  22    4.45    2.03
  -4  -3  22   -3.00    1.81
  -4  -3  22    1.23    2.08
  -3  -3  22    2.37    2.00
  -3  -3  22    1.27    1.77
  -2  -3  22   -0.51    1.77
  -2  -3  22   -1.67    1.92
  -1  -3  22    0.72    1.95
  -1  -3  22    3.42    1.96
   0  -3  22    0.27    1.77
   0  -3  22    0.51    1.90
   1  -3  22    1.34    1.88
   1  -3  22    0.31    1.97
   2  -3  22   -0.71    1.89
   2  -3  22    0.06    2.16
   3  -3  22    0.89    2.07
   3  -3  22    3.19    2.10
   4  -3  22    0.58    2.22
   4  -3  22    1.00    2.32
 -12  -2  22   -0.06    1.96
 -11  -2  22    3.10    1.83
  -9  -2  22    2.63    1.88
  -8  -2  22    1.63    1.97
  -7  -2  22    3.52    2.09
  -6  -2  22    0.14    1.95
  -5  -2  22    1.31    1.92
  -5  -2  22    3.37    1.94
  -4  -2  22    0.05    1.89
  -4  -2  22    1.90    1.71
  -3  -2  22   -0.41    1.64
  -2  -2  22    0.88    1.73
  -2  -2  22   -1.98    1.90
  -1  -2  22    3.10    2.10
  -1  -2  22   -1.05    1.91
   0  -2  22    2.19    1.88
   0  -2  22   -0.89    1.96
   1  -2  22    1.80    2.13
   1  -2  22    1.44    1.85
   2  -2  22    0.54    1.97
   2  -2  22    1.80    2.02
   3  -2  22   -0.08    1.94
   3  -2  22   -1.39    1.95
   4  -2  22    0.21    2.14
 -12  -1  22    5.84    2.02
 -11  -1  22    1.71    1.99
 -10  -1  22    2.35    1.95
  -9  -1  22    2.10    1.95
  -8  -1  22    2.55    1.86
  -7  -1  22    1.75    2.05
  -6  -1  22    0.41    2.04
  -6  -1  22    1.58    2.08
  -5  -1  22    0.14    1.97
  -5  -1  22   -2.51    1.98
  -4  -1  22    4.15    2.32
  -4  -1  22   -0.61    1.93
  -3  -1  22   -1.75    1.91
  -3  -1  22    0.75    1.60
  -2  -1  22    0.07    1.72
  -1  -1  22    0.30    1.80
   0  -1  22   -1.96    1.85
   0  -1  22   -2.03    1.87
   1  -1  22    3.17    2.17
   1  -1  22    3.52    1.97
   2  -1  22    1.61    2.01
   2  -1  22    1.70    2.09
   3  -1  22    1.36    2.05
   3  -1  22    0.07    2.23
   4  -1  22    0.39    2.15
 -12   0  22    1.48    1.92
 -11   0  22    0.88    2.04
 -10   0  22    3.63    1.85
  -9   0  22    1.86    1.88
  -8   0  22    1.10    1.93
  -7   0  22    4.52    1.99
  -6   0  22    1.49    1.92
  -6   0  22    1.13    2.01
  -5   0  22    1.38    2.04
  -5   0  22   -0.11    2.02
  -4   0  22   -2.32    2.06
  -4   0  22   -0.43    2.15
  -3   0  22    3.38    2.43
  -3   0  22    1.07    2.02
  -2   0  22   -3.39    1.89
  -2   0  22    1.17    1.74
  -1   0  22    0.22    1.93
  -1   0  22   -1.17    1.93
   0   0  22    0.09    1.95
   0   0  22   -1.69    1.92
   1   0  22   -3.62    2.11
   1   0  22   -0.18    2.09
   2   0  22    2.59    2.04
   2   0  22   -3.47    1.96
   3   0  22   -1.37    2.41
   3   0  22    0.73    2.16
 -12   1  22    1.63    1.68
 -11   1  22    5.91    2.11
 -10   1  22    0.86    1.85
  -9   1  22    0.97    1.77
  -8   1  22    3.34    2.06
  -7   1  22    3.02    2.05
  -7   1  22    3.45    2.20
  -6   1  22    1.44    2.00
  -6   1  22    2.75    2.11
  -5   1  22    3.66    2.32
  -5   1  22    3.58    2.18
  -4   1  22   -1.15    2.07
  -4   1  22    1.84    2.13
  -3   1  22   -0.87    2.10
  -3   1  22   -1.84    2.24
  -2   1  22   -0.73    2.01
  -2   1  22    3.81    2.50
  -1   1  22   -1.59    2.08
  -1   1  22    1.77    1.83
   0   1  22   -3.12    2.02
   0   1  22    1.65    2.01
   1   1  22   -1.02    2.03
   1   1  22   -0.78    2.00
   2   1  22   -0.01    2.11
   2   1  22   -0.55    1.94
   3   1  22   -0.21    2.25
 -12   2  22    4.68    2.16
 -11   2  22    1.92    1.93
 -10   2  22    2.68    1.96
  -9   2  22    2.44    1.85
  -8   2  22    2.27    1.86
  -7   2  22   -1.30    1.99
  -7   2  22    1.89    2.01
  -6   2  22   -2.71    1.93
  -6   2  22   -1.29    2.00
  -5   2  22    3.56    2.30
  -5   2  22    2.51    2.11
  -4   2  22    2.74    2.23
  -4   2  22    4.40    2.26
  -3   2  22    1.55    2.21
  -3   2  22    1.06    2.17
  -2   2  22    0.02    2.23
  -2   2  22   -2.23    2.33
  -1   2  22    2.32    2.52
  -1   2  22    0.39    2.09
   0   2  22    5.38    2.18
   0   2  22    1.59    2.28
   1   2  22    2.08    2.06
   1   2  22   -3.10    2.11
   2   2  22   -0.26    2.22
 -11   3  22    4.15    2.23
 -10   3  22    2.51    2.11
  -9   3  22    0.95    2.02
  -8   3  22    3.14    2.18
  -7   3  22    1.89    2.09
  -7   3  22    2.12    2.06
  -6   3  22    2.77    2.38
  -6   3  22   -0.43    2.13
  -5   3  22    1.43    2.32
  -5   3  22   -2.53    2.07
  -4   3  22   -0.18    2.22
  -4   3  22    1.18    2.17
  -3   3  22    2.78    2.40
  -3   3  22    2.82    2.46
  -2   3  22    3.72    2.60
  -2   3  22    2.77    2.34
  -1   3  22   -2.21    2.52
  -1   3  22    1.33    2.19
   0   3  22   -1.58    2.22
   0   3  22   -4.50    2.66
   1   3  22    2.23    2.88
   1   3  22   -3.68    2.44
 -11   4  22    3.14    2.18
  -9   4  22    1.61    2.19
  -8   4  22    3.05    2.21
  -8   4  22   -0.62    1.96
  -7   4  22    2.10    2.30
  -7   4  22   -2.83    2.08
  -6   4  22    5.38    2.44
  -6   4  22   -1.16    2.19
  -5   4  22   -2.62    2.21
  -5   4  22    2.44    2.38
  -4   4  22    0.64    2.14
  -4   4  22    3.34    2.67
  -3   4  22    1.85    2.31
  -3   4  22    1.29    2.55
  -2   4  22    2.32    2.60
  -2   4  22    3.63    2.62
  -1   4  22    1.69    2.78
  -1   4  22    0.84    2.56
   0   4  22    2.28    2.91
   0   4  22    1.96    2.52
  -9   5  22    3.19    2.41
  -8   5  22   -5.10    3.20
  -8   5  22   -2.14    2.25
  -7   5  22    5.72    2.55
  -7   5  22   -0.52    2.26
  -6   5  22    1.99    2.58
  -6   5  22   -0.36    2.24
  -5   5  22    4.04    2.51
  -5   5  22   -0.34    2.30
  -4   5  22    9.58    2.88
  -4   5  22   -3.21    2.21
  -3   5  22    2.62    2.80
  -3   5  22   -1.72    2.20
  -2   5  22    1.26    2.58
  -2   5  22    4.56    2.99
  -1   5  22    3.10    2.95
  -9   6  22    2.51    2.60
  -8   6  22   -2.50    3.48
  -8   6  22    3.85    2.72
  -7   6  22    6.08    2.70
  -7   6  22   -0.30    2.19
  -6   6  22    0.02    2.67
  -6   6  22   -0.64    2.30
  -5   6  22    6.88    2.82
  -5   6  22   -2.22    2.31
  -4   6  22    1.46    2.56
  -4   6  22    0.60    2.87
  -3   6  22    4.11    2.94
  -3  -9  23    0.96    2.03
  -2  -9  23    2.37    2.14
  -1  -9  23    1.57    1.97
  -6  -8  23    0.38    2.12
  -5  -8  23   -2.33    1.97
  -4  -8  23   -1.26    2.07
  -3  -8  23    4.78    2.05
  -2  -8  23    3.97    2.09
  -2  -8  23    9.30    2.36
  -1  -8  23    2.15    2.00
   0  -8  23    0.27    1.91
   1  -8  23    3.25    2.15
  -7  -7  23    2.00    2.18
  -6  -7  23    5.38    2.39
  -5  -7  23    0.47    2.11
  -3  -7  23    2.33    2.31
  -2  -7  23    0.00    2.21
  -1  -7  23    1.42    2.16
   0  -7  23    0.60    1.94
   0  -7  23    5.87    2.20
   1  -7  23    6.12    2.40
   1  -7  23    1.73    2.05
   2  -7  23    1.65    2.03
  -8  -6  23    0.60    2.40
  -7  -6  23    1.23    2.42
  -3  -6  23    0.83    2.04
  -3  -6  23   -2.92    1.93
  -2  -6  23    2.60    2.12
  -2  -6  23    0.74    2.05
  -1  -6  23    0.79    2.28
  -1  -6  23   -0.18    1.92
   0  -6  23    0.16    2.13
   1  -6  23    1.11    2.22
   2  -6  23    2.04    2.09
   2  -6  23    1.25    2.26
  -9  -5  23    1.32    2.08
  -8  -5  23    1.20    1.99
  -5  -5  23    3.23    2.09
  -4  -5  23    0.71    2.13
  -4  -5  23    1.82    1.97
  -3  -5  23    2.67    2.00
  -3  -5  23    0.36    2.12
  -2  -5  23    1.30    2.16
  -2  -5  23    3.79    2.01
  -1  -5  23    5.72    2.17
  -1  -5  23    3.10    2.16
   0  -5  23   -1.59    1.94
   0  -5  23    2.69    2.14
   1  -5  23   -0.70    1.91
   1  -5  23    2.92    2.23
   2  -5  23   -0.19    2.16
  -9  -4  23    0.57    2.10
  -8  -4  23    1.34    2.13
  -6  -4  23    3.06    2.42
  -5  -4  23    2.44    2.01
  -4  -4  23   -2.77    2.10
  -4  -4  23   -1.61    1.96
  -3  -4  23    0.70    2.12
  -3  -4  23    2.89    2.13
  -2  -4  23   -0.26    2.11
  -2  -4  23   -0.71    1.81
  -1  -4  23   -0.09    1.99
  -1  -4  23    2.31    1.96
   0  -4  23    1.84    2.27
   0  -4  23    1.29    1.99
   1  -4  23    0.01    2.16
   1  -4  23   -0.03    1.95
   2  -4  23    2.50    2.13
   2  -4  23   -0.15    2.06
 -10  -3  23    3.41    2.24
  -9  -3  23    3.46    1.89
  -7  -3  23    2.59    2.42
  -6  -3  23   -1.93    2.09
  -5  -3  23    7.81    2.82
  -4  -3  23   -2.11    2.11
  -3  -3  23    0.60    1.91
  -2  -3  23    0.37    2.13
  -2  -3  23   -0.32    1.83
  -1  -3  23    0.64    2.08
  -1  -3  23    1.95    2.11
   0  -3  23    0.61    2.13
   0  -3  23    1.56    2.05
   1  -3  23   -1.44    2.07
   1  -3  23   -0.15    2.13
   2  -3  23   -0.07    2.32
   2  -3  23    1.33    2.09
 -10  -2  23    0.53    2.02
  -9  -2  23    1.52    2.08
  -7  -2  23    0.12    2.21
  -5  -2  23   -2.39    2.02
  -5  -2  23   -1.12    2.12
  -4  -2  23    3.57    2.02
  -4  -2  23   -2.88    2.02
  -3  -2  23   -1.48    2.05
  -3  -2  23    1.55    1.99
  -2  -2  23   -3.41    2.03
  -2  -2  23   -1.26    1.91
  -1  -2  23   -2.68    2.07
  -1  -2  23    0.94    2.06
   0  -2  23    0.28    1.93
   0  -2  23    0.46    2.01
   1  -2  23    0.94    2.11
   1  -2  23    3.77    2.23
   2  -2  23   -0.70    2.09
   2  -2  23    0.32    2.33
 -10  -1  23    2.13    1.85
  -8  -1  23    3.16    2.03
  -7  -1  23    0.36    2.20
  -6  -1  23    1.48    2.22
  -5  -1  23    1.80    2.14
  -5  -1  23   -2.11    2.23
  -4  -1  23    1.59    2.12
  -4  -1  23    0.23    2.14
  -3  -1  23    2.08    2.12
  -3  -1  23   -2.91    2.16
  -2  -1  23    0.00    2.22
  -2  -1  23    0.96    2.09
  -1  -1  23    2.12    2.05
   0  -1  23   -1.74    2.17
   0  -1  23   -2.55    2.15
   1  -1  23   -2.46    2.14
   1  -1  23   -1.02    2.01
   2  -1  23   -0.54    2.15
   2  -1  23    2.79    2.40
 -10   0  23    4.10    2.00
  -8   0  23    3.03    2.25
  -7   0  23    0.43    1.94
  -6   0  23    2.08    2.27
  -6   0  23    1.78    2.16
  -5   0  23    0.54    2.27
  -5   0  23    1.67    2.38
  -4   0  23   -3.27    2.25
  -4   0  23    1.20    2.27
  -3   0  23    4.95    2.48
  -3   0  23    0.49    2.23
  -2   0  23    2.93    2.16
  -2   0  23   -2.06    2.08
  -1   0  23   -0.26    1.99
  -1   0  23   -1.00    2.07
   0   0  23   -0.74    2.14
   0   0  23   -1.21    2.17
   1   0  23   -2.90    2.24
   1   0  23    1.54    2.18
 -10   1  23    1.89    2.05
  -8   1  23    2.06    2.06
  -7   1  23    0.59    2.20
  -6   1  23   -1.67    2.19
  -6   1  23    1.90    2.29
  -5   1  23    4.12    2.45
  -5   1  23    4.15    2.35
  -4   1  23   -0.69    2.44
  -4   1  23    1.76    2.42
  -3   1  23    1.15    2.37
  -3   1  23   -3.38    2.44
  -2   1  23   -2.20    2.19
  -2   1  23    1.62    2.66
  -1   1  23    0.74    2.20
  -1   1  23    3.27    2.25
   0   1  23   -3.40    2.04
   0   1  23    1.67    2.10
   1   1  23   -0.63    2.15
 -10   2  23    4.31    2.16
  -8   2  23    0.93    2.12
  -7   2  23    2.82    2.20
  -6   2  23    1.56    2.33
  -6   2  23   -3.17    2.16
  -5   2  23    1.73    2.23
  -5   2  23    1.50    2.19
  -4   2  23    2.26    2.44
  -4   2  23    2.55    2.59
  -3   2  23    2.60    2.64
  -3   2  23    4.57    2.50
  -2   2  23    0.63    2.33
  -2   2  23   -2.40    2.53
  -1   2  23   -4.89    2.73
  -1   2  23   -1.29    2.43
   0   2  23    4.72    2.89
   0   2  23    0.19    2.36
  -8   3  23    4.86    2.46
  -7   3  23    0.06    2.19
  -7   3  23    4.06    2.33
  -6   3  23    0.53    2.43
  -6   3  23   -0.77    2.31
  -5   3  23    4.94    2.60
  -5   3  23   -3.12    2.23
  -4   3  23    1.11    2.34
  -4   3  23    1.30    2.64
  -3   3  23    5.34    2.78
  -3   3  23    1.64    2.73
  -2   3  23   -0.13    2.54
  -2   3  23    6.18    2.91
  -1   3  23    3.66    2.87
  -8   4  23    5.67    2.71
  -7   4  23   -3.66    2.28
  -7   4  23    1.54    2.53
  -6   4  23    0.41    2.41
  -6   4  23    5.83    2.65
  -5   4  23    0.38    2.40
  -5   4  23    2.74    2.64
  -4   4  23    2.78    2.76
  -4   4  23   -0.47    2.44
  -3   4  23    0.03    2.46
  -3   4  23    1.20    2.77
  -5  -6  24    0.57    2.37
  -4  -6  24   -0.63    2.09
  -3  -6  24   -0.56    2.10
  -2  -6  24    3.02    2.19
  -2  -6  24    0.87    2.27
  -1  -6  24    2.38    2.25
  -6  -5  24    4.08    2.27
  -5  -5  24    0.42    2.31
  -4  -5  24   -0.59    2.17
  -3  -5  24   -0.74    2.40
  -3  -5  24   -0.67    2.08
  -2  -5  24   -1.21    2.25
  -2  -5  24   -0.25    1.95
  -1  -5  24   -0.73    2.32
  -1  -5  24    2.63    2.22
  -7  -4  24   -0.09    2.33
  -6  -4  24   -1.08    2.13
  -5  -4  24    4.57    2.18
  -3  -4  24   -2.87    2.29
  -2  -4  24    3.03    2.33
  -1  -4  24    1.44    2.37
  -1  -4  24    2.47    2.32
   0  -4  24    0.24    2.15
   0  -4  24    0.43    2.24
  -8  -3  24    2.74    2.19
  -7  -3  24    2.87    2.20
  -6  -3  24   -0.58    2.39
  -4  -3  24   -2.84    2.25
  -3  -3  24   -4.47    2.23
  -2  -3  24   -3.72    2.24
  -1  -3  24   -0.18    2.24
   0  -3  24    0.20    2.40
  -8  -2  24    2.52    2.18
  -7  -2  24    4.36    2.46
  -4  -2  24   -0.22    2.30
  -3  -2  24   -4.45    2.24
  -3  -2  24    0.38    2.16
  -2  -2  24   -2.73    2.18
  -2  -2  24   -0.75    2.09
  -1  -2  24   -3.69    2.18
  -1  -2  24    1.21    2.08
  -8  -1  24    1.81    2.11
  -7  -1  24    2.96    2.23
  -5  -1  24    1.82    2.44
  -4  -1  24   -2.27    2.50
  -4  -1  24    3.00    2.52
  -3  -1  24    8.16    3.08
  -3  -1  24    0.33    2.34
  -2  -1  24    0.06    2.10
  -2  -1  24   -4.41    2.15
  -1  -1  24   -0.47    2.32
  -1  -1  24   -0.40    2.17
  -8   0  24    3.06    2.24
  -7   0  24    2.30    2.49
  -5   0  24    1.17    2.42
  -5   0  24    4.14    2.57
  -4   0  24    3.13    2.50
  -4   0  24    2.25    2.49
  -3   0  24   -1.33    2.63
  -3   0  24   -2.59    2.47
  -2   0  24    6.80    3.02
  -2   0  24   -0.15    2.39
  -8   1  24    1.21    2.16
  -5   1  24    5.10    2.70
  -5   1  24    5.34    2.75
  -4   1  24    3.07    2.81
  -4   1  24    0.33    2.55
  -3   1  24    0.57    2.54
  -3   1  24    0.70    2.86
  -5   2  24    6.69    2.91
  -5   2  24   -0.65    2.44
  -4   2  24    1.19    2.72
   0   0   0    0.00    0.00
;
_shelx_hkl_checksum              56796
loop_
_space_group_symop_operation_xyz
'x, y, z'
'-x, -y, -z'
loop_
_atom_site_label
_atom_site_type_symbol
_atom_site_fract_x
_atom_site_fract_y
_atom_site_fract_z
_atom_site_U_iso_or_equiv
_atom_site_adp_type
_atom_site_occupancy
_atom_site_site_symmetry_order
_atom_site_calc_flag
_atom_site_refinement_flags_posn
_atom_site_refinement_flags_adp
_atom_site_refinement_flags_occupancy
_atom_site_disorder_assembly
_atom_site_disorder_group
Zn1 Zn 0.65669(6) 0.11095(6) 0.31748(5) 0.0295(3) Uani 1 1 d . . . . .
C1 C 0.7631(6) -0.1755(6) 0.4861(5) 0.045(2) Uani 1 1 d . . . . .
H1 H 0.7358 -0.1361 0.5155 0.054 Uiso 1 1 calc R U . . .
C2 C 0.7928(6) -0.2500(6) 0.5148(5) 0.046(2) Uani 1 1 d . . . . .
H2 H 0.7844 -0.2633 0.5624 0.055 Uiso 1 1 calc R U . . .
C3 C 0.8347(6) -0.3042(6) 0.4732(5) 0.053(3) Uani 1 1 d . . . . .
H3 H 0.8552 -0.3561 0.4921 0.064 Uiso 1 1 calc R U . . .
C4 C 0.8481(6) -0.2851(6) 0.4038(5) 0.040(2) Uani 1 1 d . . . . .
C5 C 0.8165(5) -0.2105(5) 0.3762(5) 0.034(2) Uani 1 1 d . . . . .
H5 H 0.8258 -0.1964 0.3290 0.041 Uiso 1 1 calc R U . . .
C6 C 0.7714(5) -0.1558(5) 0.4163(5) 0.030(2) Uani 1 1 d . . . . .
C7 C 0.7371(5) -0.0756(5) 0.3869(4) 0.032(2) Uani 1 1 d . . . . .
C8 C 0.8098(5) 0.0023(5) 0.3762(4) 0.0288(19) Uani 1 1 d . . . . .
C9 C 0.9152(5) 0.0135(5) 0.3965(4) 0.036(2) Uani 1 1 d . . . . .
H9 H 0.9479 -0.0287 0.4205 0.044 Uiso 1 1 calc R U . . .
C10 C 0.9585(6) 0.0943(5) 0.3752(4) 0.037(2) Uani 1 1 d . . . . .
H10 H 1.0276 0.1193 0.3803 0.044 Uiso 1 1 calc R U . . .
C11 C 0.8825(6) 0.1362(5) 0.3435(4) 0.031(2) Uani 1 1 d . . . . .
C12 C 0.8985(5) 0.2228(5) 0.3144(4) 0.030(2) Uani 1 1 d . . . . .
C13 C 0.9992(5) 0.2655(6) 0.3049(4) 0.032(2) Uani 1 1 d . . . . .
C14 C 1.0430(5) 0.2098(5) 0.2646(4) 0.035(2) Uani 1 1 d . . . . .
H14 H 1.0083 0.1442 0.2439 0.042 Uiso 1 1 calc R U . . .
C15 C 1.1374(6) 0.2472(6) 0.2534(5) 0.040(2) Uani 1 1 d . . . . .
C16 C 1.1868(6) 0.3447(6) 0.2843(5) 0.041(2) Uani 1 1 d . . . . .
H16 H 1.2502 0.3723 0.2769 0.049 Uiso 1 1 calc R U . . .
C17 C 1.1450(6) 0.3998(6) 0.3245(5) 0.047(2) Uani 1 1 d . . . . .
H17 H 1.1800 0.4652 0.3456 0.057 Uiso 1 1 calc R U . . .
C18 C 1.0517(5) 0.3618(6) 0.3353(4) 0.040(2) Uani 1 1 d . . . . .
H18 H 1.0233 0.4014 0.3635 0.048 Uiso 1 1 calc R U . . .
C19 C 0.8248(6) 0.2710(5) 0.2937(4) 0.032(2) Uani 1 1 d . . . . .
C20 C 0.8346(6) 0.3524(5) 0.2558(5) 0.041(2) Uani 1 1 d . . . . .
H20 H 0.8895 0.3808 0.2374 0.050 Uiso 1 1 calc R U . . .
C21 C 0.7520(6) 0.3800(6) 0.2514(5) 0.050(3) Uani 1 1 d . . . . .
H21 H 0.7376 0.4328 0.2297 0.060 Uiso 1 1 calc R U . . .
C22 C 0.6888(6) 0.3168(5) 0.2847(4) 0.033(2) Uani 1 1 d . . . . .
C23 C 0.5962(5) 0.3248(5) 0.2954(4) 0.0295(19) Uani 1 1 d . . . . .
C24 C 0.5652(6) 0.4125(6) 0.2762(5) 0.045(2) Uani 1 1 d . . . . .
C25 C 0.6249(6) 0.5047(6) 0.3063(6) 0.064(3) Uani 1 1 d . . . . .
H25 H 0.6880 0.5139 0.3403 0.077 Uiso 1 1 calc R U . . .
C26 C 0.5943(7) 0.5831(7) 0.2878(7) 0.087(4) Uani 1 1 d . . . . .
H26 H 0.6358 0.6460 0.3104 0.105 Uiso 1 1 calc R U . . .
C27 C 0.5045(7) 0.5728(7) 0.2372(7) 0.084(4) Uani 1 1 d . . . . .
H27 H 0.4853 0.6281 0.2242 0.101 Uiso 1 1 calc R U . . .
C28 C 0.4423(6) 0.4807(6) 0.2054(6) 0.052(3) Uani 1 1 d . . . . .
C29 C 0.4746(6) 0.4024(6) 0.2244(5) 0.043(2) Uani 1 1 d . . . . .
H29 H 0.4337 0.3393 0.2015 0.052 Uiso 1 1 calc R U . . .
C30 C 0.5301(5) 0.2555(6) 0.3211(4) 0.032(2) Uani 1 1 d . . . . .
C31 C 0.4409(5) 0.2687(6) 0.3401(5) 0.039(2) Uani 1 1 d . . . . .
H31 H 0.4176 0.3247 0.3394 0.047 Uiso 1 1 calc R U . . .
C32 C 0.3984(6) 0.1860(6) 0.3587(4) 0.037(2) Uani 1 1 d . . . . .
H32 H 0.3387 0.1730 0.3745 0.045 Uiso 1 1 calc R U . . .
C33 C 0.4558(5) 0.1205(5) 0.3513(4) 0.030(2) Uani 1 1 d . . . . .
C34 C 0.4347(5) 0.0250(5) 0.3640(4) 0.033(2) Uani 1 1 d . . . . .
C35 C 0.3372(5) -0.0166(5) 0.3793(5) 0.034(2) Uani 1 1 d . . . . .
C36 C 0.2470(6) -0.0282(5) 0.3252(5) 0.041(2) Uani 1 1 d . . . . .
H36 H 0.2475 -0.0071 0.2786 0.049 Uiso 1 1 calc R U . . .
C37 C 0.1563(6) -0.0710(6) 0.3404(5) 0.047(2) Uani 1 1 d . . . . .
C38 C 0.1554(6) -0.1010(6) 0.4084(6) 0.048(2) Uani 1 1 d . . . . .
H38 H 0.0940 -0.1294 0.4186 0.057 Uiso 1 1 calc R U . . .
C39 C 0.2429(6) -0.0901(6) 0.4613(5) 0.047(2) Uani 1 1 d . . . . .
H39 H 0.2418 -0.1121 0.5076 0.056 Uiso 1 1 calc R U . . .
C40 C 0.3324(6) -0.0474(5) 0.4475(5) 0.040(2) Uani 1 1 d . . . . .
H40 H 0.3922 -0.0387 0.4853 0.048 Uiso 1 1 calc R U . . .
C41 C 0.4991(5) -0.0348(6) 0.3672(4) 0.031(2) Uani 1 1 d . . . . .
C42 C 0.4784(6) -0.1312(5) 0.3821(5) 0.040(2) Uani 1 1 d . . . . .
H42 H 0.4172 -0.1684 0.3878 0.048 Uiso 1 1 calc R U . . .
C43 C 0.5609(6) -0.1585(5) 0.3866(4) 0.039(2) Uani 1 1 d . . . . .
H43 H 0.5685 -0.2200 0.3947 0.047 Uiso 1 1 calc R U . . .
C44 C 0.6369(5) -0.0798(5) 0.3772(4) 0.031(2) Uani 1 1 d . . . . .
C45 C 0.8952(6) -0.3432(6) 0.3610(5) 0.056(3) Uani 0.591(14) 1 d D U P A 1
H45 H 0.8902 -0.4070 0.3700 0.067 Uiso 0.591(14) 1 calc R U P A 1
N8 N 0.9422(14) -0.3164(12) 0.3128(8) 0.041(5) Uani 0.591(14) 1 d D U P A 1
C46 C 0.9945(14) -0.3778(15) 0.2824(8) 0.057(5) Uani 0.591(14) 1 d D U P A 1
H46A H 0.9711 -0.4431 0.2936 0.069 Uiso 0.591(14) 1 calc R U P A 1
H46B H 1.0661 -0.3526 0.3082 0.069 Uiso 0.591(14) 1 calc R U P A 1
C47 C 0.9816(12) -0.3855(13) 0.1992(8) 0.077(6) Uani 0.591(14) 1 d D U P A 1
H47A H 1.0216 -0.4274 0.1840 0.092 Uiso 0.591(14) 1 calc R U P A 1
H47B H 1.0103 -0.3205 0.1895 0.092 Uiso 0.591(14) 1 calc R U P A 1
C48 C 0.8784(14) -0.423(2) 0.1486(10) 0.089(8) Uani 0.591(14) 1 d D U P A 1
H48A H 0.8467 -0.4868 0.1594 0.107 Uiso 0.591(14) 1 calc R U P A 1
H48B H 0.8388 -0.3787 0.1594 0.107 Uiso 0.591(14) 1 calc R U P A 1
C49 C 0.8778(13) -0.4340(15) 0.0681(9) 0.085(6) Uani 0.591(14) 1 d D U P A 1
H49A H 0.9178 -0.4788 0.0585 0.102 Uiso 0.591(14) 1 calc R U P A 1
H49B H 0.9120 -0.3705 0.0588 0.102 Uiso 0.591(14) 1 calc R U P A 1
C50 C 0.7778(15) -0.470(2) 0.0109(11) 0.100(9) Uani 0.591(14) 1 d D U P A 1
H50A H 0.7391 -0.5296 0.0233 0.120 Uiso 0.591(14) 1 calc R U P A 1
H50B H 0.7409 -0.4210 0.0143 0.120 Uiso 0.591(14) 1 calc R U P A 1
C51 C 0.7864(17) -0.491(3) -0.0664(10) 0.085(9) Uani 0.591(14) 1 d D U P A 1
H51A H 0.8247 -0.5388 -0.0696 0.102 Uiso 0.591(14) 1 calc R U P A 1
H51B H 0.8237 -0.4310 -0.0793 0.102 Uiso 0.591(14) 1 calc R U P A 1
N5 N 0.6877(19) -0.5285(13) -0.1223(15) 0.074(8) Uani 0.591(14) 1 d D U P A 1
C52 C 0.6560(6) -0.4651(6) -0.1530(5) 0.053(3) Uani 0.591(14) 1 d D U P A 1
H52 H 0.6993 -0.4016 -0.1412 0.064 Uiso 0.591(14) 1 calc R U P A 1
C45B C 0.8952(6) -0.3432(6) 0.3610(5) 0.056(3) Uani 0.409(14) 1 d D U P A 2
H45B H 0.9161 -0.3951 0.3796 0.067 Uiso 0.409(14) 1 calc R U P A 2
N8B N 0.907(2) -0.322(2) 0.2984(11) 0.056(7) Uani 0.409(14) 1 d D U P A 2
C46B C 0.9538(19) -0.378(2) 0.2567(11) 0.062(7) Uani 0.409(14) 1 d D U P A 2
H46C H 0.9519 -0.4392 0.2758 0.074 Uiso 0.409(14) 1 calc R U P A 2
H46D H 1.0243 -0.3423 0.2650 0.074 Uiso 0.409(14) 1 calc R U P A 2
C47B C 0.9051(18) -0.401(2) 0.1745(12) 0.055(7) Uani 0.409(14) 1 d D U P A 2
H47C H 0.9182 -0.3401 0.1542 0.066 Uiso 0.409(14) 1 calc R U P A 2
H47D H 0.8324 -0.4240 0.1674 0.066 Uiso 0.409(14) 1 calc R U P A 2
C48B C 0.9370(17) -0.4742(17) 0.1287(10) 0.077(8) Uani 0.409(14) 1 d D U P A 2
H48C H 1.0096 -0.4630 0.1471 0.092 Uiso 0.409(14) 1 calc R U P A 2
H48D H 0.9044 -0.5394 0.1360 0.092 Uiso 0.409(14) 1 calc R U P A 2
C49B C 0.9118(15) -0.471(2) 0.0470(11) 0.066(7) Uani 0.409(14) 1 d D U P A 2
H49C H 0.9399 -0.5169 0.0213 0.080 Uiso 0.409(14) 1 calc R U P A 2
H49D H 0.9457 -0.4054 0.0406 0.080 Uiso 0.409(14) 1 calc R U P A 2
C50B C 0.8020(15) -0.493(2) 0.0067(13) 0.059(8) Uani 0.409(14) 1 d D U P A 2
H50C H 0.7652 -0.5534 0.0185 0.070 Uiso 0.409(14) 1 calc R U P A 2
H50D H 0.7754 -0.4402 0.0254 0.070 Uiso 0.409(14) 1 calc R U P A 2
C51B C 0.7864(17) -0.502(3) -0.0744(14) 0.054(8) Uani 0.409(14) 1 d D U P A 2
H51C H 0.8153 -0.5526 -0.0927 0.065 Uiso 0.409(14) 1 calc R U P A 2
H51D H 0.8217 -0.4403 -0.0861 0.065 Uiso 0.409(14) 1 calc R U P A 2
N5B N 0.679(2) -0.5265(17) -0.115(2) 0.059(9) Uani 0.409(14) 1 d D U P A 2
C52B C 0.6560(6) -0.4651(6) -0.1530(5) 0.053(3) Uani 0.409(14) 1 d D U P A 2
H52B H 0.7044 -0.4055 -0.1474 0.064 Uiso 0.409(14) 1 calc R U P A 2
C53 C 1.1789(6) 0.1835(6) 0.2094(5) 0.042(2) Uani 1 1 d D . . . .
H53 H 1.1474 0.1162 0.1980 0.050 Uiso 1 1 calc R U . . .
N6 N 1.2548(5) 0.2152(5) 0.1864(4) 0.0447(19) Uani 1 1 d D . . . .
C54 C 1.2924(6) 0.1463(6) 0.1481(5) 0.054(3) Uani 1 1 d D . . . .
H54A H 1.2520 0.0802 0.1470 0.065 Uiso 1 1 calc R U . . .
H54B H 1.3617 0.1525 0.1758 0.065 Uiso 1 1 calc R U . . .
C55 C 1.2896(6) 0.1618(7) 0.0684(5) 0.065(3) Uani 1 1 d D . . . .
H55A H 1.3212 0.1170 0.0449 0.078 Uiso 1 1 calc R U . . .
H55B H 1.3288 0.2284 0.0699 0.078 Uiso 1 1 calc R U . . .
C56 C 1.1851(6) 0.1459(7) 0.0202(6) 0.074(3) Uani 1 1 d D . . . .
H56A H 1.1426 0.0852 0.0279 0.089 Uiso 1 1 calc R U . . .
H56B H 1.1589 0.1992 0.0378 0.089 Uiso 1 1 calc R U . . .
C57 C 1.1771(7) 0.1405(10) -0.0602(6) 0.119(5) Uani 1 1 d D . . . .
H57A H 1.2071 0.0901 -0.0775 0.143 Uiso 1 1 calc R U . . .
H57B H 1.2151 0.2029 -0.0688 0.143 Uiso 1 1 calc R U . . .
C58 C 1.0670(8) 0.1168(12) -0.1080(7) 0.151(7) Uani 1 1 d D . . . .
H58A H 1.0241 0.0707 -0.0855 0.181 Uiso 1 1 calc R U . . .
H58B H 1.0454 0.1766 -0.1057 0.181 Uiso 1 1 calc R U . . .
C59 C 1.0544(7) 0.0778(8) -0.1822(7) 0.098(4) Uani 1 1 d D . . . .
H59A H 1.0761 0.0180 -0.1846 0.117 Uiso 1 1 calc R U . . .
H59B H 1.0968 0.1239 -0.2049 0.117 Uiso 1 1 calc R U . . .
N7 N 0.9495(5) 0.0553(6) -0.2265(5) 0.070(3) Uani 1 1 d D . . . .
C60 C 0.9388(7) 0.0867(6) -0.2865(6) 0.060(3) Uani 1 1 d D . . . .
H60 H 0.9964 0.1232 -0.2979 0.072 Uiso 1 1 calc R U . . .
C61 C 0.6530(8) 0.0684(9) 0.1516(6) 0.109(5) Uani 1 1 d . . . . .
H61 H 0.7230 0.0910 0.1712 0.131 Uiso 1 1 calc R U . . .
C62 C 0.6193(8) 0.0497(9) 0.0745(6) 0.103(5) Uani 1 1 d . . . . .
H62 H 0.6653 0.0626 0.0447 0.124 Uiso 1 1 calc R U . . .
C63 C 0.5216(6) 0.0130(6) 0.0405(4) 0.037(2) Uani 1 1 d . . . . .
C64 C 0.4650(7) -0.0047(7) 0.0900(5) 0.070(3) Uani 1 1 d . . . . .
H64 H 0.3956 -0.0340 0.0716 0.084 Uiso 1 1 calc R U . . .
C65 C 0.5085(7) 0.0199(7) 0.1684(5) 0.063(3) Uani 1 1 d . . . . .
H65 H 0.4659 0.0067 0.2007 0.076 Uiso 1 1 calc R U . . .
O1 O 0.1541(9) 0.7235(11) 0.1394(7) 0.272(8) Uani 1 1 d D U . B 1
C68 C 0.2372(12) 0.7378(8) 0.1873(8) 0.189(7) Uani 1 1 d D U . B 1
C69 C 0.3293(10) 0.8040(12) 0.1789(8) 0.233(9) Uani 1 1 d D U . B 1
H69A H 0.3853 0.8057 0.2209 0.349 Uiso 1 1 calc R U . B 1
H69B H 0.3424 0.7809 0.1312 0.349 Uiso 1 1 calc R U . B 1
H69C H 0.3208 0.8690 0.1791 0.349 Uiso 1 1 calc R U . B 1
C70 C 0.2515(9) 0.6914(10) 0.2546(7) 0.170(6) Uani 1 1 d D U . B 1
H70A H 0.3215 0.7134 0.2830 0.254 Uiso 1 1 calc R U . B 1
H70B H 0.2103 0.7090 0.2868 0.254 Uiso 1 1 calc R U . B 1
H70C H 0.2321 0.6212 0.2386 0.254 Uiso 1 1 calc R U . B 1
O2 O 0.145(2) 0.5499(14) 0.5344(12) 0.190(10) Uani 0.607(11) 1 d D U P C 1
C71 C 0.1818(15) 0.6115(11) 0.4993(8) 0.129(9) Uani 0.607(11) 1 d D U P C 1
C72 C 0.1243(17) 0.6599(16) 0.4452(16) 0.148(12) Uani 0.607(11) 1 d D U P C 1
H72A H 0.1703 0.7052 0.4253 0.222 Uiso 0.607(11) 1 calc R U P C 1
H72B H 0.0775 0.6111 0.4035 0.222 Uiso 0.607(11) 1 calc R U P C 1
H72C H 0.0875 0.6951 0.4715 0.222 Uiso 0.607(11) 1 calc R U P C 1
C73 C 0.2891(15) 0.6491(19) 0.5037(13) 0.149(11) Uani 0.607(11) 1 d D U P C 1
H73A H 0.2977 0.6967 0.4706 0.224 Uiso 0.607(11) 1 calc R U P C 1
H73B H 0.3253 0.6797 0.5558 0.224 Uiso 0.607(11) 1 calc R U P C 1
H73C H 0.3151 0.5958 0.4877 0.224 Uiso 0.607(11) 1 calc R U P C 1
C75 C 0.2274(15) 0.6568(14) 0.5223(16) 0.109(8) Uani 0.393(11) 1 d D U P C 2
H75 H 0.2623 0.6951 0.5740 0.130 Uiso 0.393(11) 1 calc R U P C 2
Cl10 Cl 0.1152(9) 0.6777(10) 0.5005(7) 0.146(6) Uani 0.393(11) 1 d D U P C 2
Cl11 Cl 0.3043(10) 0.6895(9) 0.4670(9) 0.184(7) Uani 0.393(11) 1 d D U P C 2
Cl12 Cl 0.2207(12) 0.5403(8) 0.5286(8) 0.152(6) Uani 0.393(11) 1 d D U P C 2
N1 N 0.5959(4) -0.0056(4) 0.3615(3) 0.0320(16) Uani 1 1 d . . . . .
N2 N 0.5388(4) 0.1641(4) 0.3311(3) 0.0292(16) Uani 1 1 d . . . . .
N3 N 0.7333(4) 0.2485(4) 0.3087(3) 0.0311(16) Uani 1 1 d . . . . .
N4 N 0.7904(4) 0.0790(4) 0.3438(3) 0.0295(16) Uani 1 1 d . . . . .
N9 N 0.6031(5) 0.0595(4) 0.2001(4) 0.0350(17) Uani 1 1 d . . . . .
C66 C 0.1130(7) 0.7633(8) -0.0270(9) 0.188(8) Uani 1 1 d D . . . .
H66 H 0.1068 0.7523 0.0243 0.225 Uiso 1 1 calc R U . . .
Cl1 Cl 0.1249(5) 0.8798(4) -0.0301(5) 0.330(5) Uani 1 1 d D . . . .
Cl2 Cl 0.2177(3) 0.7339(3) -0.0413(3) 0.1642(17) Uani 1 1 d D . . . .
Cl3 Cl 0.0097(3) 0.6946(4) -0.0912(3) 0.224(3) Uani 1 1 d D . . . .
C67 C 0.5154(17) 0.6933(15) 0.0924(12) 0.162(9) Uani 0.479(15) 1 d D U P D 1
H67 H 0.4595 0.6486 0.1056 0.194 Uiso 0.479(15) 1 calc R U P D 1
Cl4 Cl 0.6036(15) 0.6359(13) 0.0828(12) 0.233(9) Uani 0.479(15) 1 d D U P D 1
Cl5 Cl 0.5692(9) 0.7922(7) 0.1639(10) 0.178(6) Uani 0.479(15) 1 d D U P D 1
Cl6 Cl 0.4708(9) 0.7306(9) 0.0093(10) 0.180(6) Uani 0.479(15) 1 d D U P D 1
C67B C 0.4853(13) 0.6555(12) 0.0354(10) 0.109(7) Uani 0.521(15) 1 d D U P D 2
H67B H 0.4317 0.6171 0.0551 0.131 Uiso 0.521(15) 1 calc R U P D 2
Cl4B Cl 0.5777(12) 0.6004(12) 0.0414(10) 0.219(7) Uani 0.521(15) 1 d D U P D 2
Cl5B Cl 0.5312(10) 0.7699(7) 0.0899(10) 0.191(6) Uani 0.521(15) 1 d D U P D 2
Cl6B Cl 0.4365(7) 0.6619(11) -0.0561(8) 0.169(6) Uani 0.521(15) 1 d D U P D 2
C74 C 0.5068(12) 0.4867(17) 0.4659(13) 0.237(12) Uani 0.5 1 d D U P E -1
H74 H 0.5269 0.4404 0.4321 0.284 Uiso 0.5 1 calc R U P E -1
Cl7 Cl 0.6101(6) 0.5705(11) 0.5112(10) 0.243(7) Uani 0.5 1 d D U P E -1
Cl8 Cl 0.4225(10) 0.5272(13) 0.4086(6) 0.286(7) Uani 0.5 1 d D U P E -1
Cl9 Cl 0.4595(16) 0.4229(14) 0.5260(12) 0.397(12) Uani 0.5 1 d D U P E -1
loop_
_atom_site_aniso_label
_atom_site_aniso_U_11
_atom_site_aniso_U_22
_atom_site_aniso_U_33
_atom_site_aniso_U_23
_atom_site_aniso_U_13
_atom_site_aniso_U_12
Zn1 0.0238(5) 0.0350(6) 0.0260(6) 0.0048(5) 0.0027(4) 0.0051(4)
C1 0.037(5) 0.050(6) 0.046(6) 0.009(5) 0.004(5) 0.016(5)
C2 0.060(6) 0.040(5) 0.045(6) 0.012(5) 0.024(5) 0.019(5)
C3 0.064(7) 0.043(6) 0.056(7) 0.023(5) 0.007(6) 0.023(5)
C4 0.031(5) 0.033(5) 0.056(7) 0.012(5) 0.013(5) 0.004(4)
C5 0.030(5) 0.028(5) 0.038(6) 0.011(4) 0.008(4) -0.007(4)
C6 0.024(4) 0.034(5) 0.031(5) 0.008(4) 0.007(4) 0.004(4)
C7 0.031(5) 0.035(5) 0.035(5) 0.020(4) 0.015(4) 0.007(4)
C8 0.029(5) 0.029(5) 0.031(5) 0.007(4) 0.011(4) 0.010(4)
C9 0.024(4) 0.042(5) 0.049(6) 0.017(5) 0.013(4) 0.013(4)
C10 0.028(5) 0.039(5) 0.041(6) 0.007(5) 0.012(4) 0.003(4)
C11 0.032(5) 0.031(5) 0.029(5) 0.000(4) 0.006(4) 0.011(4)
C12 0.021(4) 0.030(5) 0.034(5) -0.001(4) 0.003(4) 0.004(4)
C13 0.021(4) 0.040(5) 0.036(5) 0.019(5) 0.006(4) 0.008(4)
C14 0.029(5) 0.032(5) 0.040(6) 0.015(4) 0.001(4) 0.002(4)
C15 0.030(5) 0.044(6) 0.045(6) 0.012(5) 0.008(4) 0.009(4)
C16 0.023(5) 0.046(6) 0.046(6) 0.010(5) 0.008(4) -0.002(4)
C17 0.035(5) 0.041(6) 0.064(7) 0.017(5) 0.014(5) 0.003(5)
C18 0.030(5) 0.048(6) 0.037(6) 0.010(5) 0.004(4) 0.006(4)
C19 0.028(5) 0.026(5) 0.034(5) -0.004(4) 0.008(4) -0.001(4)
C20 0.031(5) 0.046(6) 0.053(6) 0.029(5) 0.011(5) 0.012(4)
C21 0.033(5) 0.037(5) 0.079(8) 0.029(5) 0.002(5) 0.012(4)
C22 0.028(5) 0.033(5) 0.031(5) 0.007(4) -0.003(4) 0.004(4)
C23 0.033(5) 0.029(5) 0.024(5) 0.001(4) -0.001(4) 0.012(4)
C24 0.029(5) 0.038(5) 0.071(7) 0.017(5) 0.012(5) 0.011(4)
C25 0.033(5) 0.032(5) 0.113(9) 0.006(6) -0.007(6) 0.007(5)
C26 0.042(6) 0.033(6) 0.156(12) 0.007(7) -0.016(7) -0.002(5)
C27 0.040(6) 0.040(6) 0.162(12) 0.031(7) -0.002(7) 0.012(5)
C28 0.036(5) 0.031(5) 0.082(8) 0.019(5) 0.000(5) 0.005(5)
C29 0.029(5) 0.038(5) 0.056(7) 0.009(5) 0.004(5) 0.004(4)
C30 0.027(5) 0.039(5) 0.032(5) 0.010(4) 0.003(4) 0.014(4)
C31 0.032(5) 0.047(6) 0.044(6) 0.009(5) 0.008(4) 0.023(4)
C32 0.043(5) 0.046(6) 0.028(5) 0.004(5) 0.014(4) 0.021(5)
C33 0.020(4) 0.036(5) 0.028(5) 0.001(4) -0.002(4) 0.004(4)
C34 0.022(4) 0.040(5) 0.030(5) 0.007(4) 0.003(4) 0.000(4)
C35 0.023(4) 0.035(5) 0.039(6) 0.004(4) 0.002(4) 0.004(4)
C36 0.034(5) 0.030(5) 0.052(6) 0.002(5) 0.007(5) 0.004(4)
C37 0.020(5) 0.056(6) 0.056(7) 0.002(5) 0.001(5) 0.007(4)
C38 0.034(5) 0.049(6) 0.060(7) 0.008(5) 0.022(5) 0.003(5)
C39 0.048(6) 0.057(6) 0.037(6) 0.015(5) 0.018(5) 0.008(5)
C40 0.032(5) 0.050(6) 0.033(6) 0.001(5) 0.005(4) 0.007(4)
C41 0.024(5) 0.044(5) 0.023(5) 0.007(4) 0.001(4) 0.012(4)
C42 0.026(5) 0.038(5) 0.053(6) 0.017(5) 0.009(5) 0.001(4)
C43 0.034(5) 0.034(5) 0.048(6) 0.010(5) 0.010(5) 0.005(4)
C44 0.021(4) 0.036(5) 0.029(5) 0.010(4) -0.004(4) 0.004(4)
C45 0.052(6) 0.052(6) 0.067(6) 0.011(5) 0.023(5) 0.013(5)
N8 0.048(13) 0.024(7) 0.054(8) -0.002(6) 0.021(9) 0.011(7)
C46 0.069(11) 0.052(11) 0.065(8) 0.008(8) 0.032(8) 0.032(10)
C47 0.084(11) 0.099(14) 0.063(8) 0.005(8) 0.035(7) 0.044(10)
C48 0.087(12) 0.110(19) 0.080(9) 0.004(9) 0.024(8) 0.049(11)
C49 0.082(11) 0.110(15) 0.080(8) 0.009(9) 0.021(7) 0.063(11)
C50 0.084(12) 0.14(2) 0.084(9) 0.008(10) 0.012(8) 0.062(11)
C51 0.081(12) 0.11(2) 0.078(9) 0.010(9) 0.008(8) 0.065(12)
N5 0.081(14) 0.078(10) 0.079(11) 0.029(8) 0.013(9) 0.050(9)
C52 0.033(5) 0.055(6) 0.076(7) 0.025(5) 0.009(5) 0.016(4)
C45B 0.052(6) 0.052(6) 0.067(6) 0.011(5) 0.023(5) 0.013(5)
N8B 0.027(16) 0.071(14) 0.072(9) 0.016(8) 0.017(9) 0.010(11)
C46B 0.043(14) 0.073(16) 0.074(10) 0.021(10) 0.024(9) 0.016(12)
C47B 0.028(14) 0.069(15) 0.073(10) 0.024(10) 0.017(9) 0.015(12)
C48B 0.066(15) 0.105(15) 0.070(9) 0.020(9) 0.015(8) 0.044(12)
C49B 0.050(11) 0.077(17) 0.069(9) 0.021(9) 0.006(8) 0.017(10)
C50B 0.047(11) 0.037(14) 0.084(12) 0.041(10) -0.002(8) 0.001(10)
C51B 0.025(10) 0.051(18) 0.080(12) 0.037(11) -0.001(8) 0.000(9)
N5B 0.023(10) 0.051(11) 0.092(16) 0.032(11) -0.005(9) 0.000(8)
C52B 0.033(5) 0.055(6) 0.076(7) 0.025(5) 0.009(5) 0.016(4)
C53 0.033(5) 0.040(5) 0.051(6) 0.014(5) 0.008(5) 0.005(4)
N6 0.032(4) 0.046(5) 0.055(5) 0.007(4) 0.013(4) 0.010(4)
C54 0.037(5) 0.064(7) 0.054(7) 0.002(6) 0.007(5) 0.010(5)
C55 0.031(5) 0.083(8) 0.069(8) -0.019(6) 0.006(5) 0.016(5)
C56 0.049(7) 0.087(8) 0.070(8) -0.013(7) -0.001(6) 0.015(6)
C57 0.062(8) 0.209(15) 0.063(9) -0.018(10) -0.018(7) 0.045(9)
C58 0.080(10) 0.27(2) 0.080(11) -0.043(12) -0.019(8) 0.076(11)
C59 0.067(8) 0.065(8) 0.127(12) -0.006(8) -0.020(8) 0.006(6)
N7 0.025(4) 0.071(6) 0.090(7) 0.028(5) -0.021(5) -0.006(4)
C60 0.033(6) 0.058(7) 0.083(9) 0.009(6) 0.007(6) 0.007(5)
C61 0.057(7) 0.201(14) 0.031(7) -0.015(8) 0.002(6) -0.009(8)
C62 0.066(8) 0.172(12) 0.033(7) -0.012(8) 0.017(6) -0.030(8)
C63 0.035(5) 0.039(5) 0.034(5) 0.006(5) 0.013(5) -0.002(4)
C64 0.042(6) 0.115(9) 0.034(6) 0.005(6) -0.008(5) 0.006(6)
C65 0.062(7) 0.082(8) 0.032(6) 0.011(6) 0.012(5) -0.007(6)
O1 0.162(11) 0.41(2) 0.190(12) 0.049(13) 0.012(9) 0.006(11)
C68 0.151(13) 0.233(17) 0.134(13) -0.031(12) 0.034(10) -0.003(11)
C69 0.213(14) 0.266(19) 0.116(13) -0.054(12) 0.048(11) -0.087(13)
C70 0.095(10) 0.248(16) 0.103(10) -0.045(10) 0.020(8) -0.030(10)
O2 0.33(2) 0.095(14) 0.133(16) 0.021(11) 0.032(17) 0.057(15)
C71 0.215(19) 0.055(14) 0.079(15) 0.000(11) -0.043(14) 0.048(13)
C72 0.153(19) 0.075(16) 0.15(2) 0.053(18) -0.059(16) -0.012(13)
C73 0.212(18) 0.14(2) 0.053(15) 0.018(15) -0.053(13) 0.050(14)
C75 0.122(13) 0.076(13) 0.095(19) -0.001(12) -0.018(12) 0.015(10)
Cl10 0.145(9) 0.178(11) 0.107(10) 0.029(9) 0.009(8) 0.048(8)
Cl11 0.228(13) 0.129(9) 0.261(18) 0.095(10) 0.123(13) 0.091(9)
Cl12 0.244(15) 0.077(7) 0.102(9) 0.005(6) -0.024(9) 0.054(8)
N1 0.020(4) 0.038(4) 0.031(4) 0.005(3) -0.001(3) -0.001(3)
N2 0.030(4) 0.031(4) 0.025(4) 0.006(3) 0.004(3) 0.008(3)
N3 0.027(4) 0.036(4) 0.025(4) 0.003(3) -0.004(3) 0.007(3)
N4 0.023(4) 0.030(4) 0.035(4) 0.000(3) 0.007(3) 0.007(3)
N9 0.025(4) 0.038(4) 0.038(5) 0.004(4) 0.010(4) 0.003(3)
C66 0.047(9) 0.158(16) 0.31(2) -0.030(15) 0.026(12) 0.002(10)
Cl1 0.255(7) 0.133(4) 0.691(16) 0.121(7) 0.253(9) 0.078(5)
Cl2 0.123(3) 0.166(4) 0.201(5) 0.014(3) 0.049(3) 0.040(3)
Cl3 0.114(4) 0.341(7) 0.212(6) 0.139(5) 0.011(4) 0.037(4)
C67 0.219(19) 0.090(14) 0.196(17) 0.047(12) 0.093(13) 0.035(12)
Cl4 0.244(16) 0.149(12) 0.37(2) 0.081(14) 0.159(15) 0.076(12)
Cl5 0.234(11) 0.090(7) 0.202(15) 0.048(8) 0.070(10) 0.008(7)
Cl6 0.235(12) 0.131(11) 0.188(15) 0.049(11) 0.095(11) 0.032(9)
C67B 0.095(13) 0.092(12) 0.166(13) 0.025(10) 0.074(10) 0.036(10)
Cl4B 0.153(10) 0.192(13) 0.319(17) -0.007(10) 0.056(10) 0.095(10)
Cl5B 0.275(14) 0.116(7) 0.196(15) 0.021(9) 0.113(12) 0.037(8)
Cl6B 0.134(8) 0.214(12) 0.170(11) 0.050(9) 0.079(7) 0.026(7)
C74 0.077(13) 0.28(2) 0.27(2) -0.102(16) 0.057(13) -0.040(13)
Cl7 0.094(7) 0.290(13) 0.278(16) -0.107(11) 0.060(8) -0.007(8)
Cl8 0.168(10) 0.398(17) 0.267(15) -0.107(13) 0.077(9) 0.095(12)
Cl9 0.32(2) 0.44(2) 0.32(2) -0.034(17) 0.125(19) -0.09(2)
loop_
_atom_type_symbol
_atom_type_description
_atom_type_scat_dispersion_real
_atom_type_scat_dispersion_imag
_atom_type_scat_source
C C 0.0033 0.0016 'International Tables Vol C Tables 4.2.6.8 and 6.1.1.4'
H H 0.0000 0.0000 'International Tables Vol C Tables 4.2.6.8 and 6.1.1.4'
N N 0.0061 0.0033 'International Tables Vol C Tables 4.2.6.8 and 6.1.1.4'
O O 0.0106 0.0060 'International Tables Vol C Tables 4.2.6.8 and 6.1.1.4'
Zn Zn 0.2839 1.4301 'International Tables Vol C Tables 4.2.6.8 and 6.1.1.4'
Cl Cl 0.1484 0.1585 'International Tables Vol C Tables 4.2.6.8 and 6.1.1.4'
loop_
_geom_angle_atom_site_label_1
_geom_angle_atom_site_label_2
_geom_angle_atom_site_label_3
_geom_angle
_geom_angle_site_symmetry_1
_geom_angle_site_symmetry_3
N4 Zn1 N1 88.9(2) . .
N4 Zn1 N2 159.7(2) . .
N1 Zn1 N2 87.6(2) . .
N4 Zn1 N3 88.2(2) . .
N1 Zn1 N3 161.9(2) . .
N2 Zn1 N3 89.0(2) . .
N4 Zn1 N9 103.4(2) . .
N1 Zn1 N9 102.6(2) . .
N2 Zn1 N9 96.9(2) . .
N3 Zn1 N9 95.4(2) . .
C2 C1 C6 122.5(8) . .
C2 C1 H1 118.8 . .
C6 C1 H1 118.8 . .
C3 C2 C1 118.3(8) . .
C3 C2 H2 120.9 . .
C1 C2 H2 120.9 . .
C2 C3 C4 121.5(8) . .
C2 C3 H3 119.3 . .
C4 C3 H3 119.3 . .
C5 C4 C3 118.8(8) . .
C5 C4 C45B 120.9(8) . .
C3 C4 C45B 120.3(8) . .
C5 C4 C45 120.9(8) . .
C3 C4 C45 120.3(8) . .
C4 C5 C6 121.0(8) . .
C4 C5 H5 119.5 . .
C6 C5 H5 119.5 . .
C1 C6 C5 117.9(7) . .
C1 C6 C7 120.8(7) . .
C5 C6 C7 121.2(7) . .
C44 C7 C8 125.0(7) . .
C44 C7 C6 117.5(6) . .
C8 C7 C6 117.3(7) . .
N4 C8 C7 125.0(7) . .
N4 C8 C9 109.8(6) . .
C7 C8 C9 125.3(7) . .
C10 C9 C8 107.2(7) . .
C10 C9 H9 126.4 . .
C8 C9 H9 126.4 . .
C9 C10 C11 107.7(7) . .
C9 C10 H10 126.2 . .
C11 C10 H10 126.2 . .
N4 C11 C12 124.8(7) . .
N4 C11 C10 110.3(6) . .
C12 C11 C10 124.9(7) . .
C19 C12 C11 124.1(7) . .
C19 C12 C13 118.1(7) . .
C11 C12 C13 117.9(7) . .
C14 C13 C18 118.3(7) . .
C14 C13 C12 119.9(7) . .
C18 C13 C12 121.8(7) . .
C13 C14 C15 122.0(8) . .
C13 C14 H14 119.0 . .
C15 C14 H14 119.0 . .
C14 C15 C16 117.7(8) . .
C14 C15 C53 118.9(8) . .
C16 C15 C53 123.5(7) . .
C17 C16 C15 120.9(8) . .
C17 C16 H16 119.6 . .
C15 C16 H16 119.6 . .
C16 C17 C18 120.9(8) . .
C16 C17 H17 119.6 . .
C18 C17 H17 119.6 . .
C17 C18 C13 120.4(8) . .
C17 C18 H18 119.8 . .
C13 C18 H18 119.8 . .
N3 C19 C12 124.8(7) . .
N3 C19 C20 109.6(7) . .
C12 C19 C20 125.6(7) . .
C21 C20 C19 106.7(7) . .
C21 C20 H20 126.7 . .
C19 C20 H20 126.7 . .
C20 C21 C22 108.2(7) . .
C20 C21 H21 125.9 . .
C22 C21 H21 125.9 . .
N3 C22 C23 124.3(7) . .
N3 C22 C21 109.5(7) . .
C23 C22 C21 126.1(7) . .
C30 C23 C22 124.8(7) . .
C30 C23 C24 117.7(7) . .
C22 C23 C24 117.4(7) . .
C25 C24 C29 117.6(8) . .
C25 C24 C23 122.1(8) . .
C29 C24 C23 120.2(8) . .
C26 C25 C24 120.6(9) . .
C26 C25 H25 119.7 . .
C24 C25 H25 119.7 . .
C25 C26 C27 121.5(9) . .
C25 C26 H26 119.2 . .
C27 C26 H26 119.2 . .
C26 C27 C28 119.4(9) . .
C26 C27 H27 120.3 . .
C28 C27 H27 120.3 . .
C29 C28 C27 118.3(9) . .
C29 C28 C52B 119.7(8) . 2_655
C27 C28 C52B 122.0(8) . 2_655
C29 C28 C52 119.7(8) . 2_655
C27 C28 C52 122.0(8) . 2_655
C28 C29 C24 122.4(8) . .
C28 C29 H29 118.8 . .
C24 C29 H29 118.8 . .
N2 C30 C23 126.0(7) . .
N2 C30 C31 109.4(6) . .
C23 C30 C31 124.6(7) . .
C32 C31 C30 105.5(7) . .
C32 C31 H31 127.2 . .
C30 C31 H31 127.2 . .
C31 C32 C33 109.5(7) . .
C31 C32 H32 125.2 . .
C33 C32 H32 125.2 . .
N2 C33 C34 123.3(7) . .
N2 C33 C32 109.7(7) . .
C34 C33 C32 126.9(7) . .
C33 C34 C41 126.2(7) . .
C33 C34 C35 117.8(7) . .
C41 C34 C35 115.9(7) . .
C40 C35 C36 117.8(7) . .
C40 C35 C34 120.8(7) . .
C36 C35 C34 121.4(7) . .
C37 C36 C35 120.0(8) . .
C37 C36 H36 120.0 . .
C35 C36 H36 120.0 . .
C38 C37 C36 120.1(8) . .
C38 C37 C60 117.3(8) . 2_655
C36 C37 C60 122.6(9) . 2_655
C39 C38 C37 120.3(8) . .
C39 C38 H38 119.8 . .
C37 C38 H38 119.8 . .
C38 C39 C40 120.2(8) . .
C38 C39 H39 119.9 . .
C40 C39 H39 119.9 . .
C39 C40 C35 121.5(8) . .
C39 C40 H40 119.2 . .
C35 C40 H40 119.2 . .
N1 C41 C34 124.2(7) . .
N1 C41 C42 109.6(7) . .
C34 C41 C42 126.1(7) . .
C43 C42 C41 107.0(7) . .
C43 C42 H42 126.5 . .
C41 C42 H42 126.5 . .
C42 C43 C44 108.7(7) . .
C42 C43 H43 125.7 . .
C44 C43 H43 125.7 . .
N1 C44 C7 125.0(7) . .
N1 C44 C43 108.5(6) . .
C7 C44 C43 126.3(7) . .
N8 C45 C4 126.3(10) . .
N8 C45 H45 116.9 . .
C4 C45 H45 116.9 . .
C45 N8 C46 119.4(13) . .
N8 C46 C47 113.8(13) . .
N8 C46 H46A 108.8 . .
C47 C46 H46A 108.8 . .
N8 C46 H46B 108.8 . .
C47 C46 H46B 108.8 . .
H46A C46 H46B 107.7 . .
C46 C47 C48 118.1(15) . .
C46 C47 H47A 107.8 . .
C48 C47 H47A 107.8 . .
C46 C47 H47B 107.8 . .
C48 C47 H47B 107.8 . .
H47A C47 H47B 107.1 . .
C49 C48 C47 112.1(16) . .
C49 C48 H48A 109.2 . .
C47 C48 H48A 109.2 . .
C49 C48 H48B 109.2 . .
C47 C48 H48B 109.2 . .
H48A C48 H48B 107.9 . .
C48 C49 C50 117.3(15) . .
C48 C49 H49A 108.0 . .
C50 C49 H49A 108.0 . .
C48 C49 H49B 108.0 . .
C50 C49 H49B 108.0 . .
H49A C49 H49B 107.2 . .
C51 C50 C49 112.6(15) . .
C51 C50 H50A 109.1 . .
C49 C50 H50A 109.1 . .
C51 C50 H50B 109.1 . .
C49 C50 H50B 109.1 . .
H50A C50 H50B 107.8 . .
C50 C51 N5 112.4(17) . .
C50 C51 H51A 109.1 . .
N5 C51 H51A 109.1 . .
C50 C51 H51B 109.1 . .
N5 C51 H51B 109.1 . .
H51A C51 H51B 107.9 . .
C52 N5 C51 114.3(17) . .
N5 C52 C28 125.8(13) . 2_655
N5 C52 H52 117.1 . .
C28 C52 H52 117.1 2_655 .
N8B C45B C4 118.1(13) . .
N8B C45B H45B 121.0 . .
C4 C45B H45B 121.0 . .
C45B N8B C46B 118.3(19) . .
N8B C46B C47B 112.5(18) . .
N8B C46B H46C 109.1 . .
C47B C46B H46C 109.1 . .
N8B C46B H46D 109.1 . .
C47B C46B H46D 109.1 . .
H46C C46B H46D 107.8 . .
C46B C47B C48B 115.7(18) . .
C46B C47B H47C 108.4 . .
C48B C47B H47C 108.4 . .
C46B C47B H47D 108.4 . .
C48B C47B H47D 108.4 . .
H47C C47B H47D 107.4 . .
C49B C48B C47B 112.6(17) . .
C49B C48B H48C 109.1 . .
C47B C48B H48C 109.1 . .
C49B C48B H48D 109.1 . .
C47B C48B H48D 109.1 . .
H48C C48B H48D 107.8 . .
C48B C49B C50B 117.2(17) . .
C48B C49B H49C 108.0 . .
C50B C49B H49C 108.0 . .
C48B C49B H49D 108.0 . .
C50B C49B H49D 108.0 . .
H49C C49B H49D 107.3 . .
C51B C50B C49B 111.7(16) . .
C51B C50B H50C 109.3 . .
C49B C50B H50C 109.3 . .
C51B C50B H50D 109.3 . .
C49B C50B H50D 109.3 . .
H50C C50B H50D 107.9 . .
C50B C51B N5B 112.6(19) . .
C50B C51B H51C 109.1 . .
N5B C51B H51C 109.1 . .
C50B C51B H51D 109.1 . .
N5B C51B H51D 109.1 . .
H51C C51B H51D 107.8 . .
C52B N5B C51B 114.6(19) . .
N5B C52B C28 123.6(13) . 2_655
N5B C52B H52B 118.2 . .
C28 C52B H52B 118.2 2_655 .
N6 C53 C15 122.4(8) . .
N6 C53 H53 118.8 . .
C15 C53 H53 118.8 . .
C53 N6 C54 117.8(7) . .
N6 C54 C55 110.9(7) . .
N6 C54 H54A 109.5 . .
C55 C54 H54A 109.5 . .
N6 C54 H54B 109.5 . .
C55 C54 H54B 109.5 . .
H54A C54 H54B 108.1 . .
C54 C55 C56 112.8(7) . .
C54 C55 H55A 109.0 . .
C56 C55 H55A 109.0 . .
C54 C55 H55B 109.0 . .
C56 C55 H55B 109.0 . .
H55A C55 H55B 107.8 . .
C57 C56 C55 114.5(8) . .
C57 C56 H56A 108.6 . .
C55 C56 H56A 108.6 . .
C57 C56 H56B 108.6 . .
C55 C56 H56B 108.6 . .
H56A C56 H56B 107.6 . .
C56 C57 C58 112.4(9) . .
C56 C57 H57A 109.1 . .
C58 C57 H57A 109.1 . .
C56 C57 H57B 109.1 . .
C58 C57 H57B 109.1 . .
H57A C57 H57B 107.8 . .
C59 C58 C57 112.7(10) . .
C59 C58 H58A 109.0 . .
C57 C58 H58A 109.0 . .
C59 C58 H58B 109.0 . .
C57 C58 H58B 109.0 . .
H58A C58 H58B 107.8 . .
C58 C59 N7 112.0(10) . .
C58 C59 H59A 109.2 . .
N7 C59 H59A 109.2 . .
C58 C59 H59B 109.2 . .
N7 C59 H59B 109.2 . .
H59A C59 H59B 107.9 . .
C60 N7 C59 113.9(9) . .
N7 C60 C37 123.9(9) . 2_655
N7 C60 H60 118.0 . .
C37 C60 H60 118.0 2_655 .
N9 C61 C62 128.5(10) . .
N9 C61 H61 115.7 . .
C62 C61 H61 115.7 . .
C63 C62 C61 120.8(9) . .
C63 C62 H62 119.6 . .
C61 C62 H62 119.6 . .
C62 C63 C64 113.2(8) . .
C62 C63 C63 125.2(10) . 2_655
C64 C63 C63 121.4(9) . 2_655
C63 C64 C65 120.5(8) . .
C63 C64 H64 119.7 . .
C65 C64 H64 119.7 . .
N9 C65 C64 125.1(8) . .
N9 C65 H65 117.5 . .
C64 C65 H65 117.5 . .
O1 C68 C70 124.2(13) . .
O1 C68 C69 121.2(13) . .
C70 C68 C69 114.6(14) . .
C68 C69 H69A 109.5 . .
C68 C69 H69B 109.5 . .
H69A C69 H69B 109.5 . .
C68 C69 H69C 109.5 . .
H69A C69 H69C 109.5 . .
H69B C69 H69C 109.5 . .
C68 C70 H70A 109.5 . .
C68 C70 H70B 109.5 . .
H70A C70 H70B 109.5 . .
C68 C70 H70C 109.5 . .
H70A C70 H70C 109.5 . .
H70B C70 H70C 109.5 . .
O2 C71 C73 126.1(14) . .
O2 C71 C72 125.5(15) . .
C73 C71 C72 108.5(17) . .
C71 C72 H72A 109.5 . .
C71 C72 H72B 109.5 . .
H72A C72 H72B 109.5 . .
C71 C72 H72C 109.5 . .
H72A C72 H72C 109.5 . .
H72B C72 H72C 109.5 . .
C71 C73 H73A 109.5 . .
C71 C73 H73B 109.5 . .
H73A C73 H73B 109.5 . .
C71 C73 H73C 109.5 . .
H73A C73 H73C 109.5 . .
H73B C73 H73C 109.5 . .
Cl10 C75 Cl12 112.8(13) . .
Cl10 C75 Cl11 117.8(14) . .
Cl12 C75 Cl11 107.0(12) . .
Cl10 C75 H75 106.1 . .
Cl12 C75 H75 106.1 . .
Cl11 C75 H75 106.1 . .
C44 N1 C41 106.0(6) . .
C44 N1 Zn1 126.2(5) . .
C41 N1 Zn1 126.7(5) . .
C33 N2 C30 105.7(6) . .
C33 N2 Zn1 129.1(5) . .
C30 N2 Zn1 125.3(5) . .
C22 N3 C19 105.9(6) . .
C22 N3 Zn1 124.3(5) . .
C19 N3 Zn1 124.5(5) . .
C8 N4 C11 105.1(6) . .
C8 N4 Zn1 126.9(5) . .
C11 N4 Zn1 127.5(5) . .
C61 N9 C65 111.7(8) . .
C61 N9 Zn1 126.6(6) . .
C65 N9 Zn1 121.5(6) . .
Cl1 C66 Cl3 110.2(9) . .
Cl1 C66 Cl2 109.5(7) . .
Cl3 C66 Cl2 111.5(8) . .
Cl1 C66 H66 108.5 . .
Cl3 C66 H66 108.5 . .
Cl2 C66 H66 108.5 . .
Cl4 C67 Cl5 108.1(11) . .
Cl4 C67 Cl6 110.2(11) . .
Cl5 C67 Cl6 109.6(11) . .
Cl4 C67 H67 109.6 . .
Cl5 C67 H67 109.6 . .
Cl6 C67 H67 109.6 . .
Cl4B C67B Cl6B 110.3(10) . .
Cl4B C67B Cl5B 109.6(9) . .
Cl6B C67B Cl5B 110.2(10) . .
Cl4B C67B H67B 108.9 . .
Cl6B C67B H67B 108.9 . .
Cl5B C67B H67B 108.9 . .
Cl7 C74 Cl9 110.7(11) . .
Cl7 C74 Cl8 114.5(12) . .
Cl9 C74 Cl8 113.5(12) . .
Cl7 C74 H74 105.8 . .
Cl9 C74 H74 105.8 . .
Cl8 C74 H74 105.8 . .
loop_
_geom_bond_atom_site_label_1
_geom_bond_atom_site_label_2
_geom_bond_distance
_geom_bond_site_symmetry_2
Zn1 N4 2.051(6) .
Zn1 N1 2.056(6) .
Zn1 N2 2.072(6) .
Zn1 N3 2.081(6) .
Zn1 N9 2.112(7) .
C1 C2 1.376(10) .
C1 C6 1.377(10) .
C1 H1 0.9500 .
C2 C3 1.363(10) .
C2 H2 0.9500 .
C3 C4 1.389(11) .
C3 H3 0.9500 .
C4 C5 1.380(10) .
C4 C45B 1.465(10) .
C4 C45 1.465(10) .
C5 C6 1.384(9) .
C5 H5 0.9500 .
C6 C7 1.484(10) .
C7 C44 1.396(9) .
C7 C8 1.410(9) .
C8 N4 1.382(8) .
C8 C9 1.440(9) .
C9 C10 1.338(9) .
C9 H9 0.9500 .
C10 C11 1.422(9) .
C10 H10 0.9500 .
C11 N4 1.384(8) .
C11 C12 1.415(9) .
C12 C19 1.413(9) .
C12 C13 1.489(9) .
C13 C14 1.383(9) .
C13 C18 1.399(9) .
C14 C15 1.405(9) .
C14 H14 0.9500 .
C15 C16 1.408(10) .
C15 C53 1.472(10) .
C16 C17 1.356(10) .
C16 H16 0.9500 .
C17 C18 1.389(9) .
C17 H17 0.9500 .
C18 H18 0.9500 .
C19 N3 1.373(8) .
C19 C20 1.439(10) .
C20 C21 1.330(9) .
C20 H20 0.9500 .
C21 C22 1.424(10) .
C21 H21 0.9500 .
C22 N3 1.369(8) .
C22 C23 1.415(9) .
C23 C30 1.414(9) .
C23 C24 1.502(10) .
C24 C25 1.377(10) .
C24 C29 1.398(10) .
C25 C26 1.369(11) .
C25 H25 0.9500 .
C26 C27 1.378(12) .
C26 H26 0.9500 .
C27 C28 1.393(11) .
C27 H27 0.9500 .
C28 C29 1.381(10) .
C28 C52B 1.475(11) 2_655
C28 C52 1.475(11) 2_655
C29 H29 0.9500 .
C30 N2 1.392(8) .
C30 C31 1.449(9) .
C31 C32 1.333(9) .
C31 H31 0.9500 .
C32 C33 1.413(9) .
C32 H32 0.9500 .
C33 N2 1.361(8) .
C33 C34 1.407(10) .
C34 C41 1.410(9) .
C34 C35 1.488(9) .
C35 C40 1.399(10) .
C35 C36 1.410(10) .
C36 C37 1.405(10) .
C36 H36 0.9500 .
C37 C38 1.382(11) .
C37 C60 1.451(11) 2_655
C38 C39 1.372(11) .
C38 H38 0.9500 .
C39 C40 1.380(10) .
C39 H39 0.9500 .
C40 H40 0.9500 .
C41 N1 1.384(8) .
C41 C42 1.433(9) .
C42 C43 1.326(9) .
C42 H42 0.9500 .
C43 C44 1.436(9) .
C43 H43 0.9500 .
C44 N1 1.377(8) .
C45 N8 1.274(12) .
C45 H45 0.9500 .
N8 C46 1.437(12) .
C46 C47 1.495(15) .
C46 H46A 0.9900 .
C46 H46B 0.9900 .
C47 C48 1.499(16) .
C47 H47A 0.9900 .
C47 H47B 0.9900 .
C48 C49 1.476(16) .
C48 H48A 0.9900 .
C48 H48B 0.9900 .
C49 C50 1.513(15) .
C49 H49A 0.9900 .
C49 H49B 0.9900 .
C50 C51 1.464(15) .
C50 H50A 0.9900 .
C50 H50B 0.9900 .
C51 N5 1.491(14) .
C51 H51A 0.9900 .
C51 H51B 0.9900 .
N5 C52 1.259(13) .
C52 C28 1.475(11) 2_655
C52 H52 0.9500 .
C45B N8B 1.269(15) .
C45B H45B 0.9500 .
N8B C46B 1.430(15) .
C46B C47B 1.486(17) .
C46B H46C 0.9900 .
C46B H46D 0.9900 .
C47B C48B 1.503(17) .
C47B H47C 0.9900 .
C47B H47D 0.9900 .
C48B C49B 1.482(17) .
C48B H48C 0.9900 .
C48B H48D 0.9900 .
C49B C50B 1.525(16) .
C49B H49C 0.9900 .
C49B H49D 0.9900 .
C50B C51B 1.450(16) .
C50B H50C 0.9900 .
C50B H50D 0.9900 .
C51B N5B 1.488(15) .
C51B H51C 0.9900 .
C51B H51D 0.9900 .
N5B C52B 1.259(14) .
C52B C28 1.475(11) 2_655
C52B H52B 0.9500 .
C53 N6 1.262(8) .
C53 H53 0.9500 .
N6 C54 1.433(8) .
C54 C55 1.509(10) .
C54 H54A 0.9900 .
C54 H54B 0.9900 .
C55 C56 1.515(10) .
C55 H55A 0.9900 .
C55 H55B 0.9900 .
C56 C57 1.457(11) .
C56 H56A 0.9900 .
C56 H56B 0.9900 .
C57 C58 1.564(12) .
C57 H57A 0.9900 .
C57 H57B 0.9900 .
C58 C59 1.376(12) .
C58 H58A 0.9900 .
C58 H58B 0.9900 .
C59 N7 1.484(10) .
C59 H59A 0.9900 .
C59 H59B 0.9900 .
N7 C60 1.242(9) .
C60 C37 1.451(11) 2_655
C60 H60 0.9500 .
C61 N9 1.265(10) .
C61 C62 1.371(12) .
C61 H61 0.9500 .
C62 C63 1.349(11) .
C62 H62 0.9500 .
C63 C64 1.359(11) .
C63 C63 1.455(15) 2_655
C64 C65 1.410(11) .
C64 H64 0.9500 .
C65 N9 1.308(9) .
C65 H65 0.9500 .
O1 C68 1.274(12) .
C68 C70 1.482(13) .
C68 C69 1.488(13) .
C69 H69A 0.9800 .
C69 H69B 0.9800 .
C69 H69C 0.9800 .
C70 H70A 0.9800 .
C70 H70B 0.9800 .
C70 H70C 0.9800 .
O2 C71 1.250(13) .
C71 C73 1.486(14) .
C71 C72 1.503(14) .
C72 H72A 0.9800 .
C72 H72B 0.9800 .
C72 H72C 0.9800 .
C73 H73A 0.9800 .
C73 H73B 0.9800 .
C73 H73C 0.9800 .
C75 Cl10 1.681(14) .
C75 Cl12 1.690(14) .
C75 Cl11 1.691(14) .
C75 H75 1.0000 .
C66 Cl1 1.668(11) .
C66 Cl3 1.684(11) .
C66 Cl2 1.722(10) .
C66 H66 1.0000 .
C67 Cl4 1.704(14) .
C67 Cl5 1.724(14) .
C67 Cl6 1.730(14) .
C67 H67 1.0000 .
C67B Cl4B 1.697(12) .
C67B Cl6B 1.704(13) .
C67B Cl5B 1.729(13) .
C67B H67B 1.0000 .
C74 Cl7 1.651(14) .
C74 Cl9 1.683(14) .
C74 Cl8 1.689(14) .
C74 H74 1.0000 .
